1:0:0
     RDKit          3D

 46 49  0  0  1  0  0  0  0  0999 V2000
   -2.1754   -1.8547    5.6755 O   0  0  0  0  0  0  0  0  0  0  0  0
   -1.3435   -0.9236    5.6789 C   0  0  0  0  0  0  0  0  0  0  0  0
   -1.4187    0.0599    6.4529 O   0  0  0  0  0  0  0  0  0  0  0  0
   -0.1376   -1.0262    4.7502 C   0  0  0  0  0  0  0  0  0  0  0  0
    0.9898   -1.8759    5.3819 C   0  0  0  0  0  0  0  0  0  0  0  0
    1.2248   -3.1216    4.6726 N   0  0  0  0  0  0  0  0  0  0  0  0
    2.2573   -3.4007    3.8129 C   0  0  0  0  0  0  0  0  0  0  0  0
    2.0890   -4.6695    3.3358 C   0  0  0  0  0  0  0  0  0  0  0  0
    2.8673   -5.4146    2.3712 C   0  0  0  0  0  0  0  0  0  0  0  0
    3.7067   -5.0162    1.3918 C   0  0  0  0  0  0  0  0  0  0  0  0
    4.3718   -5.9725    0.5169 C   0  0  0  0  0  0  0  0  0  0  0  0
    4.2930   -7.2032    0.5158 O   0  0  0  0  0  0  0  0  0  0  0  0
    5.1049   -5.2560   -0.3397 N   0  0  0  0  0  0  0  0  0  0  0  0
    4.9981   -3.8946   -0.1069 C   0  0  0  0  0  0  0  0  0  0  0  0
    5.7035   -2.8239   -0.8994 C   0  0  0  0  0  0  0  0  0  0  0  0
    4.8755   -2.2431   -2.0229 C   0  0  0  0  0  0  0  0  0  0  0  0
    4.1445   -3.0665   -2.9042 C   0  0  0  0  0  0  0  0  0  0  0  0
    3.3859   -2.4601   -3.9173 C   0  0  0  0  0  0  0  0  0  0  0  0
    3.4139   -1.0588   -4.0412 C   0  0  0  0  0  0  0  0  0  0  0  0
    4.1694   -0.3240   -3.1092 C   0  0  0  0  0  0  0  0  0  0  0  0
    4.8950   -0.9025   -2.1296 N   0  0  0  0  0  0  0  0  0  0  0  0
    4.0780   -3.6569    0.9754 C   0  0  0  0  0  0  0  0  0  0  0  0
    3.7251   -2.5571    1.3926 O   0  0  0  0  0  0  0  0  0  0  0  0
    0.8998   -5.1101    4.0121 C   0  0  0  0  0  0  0  0  0  0  0  0
    0.1881   -6.3894    3.9178 C   0  0  0  0  0  0  0  0  0  0  0  0
   -0.5868   -6.9897    4.8738 C   0  0  0  0  0  0  0  0  0  0  0  0
   -1.1069   -8.2544    4.4614 C   0  0  0  0  0  0  0  0  0  0  0  0
   -0.7302   -8.5981    3.1919 C   0  0  0  0  0  0  0  0  0  0  0  0
    0.2383   -7.3607    2.4558 S   0  0  0  0  0  0  0  0  0  0  0  0
    0.4172   -4.1874    4.8400 N   0  0  0  0  0  0  0  0  0  0  0  0
   -0.4469   -1.4373    3.7887 H   0  0  0  0  0  0  0  0  0  0  0  0
    0.2351   -0.0214    4.5456 H   0  0  0  0  0  0  0  0  0  0  0  0
    1.9181   -1.3031    5.3507 H   0  0  0  0  0  0  0  0  0  0  0  0
    0.8181   -2.1074    6.4350 H   0  0  0  0  0  0  0  0  0  0  0  0
    3.0104   -2.6443    3.6499 H   0  0  0  0  0  0  0  0  0  0  0  0
    2.7987   -6.4835    2.4675 H   0  0  0  0  0  0  0  0  0  0  0  0
    6.0360   -2.0427   -0.2100 H   0  0  0  0  0  0  0  0  0  0  0  0
    4.1473   -4.1413   -2.8111 H   0  0  0  0  0  0  0  0  0  0  0  0
    2.8107   -3.0590   -4.6108 H   0  0  0  0  0  0  0  0  0  0  0  0
    2.8541   -0.5561   -4.8140 H   0  0  0  0  0  0  0  0  0  0  0  0
    4.2107    0.7549   -3.1616 H   0  0  0  0  0  0  0  0  0  0  0  0
   -0.7844   -6.5586    5.8491 H   0  0  0  0  0  0  0  0  0  0  0  0
   -1.7198   -8.8621    5.1107 H   0  0  0  0  0  0  0  0  0  0  0  0
   -0.9617   -9.5085    2.6535 H   0  0  0  0  0  0  0  0  0  0  0  0
    6.5911   -3.2674   -1.3358 H   0  0  0  0  0  0  0  0  0  0  0  0
    5.6605   -5.6464   -1.0876 H   0  0  0  0  0  0  0  0  0  0  0  0
  1  2  2  0
  2  3  1  0
  2  4  1  0
  4  5  1  0
  4 31  1  0
  4 32  1  0
  5  6  1  0
  5 33  1  0
  5 34  1  0
  6 30  1  0
  6  7  1  0
  7  8  2  0
  7 35  1  0
  8  9  1  0
  8 24  1  0
  9 10  2  3
  9 36  1  0
 10 22  1  0
 10 11  1  0
 11 12  2  0
 11 13  1  0
 13 14  1  0
 13 46  1  0
 14 15  1  0
 14 22  1  0
 15 16  1  0
 15 37  1  0
 15 45  1  0
 16 21  1  0
 16 17  2  0
 17 18  1  0
 17 38  1  0
 18 19  2  0
 18 39  1  0
 19 20  1  0
 19 40  1  0
 20 21  2  0
 20 41  1  0
 22 23  2  0
 24 25  1  0
 24 30  2  0
 25 29  1  0
 25 26  2  0
 26 27  1  0
 26 42  1  0
 27 28  2  0
 27 43  1  0
 28 29  1  0
 28 44  1  0
M  CHG  2   3  -1  14   1
M  END
>  <i_m_ct_stereo_status>  (1) 
1

>  <s_m_source_file>  (1) 
/var/tmp/pbs.5076255.sched01/tmpikn618da/06v91y69d.sdf

>  <i_m_source_file_index>  (1) 
2

>  <i_lp_mmshare_version>  (1) 
48012

>  <i_f3d_flags>  (1) 
0

>  <s_epik_input>  (1) 
Tz1DKFtPSF0pW0NIMl1bQ0gyXW4xW2NIXWMoYyhuMSktYzJbY0hdW2NIXVtjSF1zMikvW0NIXT1DMy9DKD1PKVtOSF0vQyhDMz1PKT1bQ0hdXGM0W2NIXVtjSF1bY0hdW2NIXW40

>  <s_epik_cmdline>  (1) 
J2VwaWtfcHl0aG9uJywgJy1waHQnLCAnMi4wJywgJy1waCcsICc3LjAnLCAnLXRuJywgJzgnLCAnLW1hJywgJzIwMCcsICctaW1hZScsICc8aW5maWxlLm1hZT4nLCAnLW9tYWUnLCAnPG91dGZpbGUubWFlPic=

>  <r_epik_Ionization_Penalty>  (1) 
0.0518888

>  <r_epik_Ionization_Penalty_Charging>  (1) 
0.000995344

>  <r_epik_Ionization_Penalty_Neutral>  (1) 
0.0508935

>  <r_epik_State_Penalty>  (1) 
0.030593

>  <r_epik_Charging_Adjusted_Penalty>  (1) 
0.0315883

>  <i_epik_Tot_Q>  (1) 
0

>  <i_epik_Tot_abs_Q>  (1) 
2

>  <s_lp_Force_Field>  (1) 
OPLS3e

>  <r_lp_Energy>  (1) 
18.1892

>  <b_lp_Chiralities_Consistent>  (1) 
1

>  <s_lp_Variant>  (1) 
1:0-1

>  <s_i_glide_gridfile>  (1) 
pfpi4k_grid

>  <i_i_glide_lignum>  (1) 
2

>  <i_i_glide_rotatable_bonds>  (1) 
7

>  <r_i_docking_score>  (1) 
-3.72487

>  <r_i_glide_ligand_efficiency>  (1) 
-0.124162

>  <r_i_glide_ligand_efficiency_sa>  (1) 
-0.385801

>  <r_i_glide_ligand_efficiency_ln>  (1) 
-0.84633

>  <r_i_glide_gscore>  (1) 
-3.72487

>  <r_i_glide_lipo>  (1) 
-0.514183

>  <r_i_glide_hbond>  (1) 
-0.193718

>  <r_i_glide_metal>  (1) 
-0

>  <r_i_glide_rewards>  (1) 
-0.7272

>  <r_i_glide_evdw>  (1) 
-34.8716

>  <r_i_glide_ecoul>  (1) 
-7.64801

>  <r_i_glide_erotb>  (1) 
0.671798

>  <r_i_glide_esite>  (1) 
-0.0707806

>  <r_i_glide_emodel>  (1) 
-51.9188

>  <r_i_glide_energy>  (1) 
-42.5196

>  <r_i_glide_einternal>  (1) 
9.24439

>  <r_i_glide_intrahb_reward>  (1) 
-0

>  <i_i_glide_confnum>  (1) 
4

>  <i_i_glide_posenum>  (1) 
29

>  <r_i_glide_eff_state_penalty>  (1) 
0

>  <ligand_id>  (1) 
1

>  <original_smiles>  (1) 
O=C(O)CCn1cc(C=C2C(=O)NC(=Cc3ccccn3)C2=O)c(-c2cccs2)n1

>  <smiles>  (1) 
[H]C(=C1C(=O)[C+](C([H])([H])c2nc([H])c([H])c([H])c2[H])N([H])C1=O)c1c(-c2sc([H])c([H])c2[H])nn(C([H])([H])C([H])([H])C(=O)[O-])c1[H]

$$$$
1:0:1
     RDKit          3D

 46 49  0  0  1  0  0  0  0  0999 V2000
   -1.5450   -3.6087    6.8806 O   0  0  0  0  0  0  0  0  0  0  0  0
   -0.6522   -3.5704    7.7538 C   0  0  0  0  0  0  0  0  0  0  0  0
   -0.8755   -3.4512    8.9773 O   0  0  0  0  0  0  0  0  0  0  0  0
    0.8144   -3.5951    7.3271 C   0  0  0  0  0  0  0  0  0  0  0  0
    1.0102   -3.0360    5.9002 C   0  0  0  0  0  0  0  0  0  0  0  0
    1.2785   -4.0942    4.9462 N   0  0  0  0  0  0  0  0  0  0  0  0
    2.3568   -4.2087    4.1117 C   0  0  0  0  0  0  0  0  0  0  0  0
    2.2130   -5.3813    3.4092 C   0  0  0  0  0  0  0  0  0  0  0  0
    3.0585   -5.9138    2.3740 C   0  0  0  0  0  0  0  0  0  0  0  0
    3.8353   -5.3143    1.4476 C   0  0  0  0  0  0  0  0  0  0  0  0
    4.5792   -6.1158    0.4761 C   0  0  0  0  0  0  0  0  0  0  0  0
    4.6200   -7.3299    0.3504 O   0  0  0  0  0  0  0  0  0  0  0  0
    5.2232   -5.2289   -0.3017 N   0  0  0  0  0  0  0  0  0  0  0  0
    4.9903   -3.9290    0.1008 C   0  0  0  0  0  0  0  0  0  0  0  0
    5.5710   -2.7157   -0.5858 C   0  0  0  0  0  0  0  0  0  0  0  0
    4.8261   -2.2772   -1.8308 C   0  0  0  0  0  0  0  0  0  0  0  0
    4.2009   -3.1911   -2.7020 C   0  0  0  0  0  0  0  0  0  0  0  0
    3.5092   -2.7004   -3.8225 C   0  0  0  0  0  0  0  0  0  0  0  0
    3.4889   -1.3108   -4.0388 C   0  0  0  0  0  0  0  0  0  0  0  0
    4.1428   -0.4801   -3.1141 C   0  0  0  0  0  0  0  0  0  0  0  0
    4.8136   -0.9460   -2.0406 N   0  0  0  0  0  0  0  0  0  0  0  0
    4.0612   -3.8988    1.1966 C   0  0  0  0  0  0  0  0  0  0  0  0
    3.6034   -2.9085    1.7552 O   0  0  0  0  0  0  0  0  0  0  0  0
    0.9876   -5.9275    3.9084 C   0  0  0  0  0  0  0  0  0  0  0  0
    0.3089   -7.1828    3.5435 C   0  0  0  0  0  0  0  0  0  0  0  0
    0.7807   -8.2624    2.8287 C   0  0  0  0  0  0  0  0  0  0  0  0
   -0.1772   -9.2944    2.6586 C   0  0  0  0  0  0  0  0  0  0  0  0
   -1.3753   -9.0171    3.2432 C   0  0  0  0  0  0  0  0  0  0  0  0
   -1.3451   -7.4649    4.0450 S   0  0  0  0  0  0  0  0  0  0  0  0
    0.4277   -5.1280    4.8062 N   0  0  0  0  0  0  0  0  0  0  0  0
    1.3934   -2.9917    8.0269 H   0  0  0  0  0  0  0  0  0  0  0  0
    1.2066   -4.6119    7.4171 H   0  0  0  0  0  0  0  0  0  0  0  0
    0.1739   -2.4385    5.5267 H   0  0  0  0  0  0  0  0  0  0  0  0
    1.8606   -2.3502    5.9067 H   0  0  0  0  0  0  0  0  0  0  0  0
    3.1277   -3.4565    4.1132 H   0  0  0  0  0  0  0  0  0  0  0  0
    3.1473   -6.9900    2.3572 H   0  0  0  0  0  0  0  0  0  0  0  0
    5.6502   -1.9042    0.1437 H   0  0  0  0  0  0  0  0  0  0  0  0
    4.2188   -4.2562   -2.5366 H   0  0  0  0  0  0  0  0  0  0  0  0
    3.0076   -3.3797   -4.4953 H   0  0  0  0  0  0  0  0  0  0  0  0
    2.9740   -0.8892   -4.8875 H   0  0  0  0  0  0  0  0  0  0  0  0
    4.1448    0.5919   -3.2403 H   0  0  0  0  0  0  0  0  0  0  0  0
    1.7605   -8.4276    2.3984 H   0  0  0  0  0  0  0  0  0  0  0  0
    0.0795  -10.1938    2.1249 H   0  0  0  0  0  0  0  0  0  0  0  0
   -2.2378   -9.6601    3.2824 H   0  0  0  0  0  0  0  0  0  0  0  0
    6.5851   -2.9748   -0.8822 H   0  0  0  0  0  0  0  0  0  0  0  0
    5.7862   -5.4901   -1.0987 H   0  0  0  0  0  0  0  0  0  0  0  0
  1  2  2  0
  2  3  1  0
  2  4  1  0
  4  5  1  0
  4 31  1  0
  4 32  1  0
  5  6  1  0
  5 33  1  0
  5 34  1  0
  6 30  1  0
  6  7  1  0
  7  8  2  0
  7 35  1  0
  8  9  1  0
  8 24  1  0
  9 10  2  3
  9 36  1  0
 10 22  1  0
 10 11  1  0
 11 12  2  0
 11 13  1  0
 13 14  1  0
 13 46  1  0
 14 15  1  0
 14 22  1  0
 15 16  1  0
 15 37  1  0
 15 45  1  0
 16 21  1  0
 16 17  2  0
 17 18  1  0
 17 38  1  0
 18 19  2  0
 18 39  1  0
 19 20  1  0
 19 40  1  0
 20 21  2  0
 20 41  1  0
 22 23  2  0
 24 25  1  0
 24 30  2  0
 25 29  1  0
 25 26  2  0
 26 27  1  0
 26 42  1  0
 27 28  2  0
 27 43  1  0
 28 29  1  0
 28 44  1  0
M  CHG  2   3  -1  14   1
M  END
>  <i_m_ct_stereo_status>  (2) 
1

>  <s_m_source_file>  (2) 
/var/tmp/pbs.5076255.sched01/tmpikn618da/06v91y69d.sdf

>  <i_m_source_file_index>  (2) 
2

>  <i_lp_mmshare_version>  (2) 
48012

>  <i_f3d_flags>  (2) 
0

>  <s_epik_input>  (2) 
Tz1DKFtPSF0pW0NIMl1bQ0gyXW4xW2NIXWMoYyhuMSktYzJbY0hdW2NIXVtjSF1zMikvW0NIXT1DMy9DKD1PKVtOSF0vQyhDMz1PKT1bQ0hdXGM0W2NIXVtjSF1bY0hdW2NIXW40

>  <s_epik_cmdline>  (2) 
J2VwaWtfcHl0aG9uJywgJy1waHQnLCAnMi4wJywgJy1waCcsICc3LjAnLCAnLXRuJywgJzgnLCAnLW1hJywgJzIwMCcsICctaW1hZScsICc8aW5maWxlLm1hZT4nLCAnLW9tYWUnLCAnPG91dGZpbGUubWFlPic=

>  <r_epik_Ionization_Penalty>  (2) 
0.0518888

>  <r_epik_Ionization_Penalty_Charging>  (2) 
0.000995344

>  <r_epik_Ionization_Penalty_Neutral>  (2) 
0.0508935

>  <r_epik_State_Penalty>  (2) 
0.030593

>  <r_epik_Charging_Adjusted_Penalty>  (2) 
0.0315883

>  <i_epik_Tot_Q>  (2) 
0

>  <i_epik_Tot_abs_Q>  (2) 
2

>  <s_lp_Force_Field>  (2) 
OPLS3e

>  <r_lp_Energy>  (2) 
18.1892

>  <b_lp_Chiralities_Consistent>  (2) 
1

>  <s_lp_Variant>  (2) 
1:0-1

>  <s_i_glide_gridfile>  (2) 
pfpi4k_grid

>  <i_i_glide_lignum>  (2) 
2

>  <i_i_glide_rotatable_bonds>  (2) 
7

>  <r_i_docking_score>  (2) 
-3.35959

>  <r_i_glide_ligand_efficiency>  (2) 
-0.111986

>  <r_i_glide_ligand_efficiency_sa>  (2) 
-0.347967

>  <r_i_glide_ligand_efficiency_ln>  (2) 
-0.763334

>  <r_i_glide_gscore>  (2) 
-3.35959

>  <r_i_glide_lipo>  (2) 
-0.460656

>  <r_i_glide_hbond>  (2) 
-0.184542

>  <r_i_glide_metal>  (2) 
-0

>  <r_i_glide_rewards>  (2) 
-0.743065

>  <r_i_glide_evdw>  (2) 
-34.0807

>  <r_i_glide_ecoul>  (2) 
-5.87233

>  <r_i_glide_erotb>  (2) 
0.671798

>  <r_i_glide_esite>  (2) 
-0.0582368

>  <r_i_glide_emodel>  (2) 
-49.4298

>  <r_i_glide_energy>  (2) 
-39.953

>  <r_i_glide_einternal>  (2) 
5.70439

>  <r_i_glide_intrahb_reward>  (2) 
-0

>  <i_i_glide_confnum>  (2) 
4

>  <i_i_glide_posenum>  (2) 
25

>  <r_i_glide_eff_state_penalty>  (2) 
0

>  <ligand_id>  (2) 
1

>  <original_smiles>  (2) 
O=C(O)CCn1cc(C=C2C(=O)NC(=Cc3ccccn3)C2=O)c(-c2cccs2)n1

>  <smiles>  (2) 
[H]C(=C1C(=O)[C+](C([H])([H])c2nc([H])c([H])c([H])c2[H])N([H])C1=O)c1c(-c2sc([H])c([H])c2[H])nn(C([H])([H])C([H])([H])C(=O)[O-])c1[H]

$$$$
1:0:2
     RDKit          3D

 46 49  0  0  1  0  0  0  0  0999 V2000
   -2.1871   -8.1406    2.6657 O   0  0  0  0  0  0  0  0  0  0  0  0
   -1.1911   -7.4563    2.9847 C   0  0  0  0  0  0  0  0  0  0  0  0
   -0.6107   -6.6561    2.2183 O   0  0  0  0  0  0  0  0  0  0  0  0
   -0.7509   -7.5718    4.4506 C   0  0  0  0  0  0  0  0  0  0  0  0
    0.7152   -7.1773    4.6937 C   0  0  0  0  0  0  0  0  0  0  0  0
    0.8820   -5.7366    4.7683 N   0  0  0  0  0  0  0  0  0  0  0  0
    1.2834   -4.9133    3.7527 C   0  0  0  0  0  0  0  0  0  0  0  0
    1.3104   -3.6345    4.2056 C   0  0  0  0  0  0  0  0  0  0  0  0
    1.7089   -2.4154    3.5281 C   0  0  0  0  0  0  0  0  0  0  0  0
    2.4160   -2.1835    2.3954 C   0  0  0  0  0  0  0  0  0  0  0  0
    2.7054   -0.8288    1.9481 C   0  0  0  0  0  0  0  0  0  0  0  0
    2.3707    0.2423    2.4826 O   0  0  0  0  0  0  0  0  0  0  0  0
    3.4418   -0.9318    0.8422 N   0  0  0  0  0  0  0  0  0  0  0  0
    3.6289   -2.2640    0.4862 C   0  0  0  0  0  0  0  0  0  0  0  0
    4.4371   -2.7325   -0.6921 C   0  0  0  0  0  0  0  0  0  0  0  0
    3.9549   -2.1148   -1.9726 C   0  0  0  0  0  0  0  0  0  0  0  0
    4.3550   -0.8097   -2.3214 C   0  0  0  0  0  0  0  0  0  0  0  0
    3.8630   -0.2605   -3.5140 C   0  0  0  0  0  0  0  0  0  0  0  0
    3.0207   -1.0437   -4.3162 C   0  0  0  0  0  0  0  0  0  0  0  0
    2.6688   -2.3399   -3.8651 C   0  0  0  0  0  0  0  0  0  0  0  0
    3.1240   -2.8624   -2.7161 N   0  0  0  0  0  0  0  0  0  0  0  0
    3.0468   -3.1319    1.4770 C   0  0  0  0  0  0  0  0  0  0  0  0
    3.1254   -4.3567    1.4961 O   0  0  0  0  0  0  0  0  0  0  0  0
    0.8644   -3.7700    5.5777 C   0  0  0  0  0  0  0  0  0  0  0  0
    0.6554   -2.7229    6.5961 C   0  0  0  0  0  0  0  0  0  0  0  0
    0.5744   -1.3525    6.4603 C   0  0  0  0  0  0  0  0  0  0  0  0
    0.3987   -0.6680    7.6964 C   0  0  0  0  0  0  0  0  0  0  0  0
    0.3070   -1.5068    8.7668 C   0  0  0  0  0  0  0  0  0  0  0  0
    0.4519   -3.1793    8.2805 S   0  0  0  0  0  0  0  0  0  0  0  0
    0.6211   -5.0372    5.8945 N   0  0  0  0  0  0  0  0  0  0  0  0
   -1.4040   -6.9555    5.0670 H   0  0  0  0  0  0  0  0  0  0  0  0
   -0.8977   -8.6040    4.7729 H   0  0  0  0  0  0  0  0  0  0  0  0
    1.0947   -7.6141    5.6174 H   0  0  0  0  0  0  0  0  0  0  0  0
    1.3470   -7.5638    3.8889 H   0  0  0  0  0  0  0  0  0  0  0  0
    1.4770   -5.3716    2.7917 H   0  0  0  0  0  0  0  0  0  0  0  0
    1.3675   -1.5026    3.9460 H   0  0  0  0  0  0  0  0  0  0  0  0
    5.4831   -2.5064   -0.5106 H   0  0  0  0  0  0  0  0  0  0  0  0
    5.0106   -0.2503   -1.6805 H   0  0  0  0  0  0  0  0  0  0  0  0
    4.1403    0.7403   -3.8204 H   0  0  0  0  0  0  0  0  0  0  0  0
    2.6268   -0.6592   -5.2362 H   0  0  0  0  0  0  0  0  0  0  0  0
    2.0088   -2.9701   -4.4396 H   0  0  0  0  0  0  0  0  0  0  0  0
    0.6266   -0.7509    5.5699 H   0  0  0  0  0  0  0  0  0  0  0  0
    0.3535    0.4069    7.7034 H   0  0  0  0  0  0  0  0  0  0  0  0
    0.1765   -1.2353    9.8093 H   0  0  0  0  0  0  0  0  0  0  0  0
    4.3560   -3.8190   -0.7553 H   0  0  0  0  0  0  0  0  0  0  0  0
    3.7796   -0.1541    0.2884 H   0  0  0  0  0  0  0  0  0  0  0  0
  1  2  2  0
  2  3  1  0
  2  4  1  0
  4  5  1  0
  4 31  1  0
  4 32  1  0
  5  6  1  0
  5 33  1  0
  5 34  1  0
  6 30  1  0
  6  7  1  0
  7  8  2  0
  7 35  1  0
  8  9  1  0
  8 24  1  0
  9 10  2  3
  9 36  1  0
 10 22  1  0
 10 11  1  0
 11 12  2  0
 11 13  1  0
 13 14  1  0
 13 46  1  0
 14 15  1  0
 14 22  1  0
 15 16  1  0
 15 37  1  0
 15 45  1  0
 16 21  1  0
 16 17  2  0
 17 18  1  0
 17 38  1  0
 18 19  2  0
 18 39  1  0
 19 20  1  0
 19 40  1  0
 20 21  2  0
 20 41  1  0
 22 23  2  0
 24 25  1  0
 24 30  2  0
 25 29  1  0
 25 26  2  0
 26 27  1  0
 26 42  1  0
 27 28  2  0
 27 43  1  0
 28 29  1  0
 28 44  1  0
M  CHG  2   3  -1  14   1
M  END
>  <i_m_ct_stereo_status>  (3) 
1

>  <s_m_source_file>  (3) 
/var/tmp/pbs.5076255.sched01/tmpikn618da/06v91y69d.sdf

>  <i_m_source_file_index>  (3) 
2

>  <i_lp_mmshare_version>  (3) 
48012

>  <i_f3d_flags>  (3) 
0

>  <s_epik_input>  (3) 
Tz1DKFtPSF0pW0NIMl1bQ0gyXW4xW2NIXWMoYyhuMSktYzJbY0hdW2NIXVtjSF1zMikvW0NIXT1DMy9DKD1PKVtOSF0vQyhDMz1PKT1bQ0hdXGM0W2NIXVtjSF1bY0hdW2NIXW40

>  <s_epik_cmdline>  (3) 
J2VwaWtfcHl0aG9uJywgJy1waHQnLCAnMi4wJywgJy1waCcsICc3LjAnLCAnLXRuJywgJzgnLCAnLW1hJywgJzIwMCcsICctaW1hZScsICc8aW5maWxlLm1hZT4nLCAnLW9tYWUnLCAnPG91dGZpbGUubWFlPic=

>  <r_epik_Ionization_Penalty>  (3) 
0.0518888

>  <r_epik_Ionization_Penalty_Charging>  (3) 
0.000995344

>  <r_epik_Ionization_Penalty_Neutral>  (3) 
0.0508935

>  <r_epik_State_Penalty>  (3) 
0.030593

>  <r_epik_Charging_Adjusted_Penalty>  (3) 
0.0315883

>  <i_epik_Tot_Q>  (3) 
0

>  <i_epik_Tot_abs_Q>  (3) 
2

>  <s_lp_Force_Field>  (3) 
OPLS3e

>  <r_lp_Energy>  (3) 
18.1892

>  <b_lp_Chiralities_Consistent>  (3) 
1

>  <s_lp_Variant>  (3) 
1:0-1

>  <s_i_glide_gridfile>  (3) 
pfpi4k_grid

>  <i_i_glide_lignum>  (3) 
2

>  <i_i_glide_rotatable_bonds>  (3) 
7

>  <r_i_docking_score>  (3) 
-3.30821

>  <r_i_glide_ligand_efficiency>  (3) 
-0.110274

>  <r_i_glide_ligand_efficiency_sa>  (3) 
-0.342646

>  <r_i_glide_ligand_efficiency_ln>  (3) 
-0.751662

>  <r_i_glide_gscore>  (3) 
-3.30821

>  <r_i_glide_lipo>  (3) 
-0.481881

>  <r_i_glide_hbond>  (3) 
-0.2

>  <r_i_glide_metal>  (3) 
-0

>  <r_i_glide_rewards>  (3) 
-0.54244

>  <r_i_glide_evdw>  (3) 
-30.302

>  <r_i_glide_ecoul>  (3) 
-7.16354

>  <r_i_glide_erotb>  (3) 
0.671798

>  <r_i_glide_esite>  (3) 
-0.166058

>  <r_i_glide_emodel>  (3) 
-48.2512

>  <r_i_glide_energy>  (3) 
-37.4656

>  <r_i_glide_einternal>  (3) 
2.12559

>  <r_i_glide_intrahb_reward>  (3) 
-0

>  <i_i_glide_confnum>  (3) 
3

>  <i_i_glide_posenum>  (3) 
5

>  <r_i_glide_eff_state_penalty>  (3) 
0

>  <ligand_id>  (3) 
1

>  <original_smiles>  (3) 
O=C(O)CCn1cc(C=C2C(=O)NC(=Cc3ccccn3)C2=O)c(-c2cccs2)n1

>  <smiles>  (3) 
[H]C(=C1C(=O)[C+](C([H])([H])c2nc([H])c([H])c([H])c2[H])N([H])C1=O)c1c(-c2sc([H])c([H])c2[H])nn(C([H])([H])C([H])([H])C(=O)[O-])c1[H]

$$$$
1:1:0
     RDKit          3D

 46 49  0  0  1  0  0  0  0  0999 V2000
   -0.5716   -6.6461    2.5084 O   0  0  0  0  0  0  0  0  0  0  0  0
    0.3425   -6.6607    1.6569 C   0  0  0  0  0  0  0  0  0  0  0  0
    0.2096   -6.2525    0.4844 O   0  0  0  0  0  0  0  0  0  0  0  0
    1.7389   -7.1353    2.0772 C   0  0  0  0  0  0  0  0  0  0  0  0
    2.4502   -6.0998    2.9588 C   0  0  0  0  0  0  0  0  0  0  0  0
    2.6797   -4.8290    2.2946 N   0  0  0  0  0  0  0  0  0  0  0  0
    2.2521   -3.6056    2.7343 C   0  0  0  0  0  0  0  0  0  0  0  0
    2.6435   -2.6537    1.8250 C   0  0  0  0  0  0  0  0  0  0  0  0
    2.4027   -1.2187    1.8097 C   0  0  0  0  0  0  0  0  0  0  0  0
    1.5387   -0.4403    2.5135 C   0  0  0  0  0  0  0  0  0  0  0  0
    0.5452   -0.8339    3.5075 C   0  0  0  0  0  0  0  0  0  0  0  0
    0.2132   -1.9412    3.9139 O   0  0  0  0  0  0  0  0  0  0  0  0
   -0.0132    0.2984    3.9509 N   0  0  0  0  0  0  0  0  0  0  0  0
    0.5185    1.4242    3.3722 C   0  0  0  0  0  0  0  0  0  0  0  0
    0.0158    2.8193    3.6868 C   0  0  0  0  0  0  0  0  0  0  0  0
   -0.5605    2.9060    5.0958 C   0  0  0  0  0  0  0  0  0  0  0  0
    0.2726    2.9423    6.2356 C   0  0  0  0  0  0  0  0  0  0  0  0
   -0.3251    3.0068    7.5128 C   0  0  0  0  0  0  0  0  0  0  0  0
   -1.7308    3.0136    7.5994 C   0  0  0  0  0  0  0  0  0  0  0  0
   -2.4753    2.9465    6.4082 C   0  0  0  0  0  0  0  0  0  0  0  0
   -1.9071    2.8830    5.1853 N   0  0  0  0  0  0  0  0  0  0  0  0
    1.5144    1.0190    2.4004 C   0  0  0  0  0  0  0  0  0  0  0  0
    2.2109    1.7301    1.6931 O   0  0  0  0  0  0  0  0  0  0  0  0
    3.3648   -3.4328    0.8533 C   0  0  0  0  0  0  0  0  0  0  0  0
    4.0591   -2.9689   -0.3490 C   0  0  0  0  0  0  0  0  0  0  0  0
    3.8238   -1.8538   -1.1213 C   0  0  0  0  0  0  0  0  0  0  0  0
    4.7578   -1.7138   -2.1853 C   0  0  0  0  0  0  0  0  0  0  0  0
    5.6732   -2.7364   -2.2374 C   0  0  0  0  0  0  0  0  0  0  0  0
    5.4174   -3.8829   -0.9593 S   0  0  0  0  0  0  0  0  0  0  0  0
    3.3998   -4.7315    1.1593 N   0  0  0  0  0  0  0  0  0  0  0  0
    1.6513   -8.0743    2.6216 H   0  0  0  0  0  0  0  0  0  0  0  0
    2.3488   -7.3276    1.1937 H   0  0  0  0  0  0  0  0  0  0  0  0
    1.8799   -5.9177    3.8751 H   0  0  0  0  0  0  0  0  0  0  0  0
    3.4168   -6.4817    3.2788 H   0  0  0  0  0  0  0  0  0  0  0  0
    1.6984   -3.5754    3.6603 H   0  0  0  0  0  0  0  0  0  0  0  0
    3.0522   -0.6490    1.1658 H   0  0  0  0  0  0  0  0  0  0  0  0
    0.8580    3.5149    3.6287 H   0  0  0  0  0  0  0  0  0  0  0  0
    1.3487    2.9253    6.1446 H   0  0  0  0  0  0  0  0  0  0  0  0
    0.2791    3.0599    8.4097 H   0  0  0  0  0  0  0  0  0  0  0  0
   -2.2308    3.0836    8.5538 H   0  0  0  0  0  0  0  0  0  0  0  0
   -3.5556    2.9427    6.4274 H   0  0  0  0  0  0  0  0  0  0  0  0
    3.0196   -1.1394   -0.9796 H   0  0  0  0  0  0  0  0  0  0  0  0
    4.6973   -0.8830   -2.8694 H   0  0  0  0  0  0  0  0  0  0  0  0
    6.4674   -2.9116   -2.9438 H   0  0  0  0  0  0  0  0  0  0  0  0
   -0.7145    3.1137    2.9243 H   0  0  0  0  0  0  0  0  0  0  0  0
   -0.7500    0.3590    4.6329 H   0  0  0  0  0  0  0  0  0  0  0  0
  1  2  2  0
  2  3  1  0
  2  4  1  0
  4  5  1  0
  4 31  1  0
  4 32  1  0
  5  6  1  0
  5 33  1  0
  5 34  1  0
  6 30  1  0
  6  7  1  0
  7  8  2  0
  7 35  1  0
  8  9  1  0
  8 24  1  0
  9 10  2  3
  9 36  1  0
 10 22  1  0
 10 11  1  0
 11 12  2  0
 11 13  1  0
 13 14  1  0
 13 46  1  0
 14 15  1  0
 14 22  1  0
 15 16  1  0
 15 37  1  0
 15 45  1  0
 16 21  1  0
 16 17  2  0
 17 18  1  0
 17 38  1  0
 18 19  2  0
 18 39  1  0
 19 20  1  0
 19 40  1  0
 20 21  2  0
 20 41  1  0
 22 23  2  0
 24 25  1  0
 24 30  2  0
 25 29  1  0
 25 26  2  0
 26 27  1  0
 26 42  1  0
 27 28  2  0
 27 43  1  0
 28 29  1  0
 28 44  1  0
M  CHG  2   3  -1  14   1
M  END
>  <i_m_ct_stereo_status>  (4) 
1

>  <s_m_source_file>  (4) 
/var/tmp/pbs.5076255.sched01/tmpikn618da/06v91y69d.sdf

>  <i_m_source_file_index>  (4) 
3

>  <i_lp_mmshare_version>  (4) 
48012

>  <i_f3d_flags>  (4) 
0

>  <s_epik_input>  (4) 
Tz1DKFtPSF0pW0NIMl1bQ0gyXW4xW2NIXWMoYyhuMSktYzJbY0hdW2NIXVtjSF1zMikvW0NIXT1DMy9DKD1PKVtOSF0vQyhDMz1PKT1bQ0hdXGM0W2NIXVtjSF1bY0hdW2NIXW40

>  <s_epik_cmdline>  (4) 
J2VwaWtfcHl0aG9uJywgJy1waHQnLCAnMi4wJywgJy1waCcsICc3LjAnLCAnLXRuJywgJzgnLCAnLW1hJywgJzIwMCcsICctaW1hZScsICc8aW5maWxlLm1hZT4nLCAnLW9tYWUnLCAnPG91dGZpbGUubWFlPic=

>  <r_epik_Ionization_Penalty>  (4) 
0.0518888

>  <r_epik_Ionization_Penalty_Charging>  (4) 
0.000995344

>  <r_epik_Ionization_Penalty_Neutral>  (4) 
0.0508935

>  <r_epik_State_Penalty>  (4) 
0.030593

>  <r_epik_Charging_Adjusted_Penalty>  (4) 
0.0315883

>  <i_epik_Tot_Q>  (4) 
0

>  <i_epik_Tot_abs_Q>  (4) 
2

>  <s_lp_Force_Field>  (4) 
OPLS3e

>  <r_lp_Energy>  (4) 
22.703

>  <b_lp_Chiralities_Consistent>  (4) 
1

>  <s_lp_Variant>  (4) 
1:0-2

>  <s_i_glide_gridfile>  (4) 
pfpi4k_grid

>  <i_i_glide_lignum>  (4) 
3

>  <i_i_glide_rotatable_bonds>  (4) 
7

>  <r_i_docking_score>  (4) 
-3.77248

>  <r_i_glide_ligand_efficiency>  (4) 
-0.125749

>  <r_i_glide_ligand_efficiency_sa>  (4) 
-0.390732

>  <r_i_glide_ligand_efficiency_ln>  (4) 
-0.857148

>  <r_i_glide_gscore>  (4) 
-3.77248

>  <r_i_glide_lipo>  (4) 
-0.270762

>  <r_i_glide_hbond>  (4) 
-0.434048

>  <r_i_glide_metal>  (4) 
-0

>  <r_i_glide_rewards>  (4) 
-0.54244

>  <r_i_glide_evdw>  (4) 
-29.3682

>  <r_i_glide_ecoul>  (4) 
-10.467

>  <r_i_glide_erotb>  (4) 
0.671798

>  <r_i_glide_esite>  (4) 
-0.158557

>  <r_i_glide_emodel>  (4) 
-50.2121

>  <r_i_glide_energy>  (4) 
-39.8353

>  <r_i_glide_einternal>  (4) 
5.55197

>  <r_i_glide_intrahb_reward>  (4) 
-0

>  <i_i_glide_confnum>  (4) 
2

>  <i_i_glide_posenum>  (4) 
9

>  <r_i_glide_eff_state_penalty>  (4) 
0

>  <ligand_id>  (4) 
1

>  <original_smiles>  (4) 
O=C(O)CCn1cc(C=C2C(=O)NC(=Cc3ccccn3)C2=O)c(-c2cccs2)n1

>  <smiles>  (4) 
[H]C(=C1C(=O)[C+](C([H])([H])c2nc([H])c([H])c([H])c2[H])N([H])C1=O)c1c(-c2sc([H])c([H])c2[H])nn(C([H])([H])C([H])([H])C(=O)[O-])c1[H]

$$$$
1:1:1
     RDKit          3D

 46 49  0  0  1  0  0  0  0  0999 V2000
   -2.3583    3.7217    6.7922 O   0  0  0  0  0  0  0  0  0  0  0  0
   -2.1415    2.5172    7.0641 C   0  0  0  0  0  0  0  0  0  0  0  0
   -2.5804    1.8935    8.0471 O   0  0  0  0  0  0  0  0  0  0  0  0
   -1.2705    1.7217    6.1001 C   0  0  0  0  0  0  0  0  0  0  0  0
   -2.0468    0.5137    5.5263 C   0  0  0  0  0  0  0  0  0  0  0  0
   -1.1405   -0.5697    5.2096 N   0  0  0  0  0  0  0  0  0  0  0  0
   -0.1713   -0.5473    4.2494 C   0  0  0  0  0  0  0  0  0  0  0  0
    0.5381   -1.7248    4.3082 C   0  0  0  0  0  0  0  0  0  0  0  0
    1.6958   -2.1546    3.5305 C   0  0  0  0  0  0  0  0  0  0  0  0
    2.4230   -1.5568    2.5544 C   0  0  0  0  0  0  0  0  0  0  0  0
    2.2519   -0.2306    1.9572 C   0  0  0  0  0  0  0  0  0  0  0  0
    1.4224    0.6446    2.1498 O   0  0  0  0  0  0  0  0  0  0  0  0
    3.2470   -0.0832    1.0864 N   0  0  0  0  0  0  0  0  0  0  0  0
    4.0673   -1.1935    1.0234 C   0  0  0  0  0  0  0  0  0  0  0  0
    5.2605   -1.2643    0.1074 C   0  0  0  0  0  0  0  0  0  0  0  0
    4.9107   -1.7929   -1.2695 C   0  0  0  0  0  0  0  0  0  0  0  0
    4.3814   -0.9585   -2.2770 C   0  0  0  0  0  0  0  0  0  0  0  0
    4.0684   -1.5311   -3.5266 C   0  0  0  0  0  0  0  0  0  0  0  0
    4.3122   -2.9064   -3.7127 C   0  0  0  0  0  0  0  0  0  0  0  0
    4.8441   -3.6459   -2.6428 C   0  0  0  0  0  0  0  0  0  0  0  0
    5.1343   -3.1081   -1.4448 N   0  0  0  0  0  0  0  0  0  0  0  0
    3.5970   -2.2013    1.9521 C   0  0  0  0  0  0  0  0  0  0  0  0
    4.0723   -3.3090    2.1980 O   0  0  0  0  0  0  0  0  0  0  0  0
   -0.1311   -2.4344    5.3721 C   0  0  0  0  0  0  0  0  0  0  0  0
    0.1533   -3.7635    5.9354 C   0  0  0  0  0  0  0  0  0  0  0  0
    0.9923   -4.7614    5.4757 C   0  0  0  0  0  0  0  0  0  0  0  0
    1.0316   -5.9017    6.3261 C   0  0  0  0  0  0  0  0  0  0  0  0
    0.2035   -5.8007    7.4110 C   0  0  0  0  0  0  0  0  0  0  0  0
   -0.6447   -4.2756    7.4150 S   0  0  0  0  0  0  0  0  0  0  0  0
   -1.1382   -1.7262    5.8943 N   0  0  0  0  0  0  0  0  0  0  0  0
   -0.8808    2.3750    5.3182 H   0  0  0  0  0  0  0  0  0  0  0  0
   -0.4158    1.3842    6.6815 H   0  0  0  0  0  0  0  0  0  0  0  0
   -2.8280    0.1454    6.1957 H   0  0  0  0  0  0  0  0  0  0  0  0
   -2.5254    0.8187    4.5917 H   0  0  0  0  0  0  0  0  0  0  0  0
   -0.1255    0.3540    3.6599 H   0  0  0  0  0  0  0  0  0  0  0  0
    2.0935   -3.1137    3.7733 H   0  0  0  0  0  0  0  0  0  0  0  0
    5.6208   -0.2447   -0.0095 H   0  0  0  0  0  0  0  0  0  0  0  0
    4.2272    0.0964   -2.1128 H   0  0  0  0  0  0  0  0  0  0  0  0
    3.6725   -0.9303   -4.3287 H   0  0  0  0  0  0  0  0  0  0  0  0
    4.1083   -3.3979   -4.6464 H   0  0  0  0  0  0  0  0  0  0  0  0
    5.0448   -4.6985   -2.7455 H   0  0  0  0  0  0  0  0  0  0  0  0
    1.5916   -4.7815    4.5764 H   0  0  0  0  0  0  0  0  0  0  0  0
    1.6620   -6.7376    6.0856 H   0  0  0  0  0  0  0  0  0  0  0  0
    0.0392   -6.5283    8.1878 H   0  0  0  0  0  0  0  0  0  0  0  0
    6.0697   -1.8420    0.5778 H   0  0  0  0  0  0  0  0  0  0  0  0
    3.3964    0.7235    0.5087 H   0  0  0  0  0  0  0  0  0  0  0  0
  1  2  2  0
  2  3  1  0
  2  4  1  0
  4  5  1  0
  4 31  1  0
  4 32  1  0
  5  6  1  0
  5 33  1  0
  5 34  1  0
  6 30  1  0
  6  7  1  0
  7  8  2  0
  7 35  1  0
  8  9  1  0
  8 24  1  0
  9 10  2  3
  9 36  1  0
 10 22  1  0
 10 11  1  0
 11 12  2  0
 11 13  1  0
 13 14  1  0
 13 46  1  0
 14 15  1  0
 14 22  1  0
 15 16  1  0
 15 37  1  0
 15 45  1  0
 16 21  1  0
 16 17  2  0
 17 18  1  0
 17 38  1  0
 18 19  2  0
 18 39  1  0
 19 20  1  0
 19 40  1  0
 20 21  2  0
 20 41  1  0
 22 23  2  0
 24 25  1  0
 24 30  2  0
 25 29  1  0
 25 26  2  0
 26 27  1  0
 26 42  1  0
 27 28  2  0
 27 43  1  0
 28 29  1  0
 28 44  1  0
M  CHG  2   3  -1  14   1
M  END
>  <i_m_ct_stereo_status>  (5) 
1

>  <s_m_source_file>  (5) 
/var/tmp/pbs.5076255.sched01/tmpikn618da/06v91y69d.sdf

>  <i_m_source_file_index>  (5) 
3

>  <i_lp_mmshare_version>  (5) 
48012

>  <i_f3d_flags>  (5) 
0

>  <s_epik_input>  (5) 
Tz1DKFtPSF0pW0NIMl1bQ0gyXW4xW2NIXWMoYyhuMSktYzJbY0hdW2NIXVtjSF1zMikvW0NIXT1DMy9DKD1PKVtOSF0vQyhDMz1PKT1bQ0hdXGM0W2NIXVtjSF1bY0hdW2NIXW40

>  <s_epik_cmdline>  (5) 
J2VwaWtfcHl0aG9uJywgJy1waHQnLCAnMi4wJywgJy1waCcsICc3LjAnLCAnLXRuJywgJzgnLCAnLW1hJywgJzIwMCcsICctaW1hZScsICc8aW5maWxlLm1hZT4nLCAnLW9tYWUnLCAnPG91dGZpbGUubWFlPic=

>  <r_epik_Ionization_Penalty>  (5) 
0.0518888

>  <r_epik_Ionization_Penalty_Charging>  (5) 
0.000995344

>  <r_epik_Ionization_Penalty_Neutral>  (5) 
0.0508935

>  <r_epik_State_Penalty>  (5) 
0.030593

>  <r_epik_Charging_Adjusted_Penalty>  (5) 
0.0315883

>  <i_epik_Tot_Q>  (5) 
0

>  <i_epik_Tot_abs_Q>  (5) 
2

>  <s_lp_Force_Field>  (5) 
OPLS3e

>  <r_lp_Energy>  (5) 
22.703

>  <b_lp_Chiralities_Consistent>  (5) 
1

>  <s_lp_Variant>  (5) 
1:0-2

>  <s_i_glide_gridfile>  (5) 
pfpi4k_grid

>  <i_i_glide_lignum>  (5) 
3

>  <i_i_glide_rotatable_bonds>  (5) 
7

>  <r_i_docking_score>  (5) 
-3.17025

>  <r_i_glide_ligand_efficiency>  (5) 
-0.105675

>  <r_i_glide_ligand_efficiency_sa>  (5) 
-0.328356

>  <r_i_glide_ligand_efficiency_ln>  (5) 
-0.720315

>  <r_i_glide_gscore>  (5) 
-3.17025

>  <r_i_glide_lipo>  (5) 
-0.438936

>  <r_i_glide_hbond>  (5) 
0

>  <r_i_glide_metal>  (5) 
-0

>  <r_i_glide_rewards>  (5) 
-0.623935

>  <r_i_glide_evdw>  (5) 
-34.0359

>  <r_i_glide_ecoul>  (5) 
-6.43706

>  <r_i_glide_erotb>  (5) 
0.671798

>  <r_i_glide_esite>  (5) 
-0.111822

>  <r_i_glide_emodel>  (5) 
-49.5289

>  <r_i_glide_energy>  (5) 
-40.4729

>  <r_i_glide_einternal>  (5) 
3.60213

>  <r_i_glide_intrahb_reward>  (5) 
-0

>  <i_i_glide_confnum>  (5) 
3

>  <i_i_glide_posenum>  (5) 
20

>  <r_i_glide_eff_state_penalty>  (5) 
0

>  <ligand_id>  (5) 
1

>  <original_smiles>  (5) 
O=C(O)CCn1cc(C=C2C(=O)NC(=Cc3ccccn3)C2=O)c(-c2cccs2)n1

>  <smiles>  (5) 
[H]C(=C1C(=O)[C+](C([H])([H])c2nc([H])c([H])c([H])c2[H])N([H])C1=O)c1c(-c2sc([H])c([H])c2[H])nn(C([H])([H])C([H])([H])C(=O)[O-])c1[H]

$$$$
1:1:2
     RDKit          3D

 46 49  0  0  1  0  0  0  0  0999 V2000
   -0.5747   -2.6483    9.2476 O   0  0  0  0  0  0  0  0  0  0  0  0
   -0.3173   -3.8797    9.2048 C   0  0  0  0  0  0  0  0  0  0  0  0
   -0.5830   -4.7087   10.0936 O   0  0  0  0  0  0  0  0  0  0  0  0
    0.3657   -4.4198    7.9553 C   0  0  0  0  0  0  0  0  0  0  0  0
   -0.0409   -3.6519    6.6891 C   0  0  0  0  0  0  0  0  0  0  0  0
    0.3842   -4.3654    5.5022 N   0  0  0  0  0  0  0  0  0  0  0  0
    1.3459   -3.9909    4.5926 C   0  0  0  0  0  0  0  0  0  0  0  0
    1.4705   -4.9780    3.6557 C   0  0  0  0  0  0  0  0  0  0  0  0
    2.2995   -5.0366    2.4659 C   0  0  0  0  0  0  0  0  0  0  0  0
    2.9027   -4.0634    1.7449 C   0  0  0  0  0  0  0  0  0  0  0  0
    2.7954   -2.6149    1.8972 C   0  0  0  0  0  0  0  0  0  0  0  0
    2.1155   -1.9453    2.6717 O   0  0  0  0  0  0  0  0  0  0  0  0
    3.6125   -2.0857    0.9819 N   0  0  0  0  0  0  0  0  0  0  0  0
    4.2216   -3.0445    0.1873 C   0  0  0  0  0  0  0  0  0  0  0  0
    5.1578   -2.7088   -0.9480 C   0  0  0  0  0  0  0  0  0  0  0  0
    4.4388   -2.0746   -2.1130 C   0  0  0  0  0  0  0  0  0  0  0  0
    4.5839   -0.7042   -2.3973 C   0  0  0  0  0  0  0  0  0  0  0  0
    3.9005   -0.1743   -3.5094 C   0  0  0  0  0  0  0  0  0  0  0  0
    3.1195   -1.0332   -4.2948 C   0  0  0  0  0  0  0  0  0  0  0  0
    3.0243   -2.3883   -3.9173 C   0  0  0  0  0  0  0  0  0  0  0  0
    3.6729   -2.8975   -2.8515 N   0  0  0  0  0  0  0  0  0  0  0  0
    3.7964   -4.3635    0.6223 C   0  0  0  0  0  0  0  0  0  0  0  0
    4.1339   -5.4685    0.1899 O   0  0  0  0  0  0  0  0  0  0  0  0
    0.5254   -5.9646    4.1182 C   0  0  0  0  0  0  0  0  0  0  0  0
    0.2487   -7.2907    3.5621 C   0  0  0  0  0  0  0  0  0  0  0  0
    1.0901   -8.1338    2.8800 C   0  0  0  0  0  0  0  0  0  0  0  0
    0.4599   -9.3457    2.4835 C   0  0  0  0  0  0  0  0  0  0  0  0
   -0.8467   -9.4212    2.8806 C   0  0  0  0  0  0  0  0  0  0  0  0
   -1.3430   -8.0021    3.7636 S   0  0  0  0  0  0  0  0  0  0  0  0
   -0.1560   -5.5625    5.1906 N   0  0  0  0  0  0  0  0  0  0  0  0
    1.4496   -4.3923    8.0952 H   0  0  0  0  0  0  0  0  0  0  0  0
    0.0804   -5.4706    7.8575 H   0  0  0  0  0  0  0  0  0  0  0  0
   -1.1170   -3.4959    6.6315 H   0  0  0  0  0  0  0  0  0  0  0  0
    0.4270   -2.6676    6.6948 H   0  0  0  0  0  0  0  0  0  0  0  0
    1.8414   -3.0375    4.7267 H   0  0  0  0  0  0  0  0  0  0  0  0
    2.5269   -6.0240    2.1052 H   0  0  0  0  0  0  0  0  0  0  0  0
    5.8824   -2.0048   -0.5476 H   0  0  0  0  0  0  0  0  0  0  0  0
    5.1959   -0.0633   -1.7889 H   0  0  0  0  0  0  0  0  0  0  0  0
    3.9948    0.8715   -3.7753 H   0  0  0  0  0  0  0  0  0  0  0  0
    2.5967   -0.6528   -5.1556 H   0  0  0  0  0  0  0  0  0  0  0  0
    2.4202   -3.0863   -4.4781 H   0  0  0  0  0  0  0  0  0  0  0  0
    2.1345   -7.9707    2.6578 H   0  0  0  0  0  0  0  0  0  0  0  0
    1.0006  -10.1121    1.9481 H   0  0  0  0  0  0  0  0  0  0  0  0
   -1.5326  -10.2480    2.7612 H   0  0  0  0  0  0  0  0  0  0  0  0
    5.7087   -3.5973   -1.2649 H   0  0  0  0  0  0  0  0  0  0  0  0
    3.7442   -1.0995    0.8282 H   0  0  0  0  0  0  0  0  0  0  0  0
  1  2  2  0
  2  3  1  0
  2  4  1  0
  4  5  1  0
  4 31  1  0
  4 32  1  0
  5  6  1  0
  5 33  1  0
  5 34  1  0
  6 30  1  0
  6  7  1  0
  7  8  2  0
  7 35  1  0
  8  9  1  0
  8 24  1  0
  9 10  2  3
  9 36  1  0
 10 22  1  0
 10 11  1  0
 11 12  2  0
 11 13  1  0
 13 14  1  0
 13 46  1  0
 14 15  1  0
 14 22  1  0
 15 16  1  0
 15 37  1  0
 15 45  1  0
 16 21  1  0
 16 17  2  0
 17 18  1  0
 17 38  1  0
 18 19  2  0
 18 39  1  0
 19 20  1  0
 19 40  1  0
 20 21  2  0
 20 41  1  0
 22 23  2  0
 24 25  1  0
 24 30  2  0
 25 29  1  0
 25 26  2  0
 26 27  1  0
 26 42  1  0
 27 28  2  0
 27 43  1  0
 28 29  1  0
 28 44  1  0
M  CHG  2   3  -1  14   1
M  END
>  <i_m_ct_stereo_status>  (6) 
1

>  <s_m_source_file>  (6) 
/var/tmp/pbs.5076255.sched01/tmpikn618da/06v91y69d.sdf

>  <i_m_source_file_index>  (6) 
3

>  <i_lp_mmshare_version>  (6) 
48012

>  <i_f3d_flags>  (6) 
0

>  <s_epik_input>  (6) 
Tz1DKFtPSF0pW0NIMl1bQ0gyXW4xW2NIXWMoYyhuMSktYzJbY0hdW2NIXVtjSF1zMikvW0NIXT1DMy9DKD1PKVtOSF0vQyhDMz1PKT1bQ0hdXGM0W2NIXVtjSF1bY0hdW2NIXW40

>  <s_epik_cmdline>  (6) 
J2VwaWtfcHl0aG9uJywgJy1waHQnLCAnMi4wJywgJy1waCcsICc3LjAnLCAnLXRuJywgJzgnLCAnLW1hJywgJzIwMCcsICctaW1hZScsICc8aW5maWxlLm1hZT4nLCAnLW9tYWUnLCAnPG91dGZpbGUubWFlPic=

>  <r_epik_Ionization_Penalty>  (6) 
0.0518888

>  <r_epik_Ionization_Penalty_Charging>  (6) 
0.000995344

>  <r_epik_Ionization_Penalty_Neutral>  (6) 
0.0508935

>  <r_epik_State_Penalty>  (6) 
0.030593

>  <r_epik_Charging_Adjusted_Penalty>  (6) 
0.0315883

>  <i_epik_Tot_Q>  (6) 
0

>  <i_epik_Tot_abs_Q>  (6) 
2

>  <s_lp_Force_Field>  (6) 
OPLS3e

>  <r_lp_Energy>  (6) 
22.703

>  <b_lp_Chiralities_Consistent>  (6) 
1

>  <s_lp_Variant>  (6) 
1:0-2

>  <s_i_glide_gridfile>  (6) 
pfpi4k_grid

>  <i_i_glide_lignum>  (6) 
3

>  <i_i_glide_rotatable_bonds>  (6) 
7

>  <r_i_docking_score>  (6) 
-3.14244

>  <r_i_glide_ligand_efficiency>  (6) 
-0.104748

>  <r_i_glide_ligand_efficiency_sa>  (6) 
-0.325477

>  <r_i_glide_ligand_efficiency_ln>  (6) 
-0.713997

>  <r_i_glide_gscore>  (6) 
-3.14244

>  <r_i_glide_lipo>  (6) 
-0.370497

>  <r_i_glide_hbond>  (6) 
-0.2

>  <r_i_glide_metal>  (6) 
-0

>  <r_i_glide_rewards>  (6) 
-0.552817

>  <r_i_glide_evdw>  (6) 
-33.8479

>  <r_i_glide_ecoul>  (6) 
-6.17769

>  <r_i_glide_erotb>  (6) 
0.671798

>  <r_i_glide_esite>  (6) 
-0.0718793

>  <r_i_glide_emodel>  (6) 
-49.7269

>  <r_i_glide_energy>  (6) 
-40.0255

>  <r_i_glide_einternal>  (6) 
2.91964

>  <r_i_glide_intrahb_reward>  (6) 
-0

>  <i_i_glide_confnum>  (6) 
3

>  <i_i_glide_posenum>  (6) 
21

>  <r_i_glide_eff_state_penalty>  (6) 
0

>  <ligand_id>  (6) 
1

>  <original_smiles>  (6) 
O=C(O)CCn1cc(C=C2C(=O)NC(=Cc3ccccn3)C2=O)c(-c2cccs2)n1

>  <smiles>  (6) 
[H]C(=C1C(=O)[C+](C([H])([H])c2nc([H])c([H])c([H])c2[H])N([H])C1=O)c1c(-c2sc([H])c([H])c2[H])nn(C([H])([H])C([H])([H])C(=O)[O-])c1[H]

$$$$
1:2:0
     RDKit          3D

 45 48  0  0  1  0  0  0  0  0999 V2000
    4.9555   -1.8706   -2.9452 O   0  0  0  0  0  0  0  0  0  0  0  0
    5.1468   -1.8100   -1.7099 C   0  0  0  0  0  0  0  0  0  0  0  0
    6.2119   -1.4726   -1.1518 O   0  0  0  0  0  0  0  0  0  0  0  0
    3.9655   -2.2042   -0.8339 C   0  0  0  0  0  0  0  0  0  0  0  0
    4.1247   -1.7157    0.6212 C   0  0  0  0  0  0  0  0  0  0  0  0
    3.1898   -2.3660    1.5200 N   0  0  0  0  0  0  0  0  0  0  0  0
    2.3782   -1.7652    2.4400 C   0  0  0  0  0  0  0  0  0  0  0  0
    1.7127   -2.7605    3.1162 C   0  0  0  0  0  0  0  0  0  0  0  0
    0.7134   -2.6485    4.1577 C   0  0  0  0  0  0  0  0  0  0  0  0
   -0.0654   -1.6141    4.5560 C   0  0  0  0  0  0  0  0  0  0  0  0
   -0.9960   -1.7413    5.6668 C   0  0  0  0  0  0  0  0  0  0  0  0
   -1.1518   -2.7665    6.3300 O   0  0  0  0  0  0  0  0  0  0  0  0
   -1.6540   -0.5821    5.8470 N   0  0  0  0  0  0  0  0  0  0  0  0
   -1.1805    0.3070    4.9369 C   0  0  0  0  0  0  0  0  0  0  0  0
   -1.6012    1.7668    4.8424 C   0  0  0  0  0  0  0  0  0  0  0  0
   -1.6760    2.5146    6.1601 C   0  0  0  0  0  0  0  0  0  0  0  0
   -0.8734    3.6519    6.3878 C   0  0  0  0  0  0  0  0  0  0  0  0
   -0.9751    4.2948    7.6365 C   0  0  0  0  0  0  0  0  0  0  0  0
   -1.8527    3.7648    8.6026 C   0  0  0  0  0  0  0  0  0  0  0  0
   -2.6042    2.6248    8.2758 C   0  0  0  0  0  0  0  0  0  0  0  0
   -2.5432    2.0274    7.0743 N   0  0  0  0  0  0  0  0  0  0  0  0
   -0.1986   -0.2671    4.0348 C   0  0  0  0  0  0  0  0  0  0  0  0
    0.3332    0.2831    3.0682 O   0  0  0  0  0  0  0  0  0  0  0  0
    2.2108   -3.9671    2.5296 C   0  0  0  0  0  0  0  0  0  0  0  0
    1.8672   -5.3627    2.8392 C   0  0  0  0  0  0  0  0  0  0  0  0
    1.1366   -5.8840    3.8927 C   0  0  0  0  0  0  0  0  0  0  0  0
    1.0169   -7.3018    3.8476 C   0  0  0  0  0  0  0  0  0  0  0  0
    1.6519   -7.8742    2.7767 C   0  0  0  0  0  0  0  0  0  0  0  0
    2.4120   -6.6557    1.7849 S   0  0  0  0  0  0  0  0  0  0  0  0
    3.1074   -3.7092    1.5840 N   0  0  0  0  0  0  0  0  0  0  0  0
    3.0354   -1.8207   -1.2588 H   0  0  0  0  0  0  0  0  0  0  0  0
    3.9240   -3.2915   -0.8684 H   0  0  0  0  0  0  0  0  0  0  0  0
    5.1230   -1.8862    1.0284 H   0  0  0  0  0  0  0  0  0  0  0  0
    3.9597   -0.6311    0.6525 H   0  0  0  0  0  0  0  0  0  0  0  0
    2.3875   -0.6842    2.5072 H   0  0  0  0  0  0  0  0  0  0  0  0
    0.5763   -3.5338    4.7478 H   0  0  0  0  0  0  0  0  0  0  0  0
   -0.8806    2.2749    4.2109 H   0  0  0  0  0  0  0  0  0  0  0  0
   -0.2018    4.0200    5.6272 H   0  0  0  0  0  0  0  0  0  0  0  0
   -0.3905    5.1771    7.8483 H   0  0  0  0  0  0  0  0  0  0  0  0
   -1.9589    4.2119    9.5767 H   0  0  0  0  0  0  0  0  0  0  0  0
   -3.2709    2.1657    8.9881 H   0  0  0  0  0  0  0  0  0  0  0  0
    0.6883   -5.3497    4.7133 H   0  0  0  0  0  0  0  0  0  0  0  0
    0.4835   -7.8326    4.6162 H   0  0  0  0  0  0  0  0  0  0  0  0
    1.7297   -8.9261    2.5253 H   0  0  0  0  0  0  0  0  0  0  0  0
   -2.5557    1.8017    4.3189 H   0  0  0  0  0  0  0  0  0  0  0  0
  1  2  2  0
  2  3  1  0
  2  4  1  0
  4  5  1  0
  4 31  1  0
  4 32  1  0
  5  6  1  0
  5 33  1  0
  5 34  1  0
  6 30  1  0
  6  7  1  0
  7  8  2  0
  7 35  1  0
  8  9  1  0
  8 24  1  0
  9 10  2  3
  9 36  1  0
 10 22  1  0
 10 11  1  0
 11 12  2  0
 11 13  1  0
 13 14  1  0
 14 15  1  0
 14 22  1  0
 15 16  1  0
 15 37  1  0
 15 45  1  0
 16 21  1  0
 16 17  2  0
 17 18  1  0
 17 38  1  0
 18 19  2  0
 18 39  1  0
 19 20  1  0
 19 40  1  0
 20 21  2  0
 20 41  1  0
 22 23  2  0
 24 25  1  0
 24 30  2  0
 25 29  1  0
 25 26  2  0
 26 27  1  0
 26 42  1  0
 27 28  2  0
 27 43  1  0
 28 29  1  0
 28 44  1  0
M  CHG  3   3  -1  13  -1  14   1
M  END
>  <i_m_ct_stereo_status>  (7) 
1

>  <s_m_source_file>  (7) 
/var/tmp/pbs.5076255.sched01/tmpikn618da/06v91y69d.sdf

>  <i_m_source_file_index>  (7) 
4

>  <i_lp_mmshare_version>  (7) 
48012

>  <i_f3d_flags>  (7) 
0

>  <s_epik_input>  (7) 
Tz1DKFtPSF0pW0NIMl1bQ0gyXW4xW2NIXWMoYyhuMSktYzJbY0hdW2NIXVtjSF1zMikvW0NIXT1DMy9DKD1PKVtOSF0vQyhDMz1PKT1bQ0hdXGM0W2NIXVtjSF1bY0hdW2NIXW40

>  <s_epik_cmdline>  (7) 
J2VwaWtfcHl0aG9uJywgJy1waHQnLCAnMi4wJywgJy1waCcsICc3LjAnLCAnLXRuJywgJzgnLCAnLW1hJywgJzIwMCcsICctaW1hZScsICc8aW5maWxlLm1hZT4nLCAnLW9tYWUnLCAnPG91dGZpbGUubWFlPic=

>  <r_epik_Ionization_Penalty>  (7) 
1.48917

>  <r_epik_Ionization_Penalty_Charging>  (7) 
1.48357

>  <r_epik_Ionization_Penalty_Neutral>  (7) 
0.00560218

>  <r_epik_State_Penalty>  (7) 
1.79083

>  <r_epik_Charging_Adjusted_Penalty>  (7) 
3.2744

>  <i_epik_Tot_Q>  (7) 
-1

>  <i_epik_Tot_abs_Q>  (7) 
3

>  <s_lp_Force_Field>  (7) 
OPLS3e

>  <r_lp_Energy>  (7) 
22.1839

>  <b_lp_Chiralities_Consistent>  (7) 
1

>  <s_lp_Variant>  (7) 
1:0-3

>  <s_i_glide_gridfile>  (7) 
pfpi4k_grid

>  <i_i_glide_lignum>  (7) 
4

>  <i_i_glide_rotatable_bonds>  (7) 
7

>  <r_i_docking_score>  (7) 
-3.84912

>  <r_i_glide_ligand_efficiency>  (7) 
-0.128304

>  <r_i_glide_ligand_efficiency_sa>  (7) 
-0.39867

>  <r_i_glide_ligand_efficiency_ln>  (7) 
-0.874561

>  <r_i_glide_gscore>  (7) 
-3.84912

>  <r_i_glide_lipo>  (7) 
-0.1502

>  <r_i_glide_hbond>  (7) 
-0.222061

>  <r_i_glide_metal>  (7) 
-0

>  <r_i_glide_rewards>  (7) 
-0.549312

>  <r_i_glide_evdw>  (7) 
-28.6946

>  <r_i_glide_ecoul>  (7) 
-13.731

>  <r_i_glide_erotb>  (7) 
0.674719

>  <r_i_glide_esite>  (7) 
-0.107878

>  <r_i_glide_emodel>  (7) 
-53.6731

>  <r_i_glide_energy>  (7) 
-42.4256

>  <r_i_glide_einternal>  (7) 
2.39584

>  <r_i_glide_intrahb_reward>  (7) 
-0

>  <i_i_glide_confnum>  (7) 
5

>  <i_i_glide_posenum>  (7) 
1

>  <r_i_glide_eff_state_penalty>  (7) 
0

>  <ligand_id>  (7) 
1

>  <original_smiles>  (7) 
O=C(O)CCn1cc(C=C2C(=O)NC(=Cc3ccccn3)C2=O)c(-c2cccs2)n1

>  <smiles>  (7) 
[H]C(=C1C(=O)[N-][C+](C([H])([H])c2nc([H])c([H])c([H])c2[H])C1=O)c1c(-c2sc([H])c([H])c2[H])nn(C([H])([H])C([H])([H])C(=O)[O-])c1[H]

$$$$
1:2:1
     RDKit          3D

 45 48  0  0  1  0  0  0  0  0999 V2000
    6.1922   -1.4613   -1.1426 O   0  0  0  0  0  0  0  0  0  0  0  0
    5.1052   -1.6376   -1.7373 C   0  0  0  0  0  0  0  0  0  0  0  0
    4.9848   -1.8618   -2.9632 O   0  0  0  0  0  0  0  0  0  0  0  0
    3.7967   -1.6175   -0.9474 C   0  0  0  0  0  0  0  0  0  0  0  0
    3.9281   -1.0508    0.4891 C   0  0  0  0  0  0  0  0  0  0  0  0
    3.0547   -1.7195    1.4353 N   0  0  0  0  0  0  0  0  0  0  0  0
    2.2196   -1.1475    2.3560 C   0  0  0  0  0  0  0  0  0  0  0  0
    1.6524   -2.1534    3.0917 C   0  0  0  0  0  0  0  0  0  0  0  0
    0.6839   -2.0676    4.1600 C   0  0  0  0  0  0  0  0  0  0  0  0
   -0.1954   -1.1020    4.5095 C   0  0  0  0  0  0  0  0  0  0  0  0
   -1.0582   -1.2312    5.6714 C   0  0  0  0  0  0  0  0  0  0  0  0
   -1.0727   -2.2184    6.4010 O   0  0  0  0  0  0  0  0  0  0  0  0
   -1.8240   -0.1197    5.8030 N   0  0  0  0  0  0  0  0  0  0  0  0
   -1.4844    0.7230    4.8012 C   0  0  0  0  0  0  0  0  0  0  0  0
   -2.0874    2.0977    4.5836 C   0  0  0  0  0  0  0  0  0  0  0  0
   -1.0841    3.2170    4.7720 C   0  0  0  0  0  0  0  0  0  0  0  0
   -0.6460    3.9968    3.6845 C   0  0  0  0  0  0  0  0  0  0  0  0
    0.2902    5.0202    3.9227 C   0  0  0  0  0  0  0  0  0  0  0  0
    0.7440    5.2233    5.2396 C   0  0  0  0  0  0  0  0  0  0  0  0
    0.2517    4.3850    6.2567 C   0  0  0  0  0  0  0  0  0  0  0  0
   -0.6476    3.4059    6.0347 N   0  0  0  0  0  0  0  0  0  0  0  0
   -0.5011    0.1710    3.8863 C   0  0  0  0  0  0  0  0  0  0  0  0
   -0.0800    0.6800    2.8502 O   0  0  0  0  0  0  0  0  0  0  0  0
    2.2196   -3.3458    2.5397 C   0  0  0  0  0  0  0  0  0  0  0  0
    1.9817   -4.7532    2.9091 C   0  0  0  0  0  0  0  0  0  0  0  0
    1.3433   -5.2829    4.0076 C   0  0  0  0  0  0  0  0  0  0  0  0
    1.3097   -6.7069    4.0143 C   0  0  0  0  0  0  0  0  0  0  0  0
    1.9222   -7.2711    2.9329 C   0  0  0  0  0  0  0  0  0  0  0  0
    2.5573   -6.0449    1.8623 S   0  0  0  0  0  0  0  0  0  0  0  0
    3.0752   -3.0620    1.5677 N   0  0  0  0  0  0  0  0  0  0  0  0
    3.0325   -1.0571   -1.4886 H   0  0  0  0  0  0  0  0  0  0  0  0
    3.4403   -2.6460   -0.9353 H   0  0  0  0  0  0  0  0  0  0  0  0
    4.9345   -1.1085    0.9080 H   0  0  0  0  0  0  0  0  0  0  0  0
    3.6754    0.0165    0.4705 H   0  0  0  0  0  0  0  0  0  0  0  0
    2.1450   -0.0666    2.3966 H   0  0  0  0  0  0  0  0  0  0  0  0
    0.6913   -2.8914    4.8455 H   0  0  0  0  0  0  0  0  0  0  0  0
   -2.4733    2.1194    3.5675 H   0  0  0  0  0  0  0  0  0  0  0  0
   -0.9902    3.8051    2.6786 H   0  0  0  0  0  0  0  0  0  0  0  0
    0.6541    5.6339    3.1091 H   0  0  0  0  0  0  0  0  0  0  0  0
    1.4613    5.9925    5.4660 H   0  0  0  0  0  0  0  0  0  0  0  0
    0.5792    4.5005    7.2778 H   0  0  0  0  0  0  0  0  0  0  0  0
    0.9002   -4.7600    4.8382 H   0  0  0  0  0  0  0  0  0  0  0  0
    0.8477   -7.2379    4.8321 H   0  0  0  0  0  0  0  0  0  0  0  0
    2.0519   -8.3274    2.7129 H   0  0  0  0  0  0  0  0  0  0  0  0
   -2.9259    2.2596    5.2636 H   0  0  0  0  0  0  0  0  0  0  0  0
  1  2  2  0
  2  3  1  0
  2  4  1  0
  4  5  1  0
  4 31  1  0
  4 32  1  0
  5  6  1  0
  5 33  1  0
  5 34  1  0
  6 30  1  0
  6  7  1  0
  7  8  2  0
  7 35  1  0
  8  9  1  0
  8 24  1  0
  9 10  2  3
  9 36  1  0
 10 22  1  0
 10 11  1  0
 11 12  2  0
 11 13  1  0
 13 14  1  0
 14 15  1  0
 14 22  1  0
 15 16  1  0
 15 37  1  0
 15 45  1  0
 16 21  1  0
 16 17  2  0
 17 18  1  0
 17 38  1  0
 18 19  2  0
 18 39  1  0
 19 20  1  0
 19 40  1  0
 20 21  2  0
 20 41  1  0
 22 23  2  0
 24 25  1  0
 24 30  2  0
 25 29  1  0
 25 26  2  0
 26 27  1  0
 26 42  1  0
 27 28  2  0
 27 43  1  0
 28 29  1  0
 28 44  1  0
M  CHG  3   3  -1  13  -1  14   1
M  END
>  <i_m_ct_stereo_status>  (8) 
1

>  <s_m_source_file>  (8) 
/var/tmp/pbs.5076255.sched01/tmpikn618da/06v91y69d.sdf

>  <i_m_source_file_index>  (8) 
4

>  <i_lp_mmshare_version>  (8) 
48012

>  <i_f3d_flags>  (8) 
0

>  <s_epik_input>  (8) 
Tz1DKFtPSF0pW0NIMl1bQ0gyXW4xW2NIXWMoYyhuMSktYzJbY0hdW2NIXVtjSF1zMikvW0NIXT1DMy9DKD1PKVtOSF0vQyhDMz1PKT1bQ0hdXGM0W2NIXVtjSF1bY0hdW2NIXW40

>  <s_epik_cmdline>  (8) 
J2VwaWtfcHl0aG9uJywgJy1waHQnLCAnMi4wJywgJy1waCcsICc3LjAnLCAnLXRuJywgJzgnLCAnLW1hJywgJzIwMCcsICctaW1hZScsICc8aW5maWxlLm1hZT4nLCAnLW9tYWUnLCAnPG91dGZpbGUubWFlPic=

>  <r_epik_Ionization_Penalty>  (8) 
1.48917

>  <r_epik_Ionization_Penalty_Charging>  (8) 
1.48357

>  <r_epik_Ionization_Penalty_Neutral>  (8) 
0.00560218

>  <r_epik_State_Penalty>  (8) 
1.79083

>  <r_epik_Charging_Adjusted_Penalty>  (8) 
3.2744

>  <i_epik_Tot_Q>  (8) 
-1

>  <i_epik_Tot_abs_Q>  (8) 
3

>  <s_lp_Force_Field>  (8) 
OPLS3e

>  <r_lp_Energy>  (8) 
22.1839

>  <b_lp_Chiralities_Consistent>  (8) 
1

>  <s_lp_Variant>  (8) 
1:0-3

>  <s_i_glide_gridfile>  (8) 
pfpi4k_grid

>  <i_i_glide_lignum>  (8) 
4

>  <i_i_glide_rotatable_bonds>  (8) 
7

>  <r_i_docking_score>  (8) 
-3.57539

>  <r_i_glide_ligand_efficiency>  (8) 
-0.11918

>  <r_i_glide_ligand_efficiency_sa>  (8) 
-0.370319

>  <r_i_glide_ligand_efficiency_ln>  (8) 
-0.812367

>  <r_i_glide_gscore>  (8) 
-3.57539

>  <r_i_glide_lipo>  (8) 
-0.0260906

>  <r_i_glide_hbond>  (8) 
-0.231598

>  <r_i_glide_metal>  (8) 
-0

>  <r_i_glide_rewards>  (8) 
-0.549312

>  <r_i_glide_evdw>  (8) 
-27.6831

>  <r_i_glide_ecoul>  (8) 
-12.7954

>  <r_i_glide_erotb>  (8) 
0.674719

>  <r_i_glide_esite>  (8) 
-0.139646

>  <r_i_glide_emodel>  (8) 
-50.6482

>  <r_i_glide_energy>  (8) 
-40.4785

>  <r_i_glide_einternal>  (8) 
2.90307

>  <r_i_glide_intrahb_reward>  (8) 
-0

>  <i_i_glide_confnum>  (8) 
5

>  <i_i_glide_posenum>  (8) 
35

>  <r_i_glide_eff_state_penalty>  (8) 
0

>  <ligand_id>  (8) 
1

>  <original_smiles>  (8) 
O=C(O)CCn1cc(C=C2C(=O)NC(=Cc3ccccn3)C2=O)c(-c2cccs2)n1

>  <smiles>  (8) 
[H]C(=C1C(=O)[N-][C+](C([H])([H])c2nc([H])c([H])c([H])c2[H])C1=O)c1c(-c2sc([H])c([H])c2[H])nn(C([H])([H])C([H])([H])C(=O)[O-])c1[H]

$$$$
1:2:2
     RDKit          3D

 45 48  0  0  1  0  0  0  0  0999 V2000
    6.1288   -1.4636   -1.1336 O   0  0  0  0  0  0  0  0  0  0  0  0
    6.4450   -1.5365    0.0774 C   0  0  0  0  0  0  0  0  0  0  0  0
    7.5791   -1.8584    0.4757 O   0  0  0  0  0  0  0  0  0  0  0  0
    5.4060   -1.1725    1.1399 C   0  0  0  0  0  0  0  0  0  0  0  0
    4.0291   -0.8496    0.5277 C   0  0  0  0  0  0  0  0  0  0  0  0
    3.0950   -0.3547    1.5228 N   0  0  0  0  0  0  0  0  0  0  0  0
    2.2433   -1.0858    2.3120 C   0  0  0  0  0  0  0  0  0  0  0  0
    1.5311   -0.2249    3.1014 C   0  0  0  0  0  0  0  0  0  0  0  0
    0.5383   -0.4963    4.1260 C   0  0  0  0  0  0  0  0  0  0  0  0
    0.2173   -1.6208    4.8003 C   0  0  0  0  0  0  0  0  0  0  0  0
   -0.8832   -1.6921    5.7559 C   0  0  0  0  0  0  0  0  0  0  0  0
   -1.6094   -0.7436    6.0404 O   0  0  0  0  0  0  0  0  0  0  0  0
   -0.9692   -2.9557    6.2655 N   0  0  0  0  0  0  0  0  0  0  0  0
   -0.0230   -3.6961    5.6613 C   0  0  0  0  0  0  0  0  0  0  0  0
    0.2164   -5.1677    5.9334 C   0  0  0  0  0  0  0  0  0  0  0  0
    0.0063   -6.0444    4.7053 C   0  0  0  0  0  0  0  0  0  0  0  0
    0.9906   -6.1793    3.6942 C   0  0  0  0  0  0  0  0  0  0  0  0
    0.7118   -6.9791    2.5708 C   0  0  0  0  0  0  0  0  0  0  0  0
   -0.5298   -7.6320    2.5049 C   0  0  0  0  0  0  0  0  0  0  0  0
   -1.4339   -7.4607    3.5709 C   0  0  0  0  0  0  0  0  0  0  0  0
   -1.1867   -6.6639    4.6289 N   0  0  0  0  0  0  0  0  0  0  0  0
    0.8404   -2.9280    4.7715 C   0  0  0  0  0  0  0  0  0  0  0  0
    1.8582   -3.3004    4.2054 O   0  0  0  0  0  0  0  0  0  0  0  0
    2.0143    1.0697    2.6973 C   0  0  0  0  0  0  0  0  0  0  0  0
    1.5862    2.4042    3.1705 C   0  0  0  0  0  0  0  0  0  0  0  0
    0.4384    2.7929    3.8226 C   0  0  0  0  0  0  0  0  0  0  0  0
    0.3968    4.1796    4.1428 C   0  0  0  0  0  0  0  0  0  0  0  0
    1.4827    4.8689    3.6925 C   0  0  0  0  0  0  0  0  0  0  0  0
    2.6101    3.8058    2.8835 S   0  0  0  0  0  0  0  0  0  0  0  0
    2.9700    0.9581    1.7771 N   0  0  0  0  0  0  0  0  0  0  0  0
    5.3215   -1.9900    1.8585 H   0  0  0  0  0  0  0  0  0  0  0  0
    5.7707   -0.3019    1.6833 H   0  0  0  0  0  0  0  0  0  0  0  0
    4.1191   -0.1084   -0.2681 H   0  0  0  0  0  0  0  0  0  0  0  0
    3.5938   -1.7470    0.0788 H   0  0  0  0  0  0  0  0  0  0  0  0
    2.2601   -2.1596    2.1923 H   0  0  0  0  0  0  0  0  0  0  0  0
   -0.1041    0.3085    4.3960 H   0  0  0  0  0  0  0  0  0  0  0  0
    1.2460   -5.2757    6.2635 H   0  0  0  0  0  0  0  0  0  0  0  0
    1.9500   -5.6898    3.7618 H   0  0  0  0  0  0  0  0  0  0  0  0
    1.4425   -7.0893    1.7792 H   0  0  0  0  0  0  0  0  0  0  0  0
   -0.7733   -8.2733    1.6739 H   0  0  0  0  0  0  0  0  0  0  0  0
   -2.3906   -7.9563    3.5713 H   0  0  0  0  0  0  0  0  0  0  0  0
   -0.4201    2.1964    4.0921 H   0  0  0  0  0  0  0  0  0  0  0  0
   -0.4549    4.5868    4.6608 H   0  0  0  0  0  0  0  0  0  0  0  0
    1.6705    5.9360    3.7494 H   0  0  0  0  0  0  0  0  0  0  0  0
   -0.4237   -5.4852    6.7606 H   0  0  0  0  0  0  0  0  0  0  0  0
  1  2  2  0
  2  3  1  0
  2  4  1  0
  4  5  1  0
  4 31  1  0
  4 32  1  0
  5  6  1  0
  5 33  1  0
  5 34  1  0
  6 30  1  0
  6  7  1  0
  7  8  2  0
  7 35  1  0
  8  9  1  0
  8 24  1  0
  9 10  2  3
  9 36  1  0
 10 22  1  0
 10 11  1  0
 11 12  2  0
 11 13  1  0
 13 14  1  0
 14 15  1  0
 14 22  1  0
 15 16  1  0
 15 37  1  0
 15 45  1  0
 16 21  1  0
 16 17  2  0
 17 18  1  0
 17 38  1  0
 18 19  2  0
 18 39  1  0
 19 20  1  0
 19 40  1  0
 20 21  2  0
 20 41  1  0
 22 23  2  0
 24 25  1  0
 24 30  2  0
 25 29  1  0
 25 26  2  0
 26 27  1  0
 26 42  1  0
 27 28  2  0
 27 43  1  0
 28 29  1  0
 28 44  1  0
M  CHG  3   3  -1  13  -1  14   1
M  END
>  <i_m_ct_stereo_status>  (9) 
1

>  <s_m_source_file>  (9) 
/var/tmp/pbs.5076255.sched01/tmpikn618da/06v91y69d.sdf

>  <i_m_source_file_index>  (9) 
4

>  <i_lp_mmshare_version>  (9) 
48012

>  <i_f3d_flags>  (9) 
0

>  <s_epik_input>  (9) 
Tz1DKFtPSF0pW0NIMl1bQ0gyXW4xW2NIXWMoYyhuMSktYzJbY0hdW2NIXVtjSF1zMikvW0NIXT1DMy9DKD1PKVtOSF0vQyhDMz1PKT1bQ0hdXGM0W2NIXVtjSF1bY0hdW2NIXW40

>  <s_epik_cmdline>  (9) 
J2VwaWtfcHl0aG9uJywgJy1waHQnLCAnMi4wJywgJy1waCcsICc3LjAnLCAnLXRuJywgJzgnLCAnLW1hJywgJzIwMCcsICctaW1hZScsICc8aW5maWxlLm1hZT4nLCAnLW9tYWUnLCAnPG91dGZpbGUubWFlPic=

>  <r_epik_Ionization_Penalty>  (9) 
1.48917

>  <r_epik_Ionization_Penalty_Charging>  (9) 
1.48357

>  <r_epik_Ionization_Penalty_Neutral>  (9) 
0.00560218

>  <r_epik_State_Penalty>  (9) 
1.79083

>  <r_epik_Charging_Adjusted_Penalty>  (9) 
3.2744

>  <i_epik_Tot_Q>  (9) 
-1

>  <i_epik_Tot_abs_Q>  (9) 
3

>  <s_lp_Force_Field>  (9) 
OPLS3e

>  <r_lp_Energy>  (9) 
22.1839

>  <b_lp_Chiralities_Consistent>  (9) 
1

>  <s_lp_Variant>  (9) 
1:0-3

>  <s_i_glide_gridfile>  (9) 
pfpi4k_grid

>  <i_i_glide_lignum>  (9) 
4

>  <i_i_glide_rotatable_bonds>  (9) 
7

>  <r_i_docking_score>  (9) 
-3.31736

>  <r_i_glide_ligand_efficiency>  (9) 
-0.110579

>  <r_i_glide_ligand_efficiency_sa>  (9) 
-0.343594

>  <r_i_glide_ligand_efficiency_ln>  (9) 
-0.753741

>  <r_i_glide_gscore>  (9) 
-3.31736

>  <r_i_glide_lipo>  (9) 
-0.124943

>  <r_i_glide_hbond>  (9) 
-0.239309

>  <r_i_glide_metal>  (9) 
-0

>  <r_i_glide_rewards>  (9) 
-0.565525

>  <r_i_glide_evdw>  (9) 
-31.5284

>  <r_i_glide_ecoul>  (9) 
-9.23658

>  <r_i_glide_erotb>  (9) 
0.674719

>  <r_i_glide_esite>  (9) 
-0.100395

>  <r_i_glide_emodel>  (9) 
-50.6773

>  <r_i_glide_energy>  (9) 
-40.765

>  <r_i_glide_einternal>  (9) 
1.43292

>  <r_i_glide_intrahb_reward>  (9) 
-0

>  <i_i_glide_confnum>  (9) 
6

>  <i_i_glide_posenum>  (9) 
30

>  <r_i_glide_eff_state_penalty>  (9) 
0

>  <ligand_id>  (9) 
1

>  <original_smiles>  (9) 
O=C(O)CCn1cc(C=C2C(=O)NC(=Cc3ccccn3)C2=O)c(-c2cccs2)n1

>  <smiles>  (9) 
[H]C(=C1C(=O)[N-][C+](C([H])([H])c2nc([H])c([H])c([H])c2[H])C1=O)c1c(-c2sc([H])c([H])c2[H])nn(C([H])([H])C([H])([H])C(=O)[O-])c1[H]

$$$$
1:3:0
     RDKit          3D

 45 48  0  0  1  0  0  0  0  0999 V2000
   -1.3782    4.5387    4.7905 O   0  0  0  0  0  0  0  0  0  0  0  0
   -1.6853    4.0766    3.6717 C   0  0  0  0  0  0  0  0  0  0  0  0
   -2.5832    4.5630    2.9464 O   0  0  0  0  0  0  0  0  0  0  0  0
   -0.9647    2.8236    3.1629 C   0  0  0  0  0  0  0  0  0  0  0  0
    0.5141    2.7536    3.6243 C   0  0  0  0  0  0  0  0  0  0  0  0
    1.1123    1.4640    3.3153 N   0  0  0  0  0  0  0  0  0  0  0  0
    0.6563    0.2372    3.7297 C   0  0  0  0  0  0  0  0  0  0  0  0
    1.5200   -0.7176    3.2820 C   0  0  0  0  0  0  0  0  0  0  0  0
    1.5250   -2.1507    3.5075 C   0  0  0  0  0  0  0  0  0  0  0  0
    0.8595   -2.9336    4.3970 C   0  0  0  0  0  0  0  0  0  0  0  0
   -0.0839   -2.5626    5.4628 C   0  0  0  0  0  0  0  0  0  0  0  0
   -0.4703   -1.4510    5.7547 O   0  0  0  0  0  0  0  0  0  0  0  0
   -0.4688   -3.6876    6.1194 N   0  0  0  0  0  0  0  0  0  0  0  0
    0.1680   -4.7399    5.5870 C   0  0  0  0  0  0  0  0  0  0  0  0
   -0.0925   -6.1568    6.0652 C   0  0  0  0  0  0  0  0  0  0  0  0
   -0.2862   -7.1565    4.9444 C   0  0  0  0  0  0  0  0  0  0  0  0
    0.6844   -8.1450    4.6998 C   0  0  0  0  0  0  0  0  0  0  0  0
    0.4663   -9.0451    3.6418 C   0  0  0  0  0  0  0  0  0  0  0  0
   -0.7039   -8.9152    2.8750 C   0  0  0  0  0  0  0  0  0  0  0  0
   -1.6111   -7.8936    3.1960 C   0  0  0  0  0  0  0  0  0  0  0  0
   -1.4069   -7.0182    4.2007 N   0  0  0  0  0  0  0  0  0  0  0  0
    1.0297   -4.3732    4.4652 C   0  0  0  0  0  0  0  0  0  0  0  0
    1.7402   -5.0868    3.7547 O   0  0  0  0  0  0  0  0  0  0  0  0
    2.4882    0.0516    2.5573 C   0  0  0  0  0  0  0  0  0  0  0  0
    3.6507   -0.4263    1.8177 C   0  0  0  0  0  0  0  0  0  0  0  0
    3.7452   -0.7314    0.4844 C   0  0  0  0  0  0  0  0  0  0  0  0
    5.0495   -1.1539    0.1002 C   0  0  0  0  0  0  0  0  0  0  0  0
    5.9283   -1.1629    1.1500 C   0  0  0  0  0  0  0  0  0  0  0  0
    5.1770   -0.6560    2.6365 S   0  0  0  0  0  0  0  0  0  0  0  0
    2.2546    1.3555    2.6047 N   0  0  0  0  0  0  0  0  0  0  0  0
   -1.5394    1.9588    3.4973 H   0  0  0  0  0  0  0  0  0  0  0  0
   -0.9905    2.8028    2.0773 H   0  0  0  0  0  0  0  0  0  0  0  0
    1.0914    3.5466    3.1511 H   0  0  0  0  0  0  0  0  0  0  0  0
    0.5896    2.8891    4.7066 H   0  0  0  0  0  0  0  0  0  0  0  0
   -0.2496    0.1928    4.3126 H   0  0  0  0  0  0  0  0  0  0  0  0
    2.1717   -2.6939    2.8365 H   0  0  0  0  0  0  0  0  0  0  0  0
    0.7569   -6.4320    6.6813 H   0  0  0  0  0  0  0  0  0  0  0  0
    1.5762   -8.2073    5.3064 H   0  0  0  0  0  0  0  0  0  0  0  0
    1.1892   -9.8168    3.4272 H   0  0  0  0  0  0  0  0  0  0  0  0
   -0.9017   -9.5874    2.0603 H   0  0  0  0  0  0  0  0  0  0  0  0
   -2.5180   -7.7575    2.6291 H   0  0  0  0  0  0  0  0  0  0  0  0
    2.9249   -0.6563   -0.2174 H   0  0  0  0  0  0  0  0  0  0  0  0
    5.2786   -1.4281   -0.9163 H   0  0  0  0  0  0  0  0  0  0  0  0
    6.9758   -1.4327    1.1442 H   0  0  0  0  0  0  0  0  0  0  0  0
   -0.9678   -6.1410    6.7184 H   0  0  0  0  0  0  0  0  0  0  0  0
  1  2  2  0
  2  3  1  0
  2  4  1  0
  4  5  1  0
  4 31  1  0
  4 32  1  0
  5  6  1  0
  5 33  1  0
  5 34  1  0
  6 30  1  0
  6  7  1  0
  7  8  2  0
  7 35  1  0
  8  9  1  0
  8 24  1  0
  9 10  2  3
  9 36  1  0
 10 22  1  0
 10 11  1  0
 11 12  2  0
 11 13  1  0
 13 14  1  0
 14 15  1  0
 14 22  1  0
 15 16  1  0
 15 37  1  0
 15 45  1  0
 16 21  1  0
 16 17  2  0
 17 18  1  0
 17 38  1  0
 18 19  2  0
 18 39  1  0
 19 20  1  0
 19 40  1  0
 20 21  2  0
 20 41  1  0
 22 23  2  0
 24 25  1  0
 24 30  2  0
 25 29  1  0
 25 26  2  0
 26 27  1  0
 26 42  1  0
 27 28  2  0
 27 43  1  0
 28 29  1  0
 28 44  1  0
M  CHG  3   3  -1  13  -1  14   1
M  END
>  <i_m_ct_stereo_status>  (10) 
1

>  <s_m_source_file>  (10) 
/var/tmp/pbs.5076255.sched01/tmpikn618da/06v91y69d.sdf

>  <i_m_source_file_index>  (10) 
5

>  <i_lp_mmshare_version>  (10) 
48012

>  <i_f3d_flags>  (10) 
0

>  <s_epik_input>  (10) 
Tz1DKFtPSF0pW0NIMl1bQ0gyXW4xW2NIXWMoYyhuMSktYzJbY0hdW2NIXVtjSF1zMikvW0NIXT1DMy9DKD1PKVtOSF0vQyhDMz1PKT1bQ0hdXGM0W2NIXVtjSF1bY0hdW2NIXW40

>  <s_epik_cmdline>  (10) 
J2VwaWtfcHl0aG9uJywgJy1waHQnLCAnMi4wJywgJy1waCcsICc3LjAnLCAnLXRuJywgJzgnLCAnLW1hJywgJzIwMCcsICctaW1hZScsICc8aW5maWxlLm1hZT4nLCAnLW9tYWUnLCAnPG91dGZpbGUubWFlPic=

>  <r_epik_Ionization_Penalty>  (10) 
1.48917

>  <r_epik_Ionization_Penalty_Charging>  (10) 
1.48357

>  <r_epik_Ionization_Penalty_Neutral>  (10) 
0.00560218

>  <r_epik_State_Penalty>  (10) 
1.79083

>  <r_epik_Charging_Adjusted_Penalty>  (10) 
3.2744

>  <i_epik_Tot_Q>  (10) 
-1

>  <i_epik_Tot_abs_Q>  (10) 
3

>  <s_lp_Force_Field>  (10) 
OPLS3e

>  <r_lp_Energy>  (10) 
24.4283

>  <b_lp_Chiralities_Consistent>  (10) 
1

>  <s_lp_Variant>  (10) 
1:0-4

>  <s_i_glide_gridfile>  (10) 
pfpi4k_grid

>  <i_i_glide_lignum>  (10) 
5

>  <i_i_glide_rotatable_bonds>  (10) 
7

>  <r_i_docking_score>  (10) 
-3.64019

>  <r_i_glide_ligand_efficiency>  (10) 
-0.12134

>  <r_i_glide_ligand_efficiency_sa>  (10) 
-0.377031

>  <r_i_glide_ligand_efficiency_ln>  (10) 
-0.827092

>  <r_i_glide_gscore>  (10) 
-3.64019

>  <r_i_glide_lipo>  (10) 
-0.358538

>  <r_i_glide_hbond>  (10) 
-0.241493

>  <r_i_glide_metal>  (10) 
-0

>  <r_i_glide_rewards>  (10) 
-0.553764

>  <r_i_glide_evdw>  (10) 
-33.1321

>  <r_i_glide_ecoul>  (10) 
-9.12777

>  <r_i_glide_erotb>  (10) 
0.674719

>  <r_i_glide_esite>  (10) 
-0.135346

>  <r_i_glide_emodel>  (10) 
-50.4224

>  <r_i_glide_energy>  (10) 
-42.2599

>  <r_i_glide_einternal>  (10) 
8.33414

>  <r_i_glide_intrahb_reward>  (10) 
-0

>  <i_i_glide_confnum>  (10) 
1

>  <i_i_glide_posenum>  (10) 
1

>  <r_i_glide_eff_state_penalty>  (10) 
0

>  <ligand_id>  (10) 
1

>  <original_smiles>  (10) 
O=C(O)CCn1cc(C=C2C(=O)NC(=Cc3ccccn3)C2=O)c(-c2cccs2)n1

>  <smiles>  (10) 
[H]C(=C1C(=O)[N-][C+](C([H])([H])c2nc([H])c([H])c([H])c2[H])C1=O)c1c(-c2sc([H])c([H])c2[H])nn(C([H])([H])C([H])([H])C(=O)[O-])c1[H]

$$$$
1:3:1
     RDKit          3D

 45 48  0  0  1  0  0  0  0  0999 V2000
   -0.9790    4.7416    4.6019 O   0  0  0  0  0  0  0  0  0  0  0  0
   -1.5430    4.1311    3.6679 C   0  0  0  0  0  0  0  0  0  0  0  0
   -2.5852    4.5405    3.1026 O   0  0  0  0  0  0  0  0  0  0  0  0
   -0.9670    2.7807    3.2068 C   0  0  0  0  0  0  0  0  0  0  0  0
    0.5515    2.6471    3.4897 C   0  0  0  0  0  0  0  0  0  0  0  0
    1.0513    1.3275    3.1450 N   0  0  0  0  0  0  0  0  0  0  0  0
    0.6727    0.1602    3.7495 C   0  0  0  0  0  0  0  0  0  0  0  0
    1.3746   -0.8804    3.1893 C   0  0  0  0  0  0  0  0  0  0  0  0
    1.3673   -2.2949    3.5274 C   0  0  0  0  0  0  0  0  0  0  0  0
    0.7366   -3.0208    4.4819 C   0  0  0  0  0  0  0  0  0  0  0  0
   -0.1928   -2.6191    5.5360 C   0  0  0  0  0  0  0  0  0  0  0  0
   -0.6383   -1.4958    5.7508 O   0  0  0  0  0  0  0  0  0  0  0  0
   -0.5233   -3.6996    6.2741 N   0  0  0  0  0  0  0  0  0  0  0  0
    0.1323   -4.7663    5.7841 C   0  0  0  0  0  0  0  0  0  0  0  0
   -0.1068   -6.1409    6.3365 C   0  0  0  0  0  0  0  0  0  0  0  0
   -0.2630   -7.2146    5.2779 C   0  0  0  0  0  0  0  0  0  0  0  0
    0.6053   -8.3188    5.2664 C   0  0  0  0  0  0  0  0  0  0  0  0
    0.4387   -9.2862    4.2620 C   0  0  0  0  0  0  0  0  0  0  0  0
   -0.5764   -9.0991    3.3059 C   0  0  0  0  0  0  0  0  0  0  0  0
   -1.3957   -7.9644    3.4040 C   0  0  0  0  0  0  0  0  0  0  0  0
   -1.2466   -7.0306    4.3650 N   0  0  0  0  0  0  0  0  0  0  0  0
    0.9461   -4.4505    4.6196 C   0  0  0  0  0  0  0  0  0  0  0  0
    1.6430   -5.1947    3.9194 O   0  0  0  0  0  0  0  0  0  0  0  0
    2.1802   -0.2102    2.1996 C   0  0  0  0  0  0  0  0  0  0  0  0
    3.1678   -0.7575    1.2666 C   0  0  0  0  0  0  0  0  0  0  0  0
    4.2312   -0.1099    0.6792 C   0  0  0  0  0  0  0  0  0  0  0  0
    4.9987   -0.9407   -0.1867 C   0  0  0  0  0  0  0  0  0  0  0  0
    4.5273   -2.2308   -0.2459 C   0  0  0  0  0  0  0  0  0  0  0  0
    3.0873   -2.4195    0.7066 S   0  0  0  0  0  0  0  0  0  0  0  0
    1.9966    1.1158    2.2070 N   0  0  0  0  0  0  0  0  0  0  0  0
   -1.5457    1.9896    3.6884 H   0  0  0  0  0  0  0  0  0  0  0  0
   -1.1330    2.6741    2.1358 H   0  0  0  0  0  0  0  0  0  0  0  0
    1.1095    3.3999    2.9370 H   0  0  0  0  0  0  0  0  0  0  0  0
    0.7491    2.8014    4.5550 H   0  0  0  0  0  0  0  0  0  0  0  0
   -0.0570    0.2540    4.5289 H   0  0  0  0  0  0  0  0  0  0  0  0
    1.9892   -2.9177    2.9279 H   0  0  0  0  0  0  0  0  0  0  0  0
    0.7430   -6.3513    6.9805 H   0  0  0  0  0  0  0  0  0  0  0  0
    1.3788   -8.4217    6.0139 H   0  0  0  0  0  0  0  0  0  0  0  0
    1.0761  -10.1536    4.2366 H   0  0  0  0  0  0  0  0  0  0  0  0
   -0.7382   -9.8310    2.5345 H   0  0  0  0  0  0  0  0  0  0  0  0
   -2.1907   -7.7937    2.6950 H   0  0  0  0  0  0  0  0  0  0  0  0
    4.4500    0.9413    0.8394 H   0  0  0  0  0  0  0  0  0  0  0  0
    5.8461   -0.5546   -0.7336 H   0  0  0  0  0  0  0  0  0  0  0  0
    4.9145   -3.0632   -0.8074 H   0  0  0  0  0  0  0  0  0  0  0  0
   -0.9838   -6.1013    6.9835 H   0  0  0  0  0  0  0  0  0  0  0  0
  1  2  2  0
  2  3  1  0
  2  4  1  0
  4  5  1  0
  4 31  1  0
  4 32  1  0
  5  6  1  0
  5 33  1  0
  5 34  1  0
  6 30  1  0
  6  7  1  0
  7  8  2  0
  7 35  1  0
  8  9  1  0
  8 24  1  0
  9 10  2  3
  9 36  1  0
 10 22  1  0
 10 11  1  0
 11 12  2  0
 11 13  1  0
 13 14  1  0
 14 15  1  0
 14 22  1  0
 15 16  1  0
 15 37  1  0
 15 45  1  0
 16 21  1  0
 16 17  2  0
 17 18  1  0
 17 38  1  0
 18 19  2  0
 18 39  1  0
 19 20  1  0
 19 40  1  0
 20 21  2  0
 20 41  1  0
 22 23  2  0
 24 25  1  0
 24 30  2  0
 25 29  1  0
 25 26  2  0
 26 27  1  0
 26 42  1  0
 27 28  2  0
 27 43  1  0
 28 29  1  0
 28 44  1  0
M  CHG  3   3  -1  13  -1  14   1
M  END
>  <i_m_ct_stereo_status>  (11) 
1

>  <s_m_source_file>  (11) 
/var/tmp/pbs.5076255.sched01/tmpikn618da/06v91y69d.sdf

>  <i_m_source_file_index>  (11) 
5

>  <i_lp_mmshare_version>  (11) 
48012

>  <i_f3d_flags>  (11) 
0

>  <s_epik_input>  (11) 
Tz1DKFtPSF0pW0NIMl1bQ0gyXW4xW2NIXWMoYyhuMSktYzJbY0hdW2NIXVtjSF1zMikvW0NIXT1DMy9DKD1PKVtOSF0vQyhDMz1PKT1bQ0hdXGM0W2NIXVtjSF1bY0hdW2NIXW40

>  <s_epik_cmdline>  (11) 
J2VwaWtfcHl0aG9uJywgJy1waHQnLCAnMi4wJywgJy1waCcsICc3LjAnLCAnLXRuJywgJzgnLCAnLW1hJywgJzIwMCcsICctaW1hZScsICc8aW5maWxlLm1hZT4nLCAnLW9tYWUnLCAnPG91dGZpbGUubWFlPic=

>  <r_epik_Ionization_Penalty>  (11) 
1.48917

>  <r_epik_Ionization_Penalty_Charging>  (11) 
1.48357

>  <r_epik_Ionization_Penalty_Neutral>  (11) 
0.00560218

>  <r_epik_State_Penalty>  (11) 
1.79083

>  <r_epik_Charging_Adjusted_Penalty>  (11) 
3.2744

>  <i_epik_Tot_Q>  (11) 
-1

>  <i_epik_Tot_abs_Q>  (11) 
3

>  <s_lp_Force_Field>  (11) 
OPLS3e

>  <r_lp_Energy>  (11) 
24.4283

>  <b_lp_Chiralities_Consistent>  (11) 
1

>  <s_lp_Variant>  (11) 
1:0-4

>  <s_i_glide_gridfile>  (11) 
pfpi4k_grid

>  <i_i_glide_lignum>  (11) 
5

>  <i_i_glide_rotatable_bonds>  (11) 
7

>  <r_i_docking_score>  (11) 
-3.28895

>  <r_i_glide_ligand_efficiency>  (11) 
-0.109632

>  <r_i_glide_ligand_efficiency_sa>  (11) 
-0.340651

>  <r_i_glide_ligand_efficiency_ln>  (11) 
-0.747286

>  <r_i_glide_gscore>  (11) 
-3.28895

>  <r_i_glide_lipo>  (11) 
-0.169336

>  <r_i_glide_hbond>  (11) 
-0.242942

>  <r_i_glide_metal>  (11) 
-0

>  <r_i_glide_rewards>  (11) 
-0.549312

>  <r_i_glide_evdw>  (11) 
-31.2867

>  <r_i_glide_ecoul>  (11) 
-8.63476

>  <r_i_glide_erotb>  (11) 
0.674719

>  <r_i_glide_esite>  (11) 
-0.142534

>  <r_i_glide_emodel>  (11) 
-48.4415

>  <r_i_glide_energy>  (11) 
-39.9214

>  <r_i_glide_einternal>  (11) 
4.97781

>  <r_i_glide_intrahb_reward>  (11) 
-0

>  <i_i_glide_confnum>  (11) 
3

>  <i_i_glide_posenum>  (11) 
15

>  <r_i_glide_eff_state_penalty>  (11) 
0

>  <ligand_id>  (11) 
1

>  <original_smiles>  (11) 
O=C(O)CCn1cc(C=C2C(=O)NC(=Cc3ccccn3)C2=O)c(-c2cccs2)n1

>  <smiles>  (11) 
[H]C(=C1C(=O)[N-][C+](C([H])([H])c2nc([H])c([H])c([H])c2[H])C1=O)c1c(-c2sc([H])c([H])c2[H])nn(C([H])([H])C([H])([H])C(=O)[O-])c1[H]

$$$$
1:3:2
     RDKit          3D

 45 48  0  0  1  0  0  0  0  0999 V2000
   -2.5847    3.5181    5.6225 O   0  0  0  0  0  0  0  0  0  0  0  0
   -2.1570    3.5512    4.4527 C   0  0  0  0  0  0  0  0  0  0  0  0
   -2.1773    4.5419    3.6971 O   0  0  0  0  0  0  0  0  0  0  0  0
   -1.5011    2.2977    3.8818 C   0  0  0  0  0  0  0  0  0  0  0  0
   -1.1941    1.2396    4.9577 C   0  0  0  0  0  0  0  0  0  0  0  0
   -0.3726    0.1589    4.4528 N   0  0  0  0  0  0  0  0  0  0  0  0
   -0.4794   -1.1643    4.7707 C   0  0  0  0  0  0  0  0  0  0  0  0
    0.5201   -1.8435    4.1209 C   0  0  0  0  0  0  0  0  0  0  0  0
    0.8714   -3.2450    4.1970 C   0  0  0  0  0  0  0  0  0  0  0  0
    0.5574   -4.2360    5.0661 C   0  0  0  0  0  0  0  0  0  0  0  0
   -0.3009   -4.2343    6.2378 C   0  0  0  0  0  0  0  0  0  0  0  0
   -0.9433   -3.2843    6.6874 O   0  0  0  0  0  0  0  0  0  0  0  0
   -0.3200   -5.4713    6.7726 N   0  0  0  0  0  0  0  0  0  0  0  0
    0.4984   -6.2607    6.0633 C   0  0  0  0  0  0  0  0  0  0  0  0
    0.6378   -7.7408    6.3410 C   0  0  0  0  0  0  0  0  0  0  0  0
    0.4771   -8.6563    5.1325 C   0  0  0  0  0  0  0  0  0  0  0  0
    1.1780   -9.8736    5.0865 C   0  0  0  0  0  0  0  0  0  0  0  0
    1.0358  -10.6811    3.9436 C   0  0  0  0  0  0  0  0  0  0  0  0
    0.2195  -10.2234    2.8901 C   0  0  0  0  0  0  0  0  0  0  0  0
   -0.4425   -8.9926    3.0376 C   0  0  0  0  0  0  0  0  0  0  0  0
   -0.3321   -8.2278    4.1390 N   0  0  0  0  0  0  0  0  0  0  0  0
    1.1117   -5.5622    4.9352 C   0  0  0  0  0  0  0  0  0  0  0  0
    1.9180   -5.9620    4.0795 O   0  0  0  0  0  0  0  0  0  0  0  0
    1.2052   -0.8107    3.3905 C   0  0  0  0  0  0  0  0  0  0  0  0
    2.3570   -0.9096    2.4819 C   0  0  0  0  0  0  0  0  0  0  0  0
    3.1077   -1.9991    2.0938 C   0  0  0  0  0  0  0  0  0  0  0  0
    4.1446   -1.6846    1.1649 C   0  0  0  0  0  0  0  0  0  0  0  0
    4.2062   -0.3563    0.8453 C   0  0  0  0  0  0  0  0  0  0  0  0
    2.9533    0.5372    1.6824 S   0  0  0  0  0  0  0  0  0  0  0  0
    0.6689    0.3859    3.6295 N   0  0  0  0  0  0  0  0  0  0  0  0
   -2.1386    1.8614    3.1111 H   0  0  0  0  0  0  0  0  0  0  0  0
   -0.5700    2.6159    3.4126 H   0  0  0  0  0  0  0  0  0  0  0  0
   -0.7055    1.6653    5.8376 H   0  0  0  0  0  0  0  0  0  0  0  0
   -2.1313    0.8058    5.3205 H   0  0  0  0  0  0  0  0  0  0  0  0
   -1.2683   -1.4655    5.4337 H   0  0  0  0  0  0  0  0  0  0  0  0
    1.4727   -3.5879    3.3936 H   0  0  0  0  0  0  0  0  0  0  0  0
    1.6266   -7.8737    6.7793 H   0  0  0  0  0  0  0  0  0  0  0  0
    1.8011  -10.1789    5.9154 H   0  0  0  0  0  0  0  0  0  0  0  0
    1.5443  -11.6262    3.8910 H   0  0  0  0  0  0  0  0  0  0  0  0
    0.0930  -10.8098    2.0036 H   0  0  0  0  0  0  0  0  0  0  0  0
   -1.0631   -8.6017    2.2457 H   0  0  0  0  0  0  0  0  0  0  0  0
    2.9982   -3.0241    2.4118 H   0  0  0  0  0  0  0  0  0  0  0  0
    4.7897   -2.4517    0.7819 H   0  0  0  0  0  0  0  0  0  0  0  0
    4.8791    0.1597    0.1785 H   0  0  0  0  0  0  0  0  0  0  0  0
   -0.0912   -8.0202    7.0983 H   0  0  0  0  0  0  0  0  0  0  0  0
  1  2  2  0
  2  3  1  0
  2  4  1  0
  4  5  1  0
  4 31  1  0
  4 32  1  0
  5  6  1  0
  5 33  1  0
  5 34  1  0
  6 30  1  0
  6  7  1  0
  7  8  2  0
  7 35  1  0
  8  9  1  0
  8 24  1  0
  9 10  2  3
  9 36  1  0
 10 22  1  0
 10 11  1  0
 11 12  2  0
 11 13  1  0
 13 14  1  0
 14 15  1  0
 14 22  1  0
 15 16  1  0
 15 37  1  0
 15 45  1  0
 16 21  1  0
 16 17  2  0
 17 18  1  0
 17 38  1  0
 18 19  2  0
 18 39  1  0
 19 20  1  0
 19 40  1  0
 20 21  2  0
 20 41  1  0
 22 23  2  0
 24 25  1  0
 24 30  2  0
 25 29  1  0
 25 26  2  0
 26 27  1  0
 26 42  1  0
 27 28  2  0
 27 43  1  0
 28 29  1  0
 28 44  1  0
M  CHG  3   3  -1  13  -1  14   1
M  END
>  <i_m_ct_stereo_status>  (12) 
1

>  <s_m_source_file>  (12) 
/var/tmp/pbs.5076255.sched01/tmpikn618da/06v91y69d.sdf

>  <i_m_source_file_index>  (12) 
5

>  <i_lp_mmshare_version>  (12) 
48012

>  <i_f3d_flags>  (12) 
0

>  <s_epik_input>  (12) 
Tz1DKFtPSF0pW0NIMl1bQ0gyXW4xW2NIXWMoYyhuMSktYzJbY0hdW2NIXVtjSF1zMikvW0NIXT1DMy9DKD1PKVtOSF0vQyhDMz1PKT1bQ0hdXGM0W2NIXVtjSF1bY0hdW2NIXW40

>  <s_epik_cmdline>  (12) 
J2VwaWtfcHl0aG9uJywgJy1waHQnLCAnMi4wJywgJy1waCcsICc3LjAnLCAnLXRuJywgJzgnLCAnLW1hJywgJzIwMCcsICctaW1hZScsICc8aW5maWxlLm1hZT4nLCAnLW9tYWUnLCAnPG91dGZpbGUubWFlPic=

>  <r_epik_Ionization_Penalty>  (12) 
1.48917

>  <r_epik_Ionization_Penalty_Charging>  (12) 
1.48357

>  <r_epik_Ionization_Penalty_Neutral>  (12) 
0.00560218

>  <r_epik_State_Penalty>  (12) 
1.79083

>  <r_epik_Charging_Adjusted_Penalty>  (12) 
3.2744

>  <i_epik_Tot_Q>  (12) 
-1

>  <i_epik_Tot_abs_Q>  (12) 
3

>  <s_lp_Force_Field>  (12) 
OPLS3e

>  <r_lp_Energy>  (12) 
24.4283

>  <b_lp_Chiralities_Consistent>  (12) 
1

>  <s_lp_Variant>  (12) 
1:0-4

>  <s_i_glide_gridfile>  (12) 
pfpi4k_grid

>  <i_i_glide_lignum>  (12) 
5

>  <i_i_glide_rotatable_bonds>  (12) 
7

>  <r_i_docking_score>  (12) 
-3.18971

>  <r_i_glide_ligand_efficiency>  (12) 
-0.106324

>  <r_i_glide_ligand_efficiency_sa>  (12) 
-0.330373

>  <r_i_glide_ligand_efficiency_ln>  (12) 
-0.724737

>  <r_i_glide_gscore>  (12) 
-3.18971

>  <r_i_glide_lipo>  (12) 
-0.372529

>  <r_i_glide_hbond>  (12) 
-0.2

>  <r_i_glide_metal>  (12) 
-0

>  <r_i_glide_rewards>  (12) 
-0.549312

>  <r_i_glide_evdw>  (12) 
-31.686

>  <r_i_glide_ecoul>  (12) 
-7.26289

>  <r_i_glide_erotb>  (12) 
0.674719

>  <r_i_glide_esite>  (12) 
-0.0688565

>  <r_i_glide_emodel>  (12) 
-48.351

>  <r_i_glide_energy>  (12) 
-38.9489

>  <r_i_glide_einternal>  (12) 
2.3794

>  <r_i_glide_intrahb_reward>  (12) 
-0

>  <i_i_glide_confnum>  (12) 
1

>  <i_i_glide_posenum>  (12) 
25

>  <r_i_glide_eff_state_penalty>  (12) 
0

>  <ligand_id>  (12) 
1

>  <original_smiles>  (12) 
O=C(O)CCn1cc(C=C2C(=O)NC(=Cc3ccccn3)C2=O)c(-c2cccs2)n1

>  <smiles>  (12) 
[H]C(=C1C(=O)[N-][C+](C([H])([H])c2nc([H])c([H])c([H])c2[H])C1=O)c1c(-c2sc([H])c([H])c2[H])nn(C([H])([H])C([H])([H])C(=O)[O-])c1[H]

$$$$
2:0:0
     RDKit          3D

 35 37  0  0  1  0  0  0  0  0999 V2000
    7.3661   -3.1460   -0.2226 C   0  0  0  0  0  0  0  0  0  0  0  0
    5.9470   -2.8739   -0.6395 C   0  0  0  0  0  0  0  0  0  0  0  0
    5.7190   -1.8427   -1.4456 N   0  0  0  0  0  0  0  0  0  0  0  0
    4.3847   -1.8454   -1.6396 N   0  0  0  0  0  0  0  0  0  0  0  0
    3.7963   -0.8457   -2.5082 C   0  0  0  0  0  0  0  0  0  0  0  0
    3.7896   -2.8749   -0.9462 C   0  0  0  0  0  0  0  0  0  0  0  0
    2.4420   -3.0580   -0.9509 O   0  0  0  0  0  0  0  0  0  0  0  0
    4.7574   -3.5945   -0.2949 C   0  0  0  0  0  0  0  0  0  0  0  0
    4.5947   -4.7819    0.5550 C   0  0  0  0  0  0  0  0  0  0  0  0
    5.1101   -4.8905    1.6998 N   0  0  0  0  0  0  0  0  0  0  0  0
    4.8232   -6.1738    2.2268 O   0  0  0  0  0  0  0  0  0  0  0  0
    3.7535   -6.7604    1.4876 C   0  0  1  0  0  0  0  0  0  0  0  0
    4.0807   -8.2573    1.3713 C   0  0  0  0  0  0  0  0  0  0  0  0
    2.4428   -6.5233    2.2152 C   0  0  0  0  0  0  0  0  0  0  0  0
    1.2538   -6.6656    1.6329 N   0  0  0  0  0  0  0  0  0  0  0  0
    0.3456   -6.4631    2.6436 N   0  0  0  0  0  0  0  0  0  0  0  0
    0.9435   -6.1950    3.7654 N   0  0  0  0  0  0  0  0  0  0  0  0
    2.2792   -6.2494    3.5289 N   0  0  0  0  0  0  0  0  0  0  0  0
    3.1872   -6.0255    4.6412 C   0  0  0  0  0  0  0  0  0  0  0  0
    3.8532   -6.0115    0.1620 C   0  0  0  0  0  0  0  0  0  0  0  0
    7.4220   -3.6519    0.7417 H   0  0  0  0  0  0  0  0  0  0  0  0
    7.9328   -2.2191   -0.1381 H   0  0  0  0  0  0  0  0  0  0  0  0
    7.8722   -3.7688   -0.9586 H   0  0  0  0  0  0  0  0  0  0  0  0
    2.7162   -0.8089   -2.3651 H   0  0  0  0  0  0  0  0  0  0  0  0
    4.0110   -1.0974   -3.5463 H   0  0  0  0  0  0  0  0  0  0  0  0
    4.2210    0.1310   -2.2807 H   0  0  0  0  0  0  0  0  0  0  0  0
    3.3735   -8.7861    0.7300 H   0  0  0  0  0  0  0  0  0  0  0  0
    4.0738   -8.7409    2.3524 H   0  0  0  0  0  0  0  0  0  0  0  0
    5.0791   -8.3920    0.9513 H   0  0  0  0  0  0  0  0  0  0  0  0
    4.2031   -6.3773    4.4481 H   0  0  0  0  0  0  0  0  0  0  0  0
    2.8365   -6.5736    5.5216 H   0  0  0  0  0  0  0  0  0  0  0  0
    3.2117   -4.9553    4.8691 H   0  0  0  0  0  0  0  0  0  0  0  0
    2.8901   -5.7938   -0.3060 H   0  0  0  0  0  0  0  0  0  0  0  0
    4.4813   -6.5630   -0.5371 H   0  0  0  0  0  0  0  0  0  0  0  0
    2.0231   -2.2082   -1.1132 H   0  0  0  0  0  0  0  0  0  0  0  0
  1  2  1  0
  1 21  1  0
  1 22  1  0
  1 23  1  0
  2  8  1  0
  2  3  2  0
  3  4  1  0
  4  5  1  0
  4  6  1  0
  5 24  1  0
  5 25  1  0
  5 26  1  0
  6  7  1  0
  6  8  2  0
  7 35  1  0
  8  9  1  0
  9 20  1  0
  9 10  2  0
 10 11  1  0
 11 12  1  0
 12 13  1  6
 12 14  1  0
 12 20  1  0
 13 27  1  0
 13 28  1  0
 13 29  1  0
 14 18  1  0
 14 15  2  0
 15 16  1  0
 16 17  2  0
 17 18  1  0
 18 19  1  0
 19 30  1  0
 19 31  1  0
 19 32  1  0
 20 33  1  0
 20 34  1  0
M  END
>  <i_m_ct_stereo_status>  (13) 
1

>  <s_m_source_file>  (13) 
/var/tmp/pbs.5076255.sched01/tmpikn618da/06v91y69d.sdf

>  <i_m_source_file_index>  (13) 
6

>  <i_lp_mmshare_version>  (13) 
48012

>  <i_f3d_flags>  (13) 
0

>  <s_epik_input>  (13) 
W0NIM11jMVtuSF1uKFtDSDNdKWMoPU8pYzFDKFtDSDJdMik9Tk9bQ0BAXTIoW0NIM10pYzNubm5uM1tDSDNd

>  <s_epik_cmdline>  (13) 
J2VwaWtfcHl0aG9uJywgJy1waHQnLCAnMi4wJywgJy1waCcsICc3LjAnLCAnLXRuJywgJzgnLCAnLW1hJywgJzIwMCcsICctaW1hZScsICc8aW5maWxlLm1hZT4nLCAnLW9tYWUnLCAnPG91dGZpbGUubWFlPic=

>  <r_lp_tautomer_probability>  (13) 
1

>  <r_epik_Ionization_Penalty>  (13) 
0.0792371

>  <r_epik_Ionization_Penalty_Charging>  (13) 
0

>  <r_epik_Ionization_Penalty_Neutral>  (13) 
0.0792371

>  <r_epik_State_Penalty>  (13) 
0.10619

>  <r_epik_Charging_Adjusted_Penalty>  (13) 
0.10619

>  <i_epik_Tot_Q>  (13) 
0

>  <i_epik_Tot_abs_Q>  (13) 
0

>  <s_epik_Chemistry_Notes>  (13) 
This compound has an imine and may undergo hydrolysis.

>  <s_lp_Force_Field>  (13) 
OPLS3e

>  <r_lp_Energy>  (13) 
-8.38736

>  <b_lp_Chiralities_Consistent>  (13) 
1

>  <s_lp_Variant>  (13) 
2:0-1

>  <s_i_glide_gridfile>  (13) 
pfpi4k_grid

>  <i_i_glide_lignum>  (13) 
6

>  <i_i_glide_rotatable_bonds>  (13) 
3

>  <r_i_docking_score>  (13) 
-3.8305

>  <r_i_glide_ligand_efficiency>  (13) 
-0.191525

>  <r_i_glide_ligand_efficiency_sa>  (13) 
-0.519879

>  <r_i_glide_ligand_efficiency_ln>  (13) 
-0.958649

>  <r_i_glide_gscore>  (13) 
-3.8305

>  <r_i_glide_lipo>  (13) 
-0.257452

>  <r_i_glide_hbond>  (13) 
-0.17346

>  <r_i_glide_metal>  (13) 
-0

>  <r_i_glide_rewards>  (13) 
-1.5854

>  <r_i_glide_evdw>  (13) 
-22.4791

>  <r_i_glide_ecoul>  (13) 
-6.32524

>  <r_i_glide_erotb>  (13) 
0.468389

>  <r_i_glide_esite>  (13) 
-0.209835

>  <r_i_glide_emodel>  (13) 
-35.608

>  <r_i_glide_energy>  (13) 
-28.8043

>  <r_i_glide_einternal>  (13) 
3.11106

>  <r_i_glide_intrahb_reward>  (13) 
-0

>  <i_i_glide_confnum>  (13) 
1

>  <i_i_glide_posenum>  (13) 
1

>  <r_i_glide_eff_state_penalty>  (13) 
0

>  <ligand_id>  (13) 
2

>  <original_smiles>  (13) 
Cc1[nH]n(C)c(=O)c1C1=NOC(C)(c2nnnn2C)C1

>  <smiles>  (13) 
[H]Oc1c(C2=NOC(c3nnnn3C([H])([H])[H])(C([H])([H])[H])C2([H])[H])c(C([H])([H])[H])nn1C([H])([H])[H]

$$$$
2:0:1
     RDKit          3D

 35 37  0  0  1  0  0  0  0  0999 V2000
    0.5452   -2.2236    3.9584 C   0  0  0  0  0  0  0  0  0  0  0  0
    0.6065   -0.8204    3.4123 C   0  0  0  0  0  0  0  0  0  0  0  0
   -0.3686    0.0125    3.7601 N   0  0  0  0  0  0  0  0  0  0  0  0
   -0.0909    1.1676    3.1298 N   0  0  0  0  0  0  0  0  0  0  0  0
   -0.9555    2.3105    3.3271 C   0  0  0  0  0  0  0  0  0  0  0  0
    1.0674    1.0522    2.3965 C   0  0  0  0  0  0  0  0  0  0  0  0
    1.5575    2.1206    1.7039 O   0  0  0  0  0  0  0  0  0  0  0  0
    1.5742   -0.2132    2.5429 C   0  0  0  0  0  0  0  0  0  0  0  0
    2.8146   -0.7814    1.9715 C   0  0  0  0  0  0  0  0  0  0  0  0
    3.1562   -1.9881    2.1067 N   0  0  0  0  0  0  0  0  0  0  0  0
    4.3817   -2.2231    1.4332 O   0  0  0  0  0  0  0  0  0  0  0  0
    4.6671   -1.1213    0.5869 C   0  0  1  0  0  0  0  0  0  0  0  0
    6.1820   -0.8811    0.7319 C   0  0  0  0  0  0  0  0  0  0  0  0
    4.2908   -1.4554   -0.8546 C   0  0  0  0  0  0  0  0  0  0  0  0
    4.6220   -0.6758   -1.8754 N   0  0  0  0  0  0  0  0  0  0  0  0
    4.1051   -1.3075   -2.9852 N   0  0  0  0  0  0  0  0  0  0  0  0
    3.4870   -2.3997   -2.6516 N   0  0  0  0  0  0  0  0  0  0  0  0
    3.5830   -2.5183   -1.3016 N   0  0  0  0  0  0  0  0  0  0  0  0
    2.9302   -3.6527   -0.6582 C   0  0  0  0  0  0  0  0  0  0  0  0
    3.8367   -0.0069    1.2144 C   0  0  0  0  0  0  0  0  0  0  0  0
    1.0256   -2.9494    3.3020 H   0  0  0  0  0  0  0  0  0  0  0  0
   -0.4863   -2.5534    4.0805 H   0  0  0  0  0  0  0  0  0  0  0  0
    1.0238   -2.2878    4.9350 H   0  0  0  0  0  0  0  0  0  0  0  0
   -0.7402    3.0770    2.5847 H   0  0  0  0  0  0  0  0  0  0  0  0
   -0.7864    2.7225    4.3228 H   0  0  0  0  0  0  0  0  0  0  0  0
   -1.9976    2.0061    3.2268 H   0  0  0  0  0  0  0  0  0  0  0  0
    6.4925    0.0258    0.2094 H   0  0  0  0  0  0  0  0  0  0  0  0
    6.7433   -1.7296    0.3352 H   0  0  0  0  0  0  0  0  0  0  0  0
    6.4458   -0.7758    1.7868 H   0  0  0  0  0  0  0  0  0  0  0  0
    3.2695   -3.8290    0.3537 H   0  0  0  0  0  0  0  0  0  0  0  0
    3.1839   -4.5666   -1.1782 H   0  0  0  0  0  0  0  0  0  0  0  0
    1.8471   -3.5034   -0.6775 H   0  0  0  0  0  0  0  0  0  0  0  0
    3.4156    0.6838    0.4895 H   0  0  0  0  0  0  0  0  0  0  0  0
    4.4095    0.5518    1.9573 H   0  0  0  0  0  0  0  0  0  0  0  0
    0.8670    2.7642    1.5620 H   0  0  0  0  0  0  0  0  0  0  0  0
  1  2  1  0
  1 21  1  0
  1 22  1  0
  1 23  1  0
  2  8  1  0
  2  3  2  0
  3  4  1  0
  4  5  1  0
  4  6  1  0
  5 24  1  0
  5 25  1  0
  5 26  1  0
  6  7  1  0
  6  8  2  0
  7 35  1  0
  8  9  1  0
  9 20  1  0
  9 10  2  0
 10 11  1  0
 11 12  1  0
 12 13  1  6
 12 14  1  0
 12 20  1  0
 13 27  1  0
 13 28  1  0
 13 29  1  0
 14 18  1  0
 14 15  2  0
 15 16  1  0
 16 17  2  0
 17 18  1  0
 18 19  1  0
 19 30  1  0
 19 31  1  0
 19 32  1  0
 20 33  1  0
 20 34  1  0
M  END
>  <i_m_ct_stereo_status>  (14) 
1

>  <s_m_source_file>  (14) 
/var/tmp/pbs.5076255.sched01/tmpikn618da/06v91y69d.sdf

>  <i_m_source_file_index>  (14) 
6

>  <i_lp_mmshare_version>  (14) 
48012

>  <i_f3d_flags>  (14) 
0

>  <s_epik_input>  (14) 
W0NIM11jMVtuSF1uKFtDSDNdKWMoPU8pYzFDKFtDSDJdMik9Tk9bQ0BAXTIoW0NIM10pYzNubm5uM1tDSDNd

>  <s_epik_cmdline>  (14) 
J2VwaWtfcHl0aG9uJywgJy1waHQnLCAnMi4wJywgJy1waCcsICc3LjAnLCAnLXRuJywgJzgnLCAnLW1hJywgJzIwMCcsICctaW1hZScsICc8aW5maWxlLm1hZT4nLCAnLW9tYWUnLCAnPG91dGZpbGUubWFlPic=

>  <r_lp_tautomer_probability>  (14) 
1

>  <r_epik_Ionization_Penalty>  (14) 
0.0792371

>  <r_epik_Ionization_Penalty_Charging>  (14) 
0

>  <r_epik_Ionization_Penalty_Neutral>  (14) 
0.0792371

>  <r_epik_State_Penalty>  (14) 
0.10619

>  <r_epik_Charging_Adjusted_Penalty>  (14) 
0.10619

>  <i_epik_Tot_Q>  (14) 
0

>  <i_epik_Tot_abs_Q>  (14) 
0

>  <s_epik_Chemistry_Notes>  (14) 
This compound has an imine and may undergo hydrolysis.

>  <s_lp_Force_Field>  (14) 
OPLS3e

>  <r_lp_Energy>  (14) 
-8.38736

>  <b_lp_Chiralities_Consistent>  (14) 
1

>  <s_lp_Variant>  (14) 
2:0-1

>  <s_i_glide_gridfile>  (14) 
pfpi4k_grid

>  <i_i_glide_lignum>  (14) 
6

>  <i_i_glide_rotatable_bonds>  (14) 
3

>  <r_i_docking_score>  (14) 
-3.5986

>  <r_i_glide_ligand_efficiency>  (14) 
-0.17993

>  <r_i_glide_ligand_efficiency_sa>  (14) 
-0.488405

>  <r_i_glide_ligand_efficiency_ln>  (14) 
-0.90061

>  <r_i_glide_gscore>  (14) 
-3.5986

>  <r_i_glide_lipo>  (14) 
-0.20807

>  <r_i_glide_hbond>  (14) 
-0.16

>  <r_i_glide_metal>  (14) 
-0

>  <r_i_glide_rewards>  (14) 
-1.51853

>  <r_i_glide_evdw>  (14) 
-24.7536

>  <r_i_glide_ecoul>  (14) 
-4.9347

>  <r_i_glide_erotb>  (14) 
0.468389

>  <r_i_glide_esite>  (14) 
-0.202506

>  <r_i_glide_emodel>  (14) 
-36.9518

>  <r_i_glide_energy>  (14) 
-29.6883

>  <r_i_glide_einternal>  (14) 
1.0561

>  <r_i_glide_intrahb_reward>  (14) 
-0

>  <i_i_glide_confnum>  (14) 
4

>  <i_i_glide_posenum>  (14) 
25

>  <r_i_glide_eff_state_penalty>  (14) 
0

>  <ligand_id>  (14) 
2

>  <original_smiles>  (14) 
Cc1[nH]n(C)c(=O)c1C1=NOC(C)(c2nnnn2C)C1

>  <smiles>  (14) 
[H]Oc1c(C2=NOC(c3nnnn3C([H])([H])[H])(C([H])([H])[H])C2([H])[H])c(C([H])([H])[H])nn1C([H])([H])[H]

$$$$
2:0:2
     RDKit          3D

 35 37  0  0  1  0  0  0  0  0999 V2000
    7.8452   -6.8432    1.8553 C   0  0  0  0  0  0  0  0  0  0  0  0
    6.3581   -6.9830    1.6764 C   0  0  0  0  0  0  0  0  0  0  0  0
    5.8008   -8.1218    2.0649 N   0  0  0  0  0  0  0  0  0  0  0  0
    4.4915   -7.9898    1.8082 N   0  0  0  0  0  0  0  0  0  0  0  0
    3.5827   -9.0701    2.1516 C   0  0  0  0  0  0  0  0  0  0  0  0
    4.2276   -6.7624    1.2535 C   0  0  0  0  0  0  0  0  0  0  0  0
    2.9667   -6.4341    0.8977 O   0  0  0  0  0  0  0  0  0  0  0  0
    5.4168   -6.0590    1.1446 C   0  0  0  0  0  0  0  0  0  0  0  0
    5.6295   -4.7090    0.5829 C   0  0  0  0  0  0  0  0  0  0  0  0
    6.7546   -4.2556    0.2149 N   0  0  0  0  0  0  0  0  0  0  0  0
    6.6082   -2.9548   -0.3390 O   0  0  0  0  0  0  0  0  0  0  0  0
    5.2260   -2.6150   -0.4159 C   0  0  1  0  0  0  0  0  0  0  0  0
    5.0885   -1.2627    0.2984 C   0  0  0  0  0  0  0  0  0  0  0  0
    4.8564   -2.7166   -1.9081 C   0  0  0  0  0  0  0  0  0  0  0  0
    5.1002   -3.8256   -2.6069 N   0  0  0  0  0  0  0  0  0  0  0  0
    4.6181   -3.5541   -3.8881 N   0  0  0  0  0  0  0  0  0  0  0  0
    4.1069   -2.3510   -3.9591 N   0  0  0  0  0  0  0  0  0  0  0  0
    4.2362   -1.7858   -2.7262 N   0  0  0  0  0  0  0  0  0  0  0  0
    3.7991   -0.4320   -2.5093 C   0  0  0  0  0  0  0  0  0  0  0  0
    4.5562   -3.6846    0.4474 C   0  0  0  0  0  0  0  0  0  0  0  0
    8.2902   -6.1737    1.1254 H   0  0  0  0  0  0  0  0  0  0  0  0
    8.3446   -7.8011    1.7515 H   0  0  0  0  0  0  0  0  0  0  0  0
    8.0762   -6.4603    2.8443 H   0  0  0  0  0  0  0  0  0  0  0  0
    2.6225   -8.9311    1.6555 H   0  0  0  0  0  0  0  0  0  0  0  0
    3.4263   -9.0875    3.2336 H   0  0  0  0  0  0  0  0  0  0  0  0
    4.0084  -10.0250    1.8343 H   0  0  0  0  0  0  0  0  0  0  0  0
    4.0254   -1.0612    0.4243 H   0  0  0  0  0  0  0  0  0  0  0  0
    5.5619   -0.5045   -0.3126 H   0  0  0  0  0  0  0  0  0  0  0  0
    5.5602   -1.2166    1.2870 H   0  0  0  0  0  0  0  0  0  0  0  0
    3.7216   -0.2612   -1.4584 H   0  0  0  0  0  0  0  0  0  0  0  0
    2.7992   -0.3239   -2.9245 H   0  0  0  0  0  0  0  0  0  0  0  0
    4.4956    0.2625   -2.9867 H   0  0  0  0  0  0  0  0  0  0  0  0
    3.6423   -4.0657   -0.0095 H   0  0  0  0  0  0  0  0  0  0  0  0
    4.3240   -3.2964    1.4505 H   0  0  0  0  0  0  0  0  0  0  0  0
    3.0194   -5.7076    0.2981 H   0  0  0  0  0  0  0  0  0  0  0  0
  1  2  1  0
  1 21  1  0
  1 22  1  0
  1 23  1  0
  2  8  1  0
  2  3  2  0
  3  4  1  0
  4  5  1  0
  4  6  1  0
  5 24  1  0
  5 25  1  0
  5 26  1  0
  6  7  1  0
  6  8  2  0
  7 35  1  0
  8  9  1  0
  9 20  1  0
  9 10  2  0
 10 11  1  0
 11 12  1  0
 12 13  1  1
 12 14  1  0
 12 20  1  0
 13 27  1  0
 13 28  1  0
 13 29  1  0
 14 18  1  0
 14 15  2  0
 15 16  1  0
 16 17  2  0
 17 18  1  0
 18 19  1  0
 19 30  1  0
 19 31  1  0
 19 32  1  0
 20 33  1  0
 20 34  1  0
M  END
>  <i_m_ct_stereo_status>  (15) 
1

>  <s_m_source_file>  (15) 
/var/tmp/pbs.5076255.sched01/tmpikn618da/06v91y69d.sdf

>  <i_m_source_file_index>  (15) 
6

>  <i_lp_mmshare_version>  (15) 
48012

>  <i_f3d_flags>  (15) 
0

>  <s_epik_input>  (15) 
W0NIM11jMVtuSF1uKFtDSDNdKWMoPU8pYzFDKFtDSDJdMik9Tk9bQ0BAXTIoW0NIM10pYzNubm5uM1tDSDNd

>  <s_epik_cmdline>  (15) 
J2VwaWtfcHl0aG9uJywgJy1waHQnLCAnMi4wJywgJy1waCcsICc3LjAnLCAnLXRuJywgJzgnLCAnLW1hJywgJzIwMCcsICctaW1hZScsICc8aW5maWxlLm1hZT4nLCAnLW9tYWUnLCAnPG91dGZpbGUubWFlPic=

>  <r_lp_tautomer_probability>  (15) 
1

>  <r_epik_Ionization_Penalty>  (15) 
0.0792371

>  <r_epik_Ionization_Penalty_Charging>  (15) 
0

>  <r_epik_Ionization_Penalty_Neutral>  (15) 
0.0792371

>  <r_epik_State_Penalty>  (15) 
0.10619

>  <r_epik_Charging_Adjusted_Penalty>  (15) 
0.10619

>  <i_epik_Tot_Q>  (15) 
0

>  <i_epik_Tot_abs_Q>  (15) 
0

>  <s_epik_Chemistry_Notes>  (15) 
This compound has an imine and may undergo hydrolysis.

>  <s_lp_Force_Field>  (15) 
OPLS3e

>  <r_lp_Energy>  (15) 
-8.38736

>  <b_lp_Chiralities_Consistent>  (15) 
1

>  <s_lp_Variant>  (15) 
2:0-1

>  <s_i_glide_gridfile>  (15) 
pfpi4k_grid

>  <i_i_glide_lignum>  (15) 
6

>  <i_i_glide_rotatable_bonds>  (15) 
3

>  <r_i_docking_score>  (15) 
-3.47126

>  <r_i_glide_ligand_efficiency>  (15) 
-0.173563

>  <r_i_glide_ligand_efficiency_sa>  (15) 
-0.471122

>  <r_i_glide_ligand_efficiency_ln>  (15) 
-0.868741

>  <r_i_glide_gscore>  (15) 
-3.47126

>  <r_i_glide_lipo>  (15) 
-0.401921

>  <r_i_glide_hbond>  (15) 
0

>  <r_i_glide_metal>  (15) 
-0

>  <r_i_glide_rewards>  (15) 
-1.68183

>  <r_i_glide_evdw>  (15) 
-25.9904

>  <r_i_glide_ecoul>  (15) 
-3.70408

>  <r_i_glide_erotb>  (15) 
0.468389

>  <r_i_glide_esite>  (15) 
-0.000766999

>  <r_i_glide_emodel>  (15) 
-35.3019

>  <r_i_glide_energy>  (15) 
-29.6945

>  <r_i_glide_einternal>  (15) 
3.82023

>  <r_i_glide_intrahb_reward>  (15) 
-0

>  <i_i_glide_confnum>  (15) 
4

>  <i_i_glide_posenum>  (15) 
5

>  <r_i_glide_eff_state_penalty>  (15) 
0

>  <ligand_id>  (15) 
2

>  <original_smiles>  (15) 
Cc1[nH]n(C)c(=O)c1C1=NOC(C)(c2nnnn2C)C1

>  <smiles>  (15) 
[H]Oc1c(C2=NOC(c3nnnn3C([H])([H])[H])(C([H])([H])[H])C2([H])[H])c(C([H])([H])[H])nn1C([H])([H])[H]

$$$$
2:1:0
     RDKit          3D

 34 36  0  0  1  0  0  0  0  0999 V2000
   -2.1786    3.1198    7.6703 C   0  0  0  0  0  0  0  0  0  0  0  0
   -1.9835    2.6648    6.2490 C   0  0  0  0  0  0  0  0  0  0  0  0
   -2.6108    3.3461    5.3032 N   0  0  0  0  0  0  0  0  0  0  0  0
   -2.2722    2.7545    4.1455 N   0  0  0  0  0  0  0  0  0  0  0  0
   -2.7990    3.2762    2.8974 C   0  0  0  0  0  0  0  0  0  0  0  0
   -1.4293    1.6917    4.3815 C   0  0  0  0  0  0  0  0  0  0  0  0
   -0.9856    0.9292    3.3640 O   0  0  0  0  0  0  0  0  0  0  0  0
   -1.1895    1.5916    5.7271 C   0  0  0  0  0  0  0  0  0  0  0  0
   -0.3368    0.6232    6.4496 C   0  0  0  0  0  0  0  0  0  0  0  0
   -0.4302    0.3873    7.6848 N   0  0  0  0  0  0  0  0  0  0  0  0
    0.5041   -0.6040    8.0689 O   0  0  0  0  0  0  0  0  0  0  0  0
    1.0627   -1.2048    6.8987 C   0  0  1  0  0  0  0  0  0  0  0  0
    2.5746   -1.3411    7.1481 C   0  0  0  0  0  0  0  0  0  0  0  0
    0.3718   -2.5408    6.7116 C   0  0  0  0  0  0  0  0  0  0  0  0
   -0.5626   -3.0475    7.5122 N   0  0  0  0  0  0  0  0  0  0  0  0
   -0.8782   -4.2635    6.9506 N   0  0  0  0  0  0  0  0  0  0  0  0
   -0.1754   -4.4760    5.8787 N   0  0  0  0  0  0  0  0  0  0  0  0
    0.6194   -3.3940    5.7041 N   0  0  0  0  0  0  0  0  0  0  0  0
    1.5413   -3.3529    4.5854 C   0  0  0  0  0  0  0  0  0  0  0  0
    0.7344   -0.1873    5.8149 C   0  0  0  0  0  0  0  0  0  0  0  0
   -2.0325    2.3147    8.3867 H   0  0  0  0  0  0  0  0  0  0  0  0
   -3.1872    3.5023    7.8275 H   0  0  0  0  0  0  0  0  0  0  0  0
   -1.4788    3.9167    7.9184 H   0  0  0  0  0  0  0  0  0  0  0  0
   -2.6495    2.5607    2.0893 H   0  0  0  0  0  0  0  0  0  0  0  0
   -2.2839    4.2029    2.6467 H   0  0  0  0  0  0  0  0  0  0  0  0
   -3.8672    3.4676    2.9950 H   0  0  0  0  0  0  0  0  0  0  0  0
    3.0926   -1.7462    6.2799 H   0  0  0  0  0  0  0  0  0  0  0  0
    2.7819   -1.9898    7.9986 H   0  0  0  0  0  0  0  0  0  0  0  0
    3.0213   -0.3688    7.3587 H   0  0  0  0  0  0  0  0  0  0  0  0
    1.9018   -2.3420    4.4060 H   0  0  0  0  0  0  0  0  0  0  0  0
    1.0394   -3.7047    3.6836 H   0  0  0  0  0  0  0  0  0  0  0  0
    2.3902   -4.0042    4.7968 H   0  0  0  0  0  0  0  0  0  0  0  0
    0.4125   -0.6422    4.8796 H   0  0  0  0  0  0  0  0  0  0  0  0
    1.5745    0.4795    5.6137 H   0  0  0  0  0  0  0  0  0  0  0  0
  1  2  1  0
  1 21  1  0
  1 22  1  0
  1 23  1  0
  2  8  1  0
  2  3  2  0
  3  4  1  0
  4  5  1  0
  4  6  1  0
  5 24  1  0
  5 25  1  0
  5 26  1  0
  6  7  1  0
  6  8  2  0
  8  9  1  0
  9 20  1  0
  9 10  2  0
 10 11  1  0
 11 12  1  0
 12 13  1  1
 12 14  1  0
 12 20  1  0
 13 27  1  0
 13 28  1  0
 13 29  1  0
 14 18  1  0
 14 15  2  0
 15 16  1  0
 16 17  2  0
 17 18  1  0
 18 19  1  0
 19 30  1  0
 19 31  1  0
 19 32  1  0
 20 33  1  0
 20 34  1  0
M  CHG  1   7  -1
M  END
>  <i_m_ct_stereo_status>  (16) 
1

>  <s_m_source_file>  (16) 
/var/tmp/pbs.5076255.sched01/tmpikn618da/06v91y69d.sdf

>  <i_m_source_file_index>  (16) 
7

>  <i_lp_mmshare_version>  (16) 
48012

>  <i_f3d_flags>  (16) 
0

>  <s_epik_input>  (16) 
W0NIM11jMVtuSF1uKFtDSDNdKWMoPU8pYzFDKFtDSDJdMik9Tk9bQ0BAXTIoW0NIM10pYzNubm5uM1tDSDNd

>  <s_epik_cmdline>  (16) 
J2VwaWtfcHl0aG9uJywgJy1waHQnLCAnMi4wJywgJy1waCcsICc3LjAnLCAnLXRuJywgJzgnLCAnLW1hJywgJzIwMCcsICctaW1hZScsICc8aW5maWxlLm1hZT4nLCAnLW9tYWUnLCAnPG91dGZpbGUubWFlPic=

>  <r_lp_tautomer_probability>  (16) 
1

>  <r_epik_Ionization_Penalty>  (16) 
1.50356

>  <r_epik_Ionization_Penalty_Charging>  (16) 
1.23119

>  <r_epik_Ionization_Penalty_Neutral>  (16) 
0.27237

>  <r_epik_State_Penalty>  (16) 
1.33541

>  <r_epik_Charging_Adjusted_Penalty>  (16) 
2.5666

>  <i_epik_Tot_Q>  (16) 
-1

>  <i_epik_Tot_abs_Q>  (16) 
1

>  <s_epik_Chemistry_Notes>  (16) 
This compound has an imine and may undergo hydrolysis.

>  <s_lp_Force_Field>  (16) 
OPLS3e

>  <r_lp_Energy>  (16) 
-4.5824

>  <b_lp_Chiralities_Consistent>  (16) 
1

>  <s_lp_Variant>  (16) 
2:0-2

>  <s_i_glide_gridfile>  (16) 
pfpi4k_grid

>  <i_i_glide_lignum>  (16) 
7

>  <i_i_glide_rotatable_bonds>  (16) 
2

>  <r_i_docking_score>  (16) 
-3.13195

>  <r_i_glide_ligand_efficiency>  (16) 
-0.156597

>  <r_i_glide_ligand_efficiency_sa>  (16) 
-0.425071

>  <r_i_glide_ligand_efficiency_ln>  (16) 
-0.783823

>  <r_i_glide_gscore>  (16) 
-3.13195

>  <r_i_glide_lipo>  (16) 
-0.153258

>  <r_i_glide_hbond>  (16) 
0

>  <r_i_glide_metal>  (16) 
-0

>  <r_i_glide_rewards>  (16) 
-1.5254

>  <r_i_glide_evdw>  (16) 
-17.2778

>  <r_i_glide_ecoul>  (16) 
-5.29906

>  <r_i_glide_erotb>  (16) 
0.471357

>  <r_i_glide_esite>  (16) 
-0.265895

>  <r_i_glide_emodel>  (16) 
-28.5102

>  <r_i_glide_energy>  (16) 
-22.5769

>  <r_i_glide_einternal>  (16) 
1.12529

>  <r_i_glide_intrahb_reward>  (16) 
-0

>  <i_i_glide_confnum>  (16) 
4

>  <i_i_glide_posenum>  (16) 
4

>  <r_i_glide_eff_state_penalty>  (16) 
0

>  <ligand_id>  (16) 
2

>  <original_smiles>  (16) 
Cc1[nH]n(C)c(=O)c1C1=NOC(C)(c2nnnn2C)C1

>  <smiles>  (16) 
[H]C([H])([H])c1nn(C([H])([H])[H])c([O-])c1C1=NOC(c2nnnn2C([H])([H])[H])(C([H])([H])[H])C1([H])[H]

$$$$
2:1:1
     RDKit          3D

 34 36  0  0  1  0  0  0  0  0999 V2000
    5.6417   -7.6139    2.1260 C   0  0  0  0  0  0  0  0  0  0  0  0
    4.1567   -7.4830    1.9460 C   0  0  0  0  0  0  0  0  0  0  0  0
    3.4086   -8.5528    2.1782 N   0  0  0  0  0  0  0  0  0  0  0  0
    2.1436   -8.1606    1.9392 N   0  0  0  0  0  0  0  0  0  0  0  0
    1.0691   -9.1136    2.1392 C   0  0  0  0  0  0  0  0  0  0  0  0
    2.1158   -6.8430    1.5432 C   0  0  0  0  0  0  0  0  0  0  0  0
    0.9298   -6.2552    1.2235 O   0  0  0  0  0  0  0  0  0  0  0  0
    3.3872   -6.3359    1.5489 C   0  0  0  0  0  0  0  0  0  0  0  0
    3.8559   -4.9639    1.2425 C   0  0  0  0  0  0  0  0  0  0  0  0
    5.0236   -4.5272    1.4244 N   0  0  0  0  0  0  0  0  0  0  0  0
    5.1169   -3.1902    0.9645 O   0  0  0  0  0  0  0  0  0  0  0  0
    3.9778   -2.8906    0.1514 C   0  0  1  0  0  0  0  0  0  0  0  0
    3.5430   -1.4675    0.5414 C   0  0  0  0  0  0  0  0  0  0  0  0
    4.4181   -2.9893   -1.2944 C   0  0  0  0  0  0  0  0  0  0  0  0
    5.6831   -2.9876   -1.7012 N   0  0  0  0  0  0  0  0  0  0  0  0
    5.6096   -3.0752   -3.0663 N   0  0  0  0  0  0  0  0  0  0  0  0
    4.3745   -3.0910   -3.4635 N   0  0  0  0  0  0  0  0  0  0  0  0
    3.5983   -3.0263   -2.3578 N   0  0  0  0  0  0  0  0  0  0  0  0
    2.1560   -2.9697   -2.5144 C   0  0  0  0  0  0  0  0  0  0  0  0
    2.9873   -3.9632    0.5927 C   0  0  0  0  0  0  0  0  0  0  0  0
    6.1946   -6.9065    1.5097 H   0  0  0  0  0  0  0  0  0  0  0  0
    5.9826   -8.6112    1.8523 H   0  0  0  0  0  0  0  0  0  0  0  0
    5.9167   -7.4423    3.1644 H   0  0  0  0  0  0  0  0  0  0  0  0
    0.1512   -8.7450    1.6875 H   0  0  0  0  0  0  0  0  0  0  0  0
    0.9057   -9.2636    3.2064 H   0  0  0  0  0  0  0  0  0  0  0  0
    1.3344  -10.0656    1.6804 H   0  0  0  0  0  0  0  0  0  0  0  0
    2.6461   -1.1652    0.0068 H   0  0  0  0  0  0  0  0  0  0  0  0
    4.3238   -0.7327    0.3418 H   0  0  0  0  0  0  0  0  0  0  0  0
    3.3091   -1.4130    1.6046 H   0  0  0  0  0  0  0  0  0  0  0  0
    1.6131   -3.1150   -1.5833 H   0  0  0  0  0  0  0  0  0  0  0  0
    1.8397   -3.7304   -3.2303 H   0  0  0  0  0  0  0  0  0  0  0  0
    1.8790   -1.9835   -2.8809 H   0  0  0  0  0  0  0  0  0  0  0  0
    2.4514   -4.4753   -0.2038 H   0  0  0  0  0  0  0  0  0  0  0  0
    2.2779   -3.5801    1.3277 H   0  0  0  0  0  0  0  0  0  0  0  0
  1  2  1  0
  1 21  1  0
  1 22  1  0
  1 23  1  0
  2  8  1  0
  2  3  2  0
  3  4  1  0
  4  5  1  0
  4  6  1  0
  5 24  1  0
  5 25  1  0
  5 26  1  0
  6  7  1  0
  6  8  2  0
  8  9  1  0
  9 20  1  0
  9 10  2  0
 10 11  1  0
 11 12  1  0
 12 13  1  1
 12 14  1  0
 12 20  1  0
 13 27  1  0
 13 28  1  0
 13 29  1  0
 14 18  1  0
 14 15  2  0
 15 16  1  0
 16 17  2  0
 17 18  1  0
 18 19  1  0
 19 30  1  0
 19 31  1  0
 19 32  1  0
 20 33  1  0
 20 34  1  0
M  CHG  1   7  -1
M  END
>  <i_m_ct_stereo_status>  (17) 
1

>  <s_m_source_file>  (17) 
/var/tmp/pbs.5076255.sched01/tmpikn618da/06v91y69d.sdf

>  <i_m_source_file_index>  (17) 
7

>  <i_lp_mmshare_version>  (17) 
48012

>  <i_f3d_flags>  (17) 
0

>  <s_epik_input>  (17) 
W0NIM11jMVtuSF1uKFtDSDNdKWMoPU8pYzFDKFtDSDJdMik9Tk9bQ0BAXTIoW0NIM10pYzNubm5uM1tDSDNd

>  <s_epik_cmdline>  (17) 
J2VwaWtfcHl0aG9uJywgJy1waHQnLCAnMi4wJywgJy1waCcsICc3LjAnLCAnLXRuJywgJzgnLCAnLW1hJywgJzIwMCcsICctaW1hZScsICc8aW5maWxlLm1hZT4nLCAnLW9tYWUnLCAnPG91dGZpbGUubWFlPic=

>  <r_lp_tautomer_probability>  (17) 
1

>  <r_epik_Ionization_Penalty>  (17) 
1.50356

>  <r_epik_Ionization_Penalty_Charging>  (17) 
1.23119

>  <r_epik_Ionization_Penalty_Neutral>  (17) 
0.27237

>  <r_epik_State_Penalty>  (17) 
1.33541

>  <r_epik_Charging_Adjusted_Penalty>  (17) 
2.5666

>  <i_epik_Tot_Q>  (17) 
-1

>  <i_epik_Tot_abs_Q>  (17) 
1

>  <s_epik_Chemistry_Notes>  (17) 
This compound has an imine and may undergo hydrolysis.

>  <s_lp_Force_Field>  (17) 
OPLS3e

>  <r_lp_Energy>  (17) 
-4.5824

>  <b_lp_Chiralities_Consistent>  (17) 
1

>  <s_lp_Variant>  (17) 
2:0-2

>  <s_i_glide_gridfile>  (17) 
pfpi4k_grid

>  <i_i_glide_lignum>  (17) 
7

>  <i_i_glide_rotatable_bonds>  (17) 
2

>  <r_i_docking_score>  (17) 
-3.01445

>  <r_i_glide_ligand_efficiency>  (17) 
-0.150722

>  <r_i_glide_ligand_efficiency_sa>  (17) 
-0.409123

>  <r_i_glide_ligand_efficiency_ln>  (17) 
-0.754416

>  <r_i_glide_gscore>  (17) 
-3.01445

>  <r_i_glide_lipo>  (17) 
-0.19922

>  <r_i_glide_hbond>  (17) 
-0.2

>  <r_i_glide_metal>  (17) 
-0

>  <r_i_glide_rewards>  (17) 
-1.54712

>  <r_i_glide_evdw>  (17) 
-24.4258

>  <r_i_glide_ecoul>  (17) 
-1.79297

>  <r_i_glide_erotb>  (17) 
0.471357

>  <r_i_glide_esite>  (17) 
-0.0492325

>  <r_i_glide_emodel>  (17) 
-31.459

>  <r_i_glide_energy>  (17) 
-26.2187

>  <r_i_glide_einternal>  (17) 
1.2585

>  <r_i_glide_intrahb_reward>  (17) 
-0

>  <i_i_glide_confnum>  (17) 
4

>  <i_i_glide_posenum>  (17) 
3

>  <r_i_glide_eff_state_penalty>  (17) 
0

>  <ligand_id>  (17) 
2

>  <original_smiles>  (17) 
Cc1[nH]n(C)c(=O)c1C1=NOC(C)(c2nnnn2C)C1

>  <smiles>  (17) 
[H]C([H])([H])c1nn(C([H])([H])[H])c([O-])c1C1=NOC(c2nnnn2C([H])([H])[H])(C([H])([H])[H])C1([H])[H]

$$$$
2:1:2
     RDKit          3D

 34 36  0  0  1  0  0  0  0  0999 V2000
    4.5193   -6.1333    3.9449 C   0  0  0  0  0  0  0  0  0  0  0  0
    3.3597   -6.3076    3.0022 C   0  0  0  0  0  0  0  0  0  0  0  0
    2.5406   -7.3278    3.2236 N   0  0  0  0  0  0  0  0  0  0  0  0
    1.6100   -7.2548    2.2589 N   0  0  0  0  0  0  0  0  0  0  0  0
    0.5473   -8.2420    2.2287 C   0  0  0  0  0  0  0  0  0  0  0  0
    1.8601   -6.1844    1.4333 C   0  0  0  0  0  0  0  0  0  0  0  0
    1.0588   -5.9559    0.3748 O   0  0  0  0  0  0  0  0  0  0  0  0
    2.9791   -5.5128    1.8810 C   0  0  0  0  0  0  0  0  0  0  0  0
    3.6277   -4.2933    1.3454 C   0  0  0  0  0  0  0  0  0  0  0  0
    4.8311   -3.9570    1.5466 N   0  0  0  0  0  0  0  0  0  0  0  0
    5.1159   -2.7470    0.8662 O   0  0  0  0  0  0  0  0  0  0  0  0
    4.0554   -2.4614   -0.0543 C   0  0  1  0  0  0  0  0  0  0  0  0
    3.8036   -0.9545    0.0505 C   0  0  0  0  0  0  0  0  0  0  0  0
    4.5317   -2.8674   -1.4380 C   0  0  0  0  0  0  0  0  0  0  0  0
    5.8030   -3.0902   -1.7535 N   0  0  0  0  0  0  0  0  0  0  0  0
    5.7655   -3.4237   -3.0886 N   0  0  0  0  0  0  0  0  0  0  0  0
    4.5591   -3.3749   -3.5528 N   0  0  0  0  0  0  0  0  0  0  0  0
    3.7518   -3.0155   -2.5227 N   0  0  0  0  0  0  0  0  0  0  0  0
    2.3364   -2.8101   -2.7758 C   0  0  0  0  0  0  0  0  0  0  0  0
    2.9173   -3.3162    0.4942 C   0  0  0  0  0  0  0  0  0  0  0  0
    5.3498   -5.6038    3.4829 H   0  0  0  0  0  0  0  0  0  0  0  0
    4.9028   -7.0959    4.2799 H   0  0  0  0  0  0  0  0  0  0  0  0
    4.2127   -5.5701    4.8233 H   0  0  0  0  0  0  0  0  0  0  0  0
    0.0144   -8.2043    1.2797 H   0  0  0  0  0  0  0  0  0  0  0  0
   -0.1552   -8.0437    3.0382 H   0  0  0  0  0  0  0  0  0  0  0  0
    0.9705   -9.2394    2.3541 H   0  0  0  0  0  0  0  0  0  0  0  0
    2.9938   -0.6655   -0.6155 H   0  0  0  0  0  0  0  0  0  0  0  0
    4.6808   -0.3670   -0.2212 H   0  0  0  0  0  0  0  0  0  0  0  0
    3.5193   -0.6788    1.0658 H   0  0  0  0  0  0  0  0  0  0  0  0
    1.7569   -2.7355   -1.8594 H   0  0  0  0  0  0  0  0  0  0  0  0
    1.9568   -3.6454   -3.3665 H   0  0  0  0  0  0  0  0  0  0  0  0
    2.2128   -1.8793   -3.3343 H   0  0  0  0  0  0  0  0  0  0  0  0
    2.3522   -3.8568   -0.2592 H   0  0  0  0  0  0  0  0  0  0  0  0
    2.2341   -2.7278    1.1181 H   0  0  0  0  0  0  0  0  0  0  0  0
  1  2  1  0
  1 21  1  0
  1 22  1  0
  1 23  1  0
  2  8  1  0
  2  3  2  0
  3  4  1  0
  4  5  1  0
  4  6  1  0
  5 24  1  0
  5 25  1  0
  5 26  1  0
  6  7  1  0
  6  8  2  0
  8  9  1  0
  9 20  1  0
  9 10  2  0
 10 11  1  0
 11 12  1  0
 12 13  1  6
 12 14  1  0
 12 20  1  0
 13 27  1  0
 13 28  1  0
 13 29  1  0
 14 18  1  0
 14 15  2  0
 15 16  1  0
 16 17  2  0
 17 18  1  0
 18 19  1  0
 19 30  1  0
 19 31  1  0
 19 32  1  0
 20 33  1  0
 20 34  1  0
M  CHG  1   7  -1
M  END
>  <i_m_ct_stereo_status>  (18) 
1

>  <s_m_source_file>  (18) 
/var/tmp/pbs.5076255.sched01/tmpikn618da/06v91y69d.sdf

>  <i_m_source_file_index>  (18) 
7

>  <i_lp_mmshare_version>  (18) 
48012

>  <i_f3d_flags>  (18) 
0

>  <s_epik_input>  (18) 
W0NIM11jMVtuSF1uKFtDSDNdKWMoPU8pYzFDKFtDSDJdMik9Tk9bQ0BAXTIoW0NIM10pYzNubm5uM1tDSDNd

>  <s_epik_cmdline>  (18) 
J2VwaWtfcHl0aG9uJywgJy1waHQnLCAnMi4wJywgJy1waCcsICc3LjAnLCAnLXRuJywgJzgnLCAnLW1hJywgJzIwMCcsICctaW1hZScsICc8aW5maWxlLm1hZT4nLCAnLW9tYWUnLCAnPG91dGZpbGUubWFlPic=

>  <r_lp_tautomer_probability>  (18) 
1

>  <r_epik_Ionization_Penalty>  (18) 
1.50356

>  <r_epik_Ionization_Penalty_Charging>  (18) 
1.23119

>  <r_epik_Ionization_Penalty_Neutral>  (18) 
0.27237

>  <r_epik_State_Penalty>  (18) 
1.33541

>  <r_epik_Charging_Adjusted_Penalty>  (18) 
2.5666

>  <i_epik_Tot_Q>  (18) 
-1

>  <i_epik_Tot_abs_Q>  (18) 
1

>  <s_epik_Chemistry_Notes>  (18) 
This compound has an imine and may undergo hydrolysis.

>  <s_lp_Force_Field>  (18) 
OPLS3e

>  <r_lp_Energy>  (18) 
-4.5824

>  <b_lp_Chiralities_Consistent>  (18) 
1

>  <s_lp_Variant>  (18) 
2:0-2

>  <s_i_glide_gridfile>  (18) 
pfpi4k_grid

>  <i_i_glide_lignum>  (18) 
7

>  <i_i_glide_rotatable_bonds>  (18) 
2

>  <r_i_docking_score>  (18) 
-2.74519

>  <r_i_glide_ligand_efficiency>  (18) 
-0.13726

>  <r_i_glide_ligand_efficiency_sa>  (18) 
-0.37258

>  <r_i_glide_ligand_efficiency_ln>  (18) 
-0.687031

>  <r_i_glide_gscore>  (18) 
-2.74519

>  <r_i_glide_lipo>  (18) 
-0.0211362

>  <r_i_glide_hbond>  (18) 
-0.218736

>  <r_i_glide_metal>  (18) 
-0

>  <r_i_glide_rewards>  (18) 
-1.53665

>  <r_i_glide_evdw>  (18) 
-23.3046

>  <r_i_glide_ecoul>  (18) 
-1.44993

>  <r_i_glide_erotb>  (18) 
0.471357

>  <r_i_glide_esite>  (18) 
-0.0573092

>  <r_i_glide_emodel>  (18) 
-29.1239

>  <r_i_glide_energy>  (18) 
-24.7545

>  <r_i_glide_einternal>  (18) 
1.59522

>  <r_i_glide_intrahb_reward>  (18) 
-0

>  <i_i_glide_confnum>  (18) 
4

>  <i_i_glide_posenum>  (18) 
8

>  <r_i_glide_eff_state_penalty>  (18) 
0

>  <ligand_id>  (18) 
2

>  <original_smiles>  (18) 
Cc1[nH]n(C)c(=O)c1C1=NOC(C)(c2nnnn2C)C1

>  <smiles>  (18) 
[H]C([H])([H])c1nn(C([H])([H])[H])c([O-])c1C1=NOC(c2nnnn2C([H])([H])[H])(C([H])([H])[H])C1([H])[H]

$$$$
2:2:0
     RDKit          3D

 35 37  0  0  1  0  0  0  0  0999 V2000
    1.1865   -8.6972    6.1936 C   0  0  0  0  0  0  0  0  0  0  0  0
    0.5265   -8.3084    4.8851 C   0  0  0  0  0  0  0  0  0  0  0  0
   -0.2140   -9.2639    4.2471 N   0  0  0  0  0  0  0  0  0  0  0  0
   -0.6913   -8.7137    3.0846 N   0  0  0  0  0  0  0  0  0  0  0  0
   -1.4686   -9.5014    2.1493 C   0  0  0  0  0  0  0  0  0  0  0  0
   -0.2916   -7.4350    2.9732 C   0  0  0  0  0  0  0  0  0  0  0  0
   -0.5888   -6.6709    2.0491 O   0  0  0  0  0  0  0  0  0  0  0  0
    0.5063   -7.1578    4.1747 C   0  0  0  0  0  0  0  0  0  0  0  0
    1.1618   -5.8558    4.4567 C   0  0  0  0  0  0  0  0  0  0  0  0
    1.1482   -4.8900    3.6399 N   0  0  0  0  0  0  0  0  0  0  0  0
    1.9289   -3.8262    4.1312 O   0  0  0  0  0  0  0  0  0  0  0  0
    2.1611   -4.0148    5.5120 C   0  0  1  0  0  0  0  0  0  0  0  0
    3.6329   -3.6453    5.7039 C   0  0  0  0  0  0  0  0  0  0  0  0
    1.2315   -3.1083    6.2919 C   0  0  0  0  0  0  0  0  0  0  0  0
    1.1281   -3.1701    7.6190 N   0  0  0  0  0  0  0  0  0  0  0  0
    0.2498   -2.1610    7.9407 N   0  0  0  0  0  0  0  0  0  0  0  0
   -0.1598   -1.5382    6.8819 N   0  0  0  0  0  0  0  0  0  0  0  0
    0.4586   -2.1094    5.8183 N   0  0  0  0  0  0  0  0  0  0  0  0
    0.1673   -1.5692    4.4915 C   0  0  0  0  0  0  0  0  0  0  0  0
    1.8892   -5.5069    5.7078 C   0  0  0  0  0  0  0  0  0  0  0  0
   -0.8306   -9.8875    4.7778 H   0  0  0  0  0  0  0  0  0  0  0  0
    1.7912   -7.9090    6.6214 H   0  0  0  0  0  0  0  0  0  0  0  0
    1.8521   -9.5456    6.0211 H   0  0  0  0  0  0  0  0  0  0  0  0
    0.4419   -9.0023    6.9307 H   0  0  0  0  0  0  0  0  0  0  0  0
   -1.7684   -8.9084    1.2853 H   0  0  0  0  0  0  0  0  0  0  0  0
   -2.3707   -9.8595    2.6380 H   0  0  0  0  0  0  0  0  0  0  0  0
   -0.8981  -10.3591    1.7945 H   0  0  0  0  0  0  0  0  0  0  0  0
    3.9645   -3.8356    6.7257 H   0  0  0  0  0  0  0  0  0  0  0  0
    3.7900   -2.5911    5.4612 H   0  0  0  0  0  0  0  0  0  0  0  0
    4.2493   -4.2355    5.0204 H   0  0  0  0  0  0  0  0  0  0  0  0
    0.9236   -1.8185    3.7517 H   0  0  0  0  0  0  0  0  0  0  0  0
    0.1254   -0.4782    4.5505 H   0  0  0  0  0  0  0  0  0  0  0  0
   -0.8060   -1.9485    4.1676 H   0  0  0  0  0  0  0  0  0  0  0  0
    1.2888   -5.7114    6.5960 H   0  0  0  0  0  0  0  0  0  0  0  0
    2.8206   -6.0748    5.7385 H   0  0  0  0  0  0  0  0  0  0  0  0
  1  2  1  0
  1 22  1  0
  1 23  1  0
  1 24  1  0
  2  8  2  0
  2  3  1  0
  3 21  1  0
  3  4  1  0
  4  5  1  0
  4  6  1  0
  5 25  1  0
  5 26  1  0
  5 27  1  0
  6  7  2  0
  6  8  1  0
  8  9  1  0
  9 20  1  0
  9 10  2  0
 10 11  1  0
 11 12  1  0
 12 13  1  6
 12 14  1  0
 12 20  1  0
 13 28  1  0
 13 29  1  0
 13 30  1  0
 14 18  1  0
 14 15  2  0
 15 16  1  0
 16 17  2  0
 17 18  1  0
 18 19  1  0
 19 31  1  0
 19 32  1  0
 19 33  1  0
 20 34  1  0
 20 35  1  0
M  END
>  <i_m_ct_stereo_status>  (19) 
1

>  <s_m_source_file>  (19) 
/var/tmp/pbs.5076255.sched01/tmpikn618da/06v91y69d.sdf

>  <i_m_source_file_index>  (19) 
8

>  <i_lp_mmshare_version>  (19) 
48012

>  <i_f3d_flags>  (19) 
0

>  <s_epik_input>  (19) 
W0NIM11jMVtuSF1uKFtDSDNdKWMoPU8pYzFDKFtDSDJdMik9Tk9bQ0BAXTIoW0NIM10pYzNubm5uM1tDSDNd

>  <s_epik_cmdline>  (19) 
J2VwaWtfcHl0aG9uJywgJy1waHQnLCAnMi4wJywgJy1waCcsICc3LjAnLCAnLXRuJywgJzgnLCAnLW1hJywgJzIwMCcsICctaW1hZScsICc8aW5maWxlLm1hZT4nLCAnLW9tYWUnLCAnPG91dGZpbGUubWFlPic=

>  <r_epik_Ionization_Penalty>  (19) 
0.591441

>  <r_epik_Ionization_Penalty_Charging>  (19) 
0.591441

>  <r_epik_Ionization_Penalty_Neutral>  (19) 
2.58728e-09

>  <r_epik_State_Penalty>  (19) 
1.67589

>  <r_epik_Charging_Adjusted_Penalty>  (19) 
2.26733

>  <i_epik_Tot_Q>  (19) 
0

>  <i_epik_Tot_abs_Q>  (19) 
0

>  <s_epik_Chemistry_Notes>  (19) 
This compound has an imine and may undergo hydrolysis.

>  <s_lp_Force_Field>  (19) 
OPLS3e

>  <r_lp_Energy>  (19) 
-12.0388

>  <b_lp_Chiralities_Consistent>  (19) 
1

>  <s_lp_Variant>  (19) 
2:0-3

>  <s_i_glide_gridfile>  (19) 
pfpi4k_grid

>  <i_i_glide_lignum>  (19) 
8

>  <i_i_glide_rotatable_bonds>  (19) 
2

>  <r_i_docking_score>  (19) 
-3.93674

>  <r_i_glide_ligand_efficiency>  (19) 
-0.196837

>  <r_i_glide_ligand_efficiency_sa>  (19) 
-0.534298

>  <r_i_glide_ligand_efficiency_ln>  (19) 
-0.985237

>  <r_i_glide_gscore>  (19) 
-3.93674

>  <r_i_glide_lipo>  (19) 
-0.201363

>  <r_i_glide_hbond>  (19) 
-0.32

>  <r_i_glide_metal>  (19) 
-0

>  <r_i_glide_rewards>  (19) 
-1.51853

>  <r_i_glide_evdw>  (19) 
-17.2674

>  <r_i_glide_ecoul>  (19) 
-8.25698

>  <r_i_glide_erotb>  (19) 
0.468389

>  <r_i_glide_esite>  (19) 
-0.263323

>  <r_i_glide_emodel>  (19) 
-33.4521

>  <r_i_glide_energy>  (19) 
-25.5244

>  <r_i_glide_einternal>  (19) 
0.350614

>  <r_i_glide_intrahb_reward>  (19) 
-0

>  <i_i_glide_confnum>  (19) 
5

>  <i_i_glide_posenum>  (19) 
2

>  <r_i_glide_eff_state_penalty>  (19) 
0

>  <ligand_id>  (19) 
2

>  <original_smiles>  (19) 
Cc1[nH]n(C)c(=O)c1C1=NOC(C)(c2nnnn2C)C1

>  <smiles>  (19) 
[H]n1c(C([H])([H])[H])c(C2=NOC(c3nnnn3C([H])([H])[H])(C([H])([H])[H])C2([H])[H])c(=O)n1C([H])([H])[H]

$$$$
2:2:1
     RDKit          3D

 35 37  0  0  1  0  0  0  0  0999 V2000
    5.4535   -7.4770    2.8550 C   0  0  0  0  0  0  0  0  0  0  0  0
    4.0086   -7.3468    2.4013 C   0  0  0  0  0  0  0  0  0  0  0  0
    3.1499   -8.3702    2.6752 N   0  0  0  0  0  0  0  0  0  0  0  0
    1.9207   -8.0341    2.1637 N   0  0  0  0  0  0  0  0  0  0  0  0
    0.8347   -9.0008    2.2197 C   0  0  0  0  0  0  0  0  0  0  0  0
    1.9741   -6.8170    1.6026 C   0  0  0  0  0  0  0  0  0  0  0  0
    1.0117   -6.2479    1.0672 O   0  0  0  0  0  0  0  0  0  0  0  0
    3.3532   -6.3488    1.7651 C   0  0  0  0  0  0  0  0  0  0  0  0
    3.8834   -5.0358    1.3086 C   0  0  0  0  0  0  0  0  0  0  0  0
    5.0582   -4.6063    1.4879 N   0  0  0  0  0  0  0  0  0  0  0  0
    5.2037   -3.3114    0.9378 O   0  0  0  0  0  0  0  0  0  0  0  0
    4.0563   -2.9982    0.1460 C   0  0  1  0  0  0  0  0  0  0  0  0
    3.6546   -1.5822    0.5705 C   0  0  0  0  0  0  0  0  0  0  0  0
    4.4801   -3.0853   -1.3046 C   0  0  0  0  0  0  0  0  0  0  0  0
    5.7382   -3.1772   -1.7160 N   0  0  0  0  0  0  0  0  0  0  0  0
    5.6457   -3.2145   -3.0845 N   0  0  0  0  0  0  0  0  0  0  0  0
    4.4117   -3.1184   -3.4716 N   0  0  0  0  0  0  0  0  0  0  0  0
    3.6568   -3.0309   -2.3505 N   0  0  0  0  0  0  0  0  0  0  0  0
    2.2176   -2.8711   -2.4818 C   0  0  0  0  0  0  0  0  0  0  0  0
    3.0536   -4.0634    0.5589 C   0  0  0  0  0  0  0  0  0  0  0  0
    3.2193   -8.8227    3.5795 H   0  0  0  0  0  0  0  0  0  0  0  0
    6.0721   -6.6231    2.5896 H   0  0  0  0  0  0  0  0  0  0  0  0
    5.9087   -8.3509    2.3846 H   0  0  0  0  0  0  0  0  0  0  0  0
    5.5140   -7.6125    3.9354 H   0  0  0  0  0  0  0  0  0  0  0  0
   -0.0750   -8.6067    1.7643 H   0  0  0  0  0  0  0  0  0  0  0  0
    0.6225   -9.2587    3.2566 H   0  0  0  0  0  0  0  0  0  0  0  0
    1.1100   -9.9214    1.6983 H   0  0  0  0  0  0  0  0  0  0  0  0
    2.7589   -1.2420    0.0534 H   0  0  0  0  0  0  0  0  0  0  0  0
    4.4576   -0.8711    0.3767 H   0  0  0  0  0  0  0  0  0  0  0  0
    3.4426   -1.5501    1.6405 H   0  0  0  0  0  0  0  0  0  0  0  0
    1.7008   -3.0477   -1.5412 H   0  0  0  0  0  0  0  0  0  0  0  0
    1.8388   -3.5699   -3.2245 H   0  0  0  0  0  0  0  0  0  0  0  0
    2.0094   -1.8537   -2.7992 H   0  0  0  0  0  0  0  0  0  0  0  0
    2.5770   -4.5809   -0.2719 H   0  0  0  0  0  0  0  0  0  0  0  0
    2.2815   -3.6596    1.2183 H   0  0  0  0  0  0  0  0  0  0  0  0
  1  2  1  0
  1 22  1  0
  1 23  1  0
  1 24  1  0
  2  8  2  0
  2  3  1  0
  3 21  1  0
  3  4  1  0
  4  5  1  0
  4  6  1  0
  5 25  1  0
  5 26  1  0
  5 27  1  0
  6  7  2  0
  6  8  1  0
  8  9  1  0
  9 20  1  0
  9 10  2  0
 10 11  1  0
 11 12  1  0
 12 13  1  1
 12 14  1  0
 12 20  1  0
 13 28  1  0
 13 29  1  0
 13 30  1  0
 14 18  1  0
 14 15  2  0
 15 16  1  0
 16 17  2  0
 17 18  1  0
 18 19  1  0
 19 31  1  0
 19 32  1  0
 19 33  1  0
 20 34  1  0
 20 35  1  0
M  END
>  <i_m_ct_stereo_status>  (20) 
1

>  <s_m_source_file>  (20) 
/var/tmp/pbs.5076255.sched01/tmpikn618da/06v91y69d.sdf

>  <i_m_source_file_index>  (20) 
8

>  <i_lp_mmshare_version>  (20) 
48012

>  <i_f3d_flags>  (20) 
0

>  <s_epik_input>  (20) 
W0NIM11jMVtuSF1uKFtDSDNdKWMoPU8pYzFDKFtDSDJdMik9Tk9bQ0BAXTIoW0NIM10pYzNubm5uM1tDSDNd

>  <s_epik_cmdline>  (20) 
J2VwaWtfcHl0aG9uJywgJy1waHQnLCAnMi4wJywgJy1waCcsICc3LjAnLCAnLXRuJywgJzgnLCAnLW1hJywgJzIwMCcsICctaW1hZScsICc8aW5maWxlLm1hZT4nLCAnLW9tYWUnLCAnPG91dGZpbGUubWFlPic=

>  <r_epik_Ionization_Penalty>  (20) 
0.591441

>  <r_epik_Ionization_Penalty_Charging>  (20) 
0.591441

>  <r_epik_Ionization_Penalty_Neutral>  (20) 
2.58728e-09

>  <r_epik_State_Penalty>  (20) 
1.67589

>  <r_epik_Charging_Adjusted_Penalty>  (20) 
2.26733

>  <i_epik_Tot_Q>  (20) 
0

>  <i_epik_Tot_abs_Q>  (20) 
0

>  <s_epik_Chemistry_Notes>  (20) 
This compound has an imine and may undergo hydrolysis.

>  <s_lp_Force_Field>  (20) 
OPLS3e

>  <r_lp_Energy>  (20) 
-12.0388

>  <b_lp_Chiralities_Consistent>  (20) 
1

>  <s_lp_Variant>  (20) 
2:0-3

>  <s_i_glide_gridfile>  (20) 
pfpi4k_grid

>  <i_i_glide_lignum>  (20) 
8

>  <i_i_glide_rotatable_bonds>  (20) 
2

>  <r_i_docking_score>  (20) 
-3.72579

>  <r_i_glide_ligand_efficiency>  (20) 
-0.18629

>  <r_i_glide_ligand_efficiency_sa>  (20) 
-0.505668

>  <r_i_glide_ligand_efficiency_ln>  (20) 
-0.932443

>  <r_i_glide_gscore>  (20) 
-3.72579

>  <r_i_glide_lipo>  (20) 
-0.0475347

>  <r_i_glide_hbond>  (20) 
-0.16

>  <r_i_glide_metal>  (20) 
-0

>  <r_i_glide_rewards>  (20) 
-1.5425

>  <r_i_glide_evdw>  (20) 
-25.4352

>  <r_i_glide_ecoul>  (20) 
-7.47037

>  <r_i_glide_erotb>  (20) 
0.468389

>  <r_i_glide_esite>  (20) 
-0.0518287

>  <r_i_glide_emodel>  (20) 
-38.9538

>  <r_i_glide_energy>  (20) 
-32.9056

>  <r_i_glide_einternal>  (20) 
3.68103

>  <r_i_glide_intrahb_reward>  (20) 
-0

>  <i_i_glide_confnum>  (20) 
4

>  <i_i_glide_posenum>  (20) 
14

>  <r_i_glide_eff_state_penalty>  (20) 
0

>  <ligand_id>  (20) 
2

>  <original_smiles>  (20) 
Cc1[nH]n(C)c(=O)c1C1=NOC(C)(c2nnnn2C)C1

>  <smiles>  (20) 
[H]n1c(C([H])([H])[H])c(C2=NOC(c3nnnn3C([H])([H])[H])(C([H])([H])[H])C2([H])[H])c(=O)n1C([H])([H])[H]

$$$$
2:2:2
     RDKit          3D

 35 37  0  0  1  0  0  0  0  0999 V2000
    1.9790   -0.5685    2.3688 C   0  0  0  0  0  0  0  0  0  0  0  0
    0.8095   -0.4299    3.3313 C   0  0  0  0  0  0  0  0  0  0  0  0
    0.1473    0.7611    3.3256 N   0  0  0  0  0  0  0  0  0  0  0  0
   -0.8657    0.6811    4.2610 N   0  0  0  0  0  0  0  0  0  0  0  0
   -1.6571    1.8495    4.6082 C   0  0  0  0  0  0  0  0  0  0  0  0
   -0.8764   -0.5442    4.8324 C   0  0  0  0  0  0  0  0  0  0  0  0
   -1.6765   -0.9226    5.6867 O   0  0  0  0  0  0  0  0  0  0  0  0
    0.2300   -1.2818    4.2028 C   0  0  0  0  0  0  0  0  0  0  0  0
    0.5504   -2.7089    4.5030 C   0  0  0  0  0  0  0  0  0  0  0  0
   -0.0813   -3.3927    5.3538 N   0  0  0  0  0  0  0  0  0  0  0  0
    0.4588   -4.6924    5.4576 O   0  0  0  0  0  0  0  0  0  0  0  0
    1.3630   -4.9236    4.3909 C   0  0  1  0  0  0  0  0  0  0  0  0
    2.6037   -5.5448    5.0242 C   0  0  0  0  0  0  0  0  0  0  0  0
    0.6986   -5.8665    3.4048 C   0  0  0  0  0  0  0  0  0  0  0  0
    1.0652   -5.9684    2.1319 N   0  0  0  0  0  0  0  0  0  0  0  0
    0.2403   -6.9443    1.6197 N   0  0  0  0  0  0  0  0  0  0  0  0
   -0.5599   -7.4035    2.5268 N   0  0  0  0  0  0  0  0  0  0  0  0
   -0.2607   -6.7582    3.6838 N   0  0  0  0  0  0  0  0  0  0  0  0
   -0.9952   -7.1228    4.8857 C   0  0  0  0  0  0  0  0  0  0  0  0
    1.6119   -3.5207    3.8403 C   0  0  0  0  0  0  0  0  0  0  0  0
    0.0155    1.2540    2.4411 H   0  0  0  0  0  0  0  0  0  0  0  0
    2.4628   -1.5320    2.4172 H   0  0  0  0  0  0  0  0  0  0  0  0
    2.7381    0.1721    2.6191 H   0  0  0  0  0  0  0  0  0  0  0  0
    1.6684   -0.3931    1.3381 H   0  0  0  0  0  0  0  0  0  0  0  0
   -2.3959    1.6218    5.3825 H   0  0  0  0  0  0  0  0  0  0  0  0
   -2.1778    2.1940    3.7140 H   0  0  0  0  0  0  0  0  0  0  0  0
   -1.0232    2.6568    4.9855 H   0  0  0  0  0  0  0  0  0  0  0  0
    3.3925   -5.6980    4.2866 H   0  0  0  0  0  0  0  0  0  0  0  0
    2.3523   -6.5011    5.4903 H   0  0  0  0  0  0  0  0  0  0  0  0
    2.9838   -4.8839    5.8051 H   0  0  0  0  0  0  0  0  0  0  0  0
   -0.4927   -6.8009    5.7981 H   0  0  0  0  0  0  0  0  0  0  0  0
   -1.0875   -8.2087    4.9431 H   0  0  0  0  0  0  0  0  0  0  0  0
   -1.9915   -6.6785    4.8403 H   0  0  0  0  0  0  0  0  0  0  0  0
    1.5365   -3.4898    2.7534 H   0  0  0  0  0  0  0  0  0  0  0  0
    2.5815   -3.1431    4.1665 H   0  0  0  0  0  0  0  0  0  0  0  0
  1  2  1  0
  1 22  1  0
  1 23  1  0
  1 24  1  0
  2  8  2  0
  2  3  1  0
  3 21  1  0
  3  4  1  0
  4  5  1  0
  4  6  1  0
  5 25  1  0
  5 26  1  0
  5 27  1  0
  6  7  2  0
  6  8  1  0
  8  9  1  0
  9 20  1  0
  9 10  2  0
 10 11  1  0
 11 12  1  0
 12 13  1  1
 12 14  1  0
 12 20  1  0
 13 28  1  0
 13 29  1  0
 13 30  1  0
 14 18  1  0
 14 15  2  0
 15 16  1  0
 16 17  2  0
 17 18  1  0
 18 19  1  0
 19 31  1  0
 19 32  1  0
 19 33  1  0
 20 34  1  0
 20 35  1  0
M  END
>  <i_m_ct_stereo_status>  (21) 
1

>  <s_m_source_file>  (21) 
/var/tmp/pbs.5076255.sched01/tmpikn618da/06v91y69d.sdf

>  <i_m_source_file_index>  (21) 
8

>  <i_lp_mmshare_version>  (21) 
48012

>  <i_f3d_flags>  (21) 
0

>  <s_epik_input>  (21) 
W0NIM11jMVtuSF1uKFtDSDNdKWMoPU8pYzFDKFtDSDJdMik9Tk9bQ0BAXTIoW0NIM10pYzNubm5uM1tDSDNd

>  <s_epik_cmdline>  (21) 
J2VwaWtfcHl0aG9uJywgJy1waHQnLCAnMi4wJywgJy1waCcsICc3LjAnLCAnLXRuJywgJzgnLCAnLW1hJywgJzIwMCcsICctaW1hZScsICc8aW5maWxlLm1hZT4nLCAnLW9tYWUnLCAnPG91dGZpbGUubWFlPic=

>  <r_epik_Ionization_Penalty>  (21) 
0.591441

>  <r_epik_Ionization_Penalty_Charging>  (21) 
0.591441

>  <r_epik_Ionization_Penalty_Neutral>  (21) 
2.58728e-09

>  <r_epik_State_Penalty>  (21) 
1.67589

>  <r_epik_Charging_Adjusted_Penalty>  (21) 
2.26733

>  <i_epik_Tot_Q>  (21) 
0

>  <i_epik_Tot_abs_Q>  (21) 
0

>  <s_epik_Chemistry_Notes>  (21) 
This compound has an imine and may undergo hydrolysis.

>  <s_lp_Force_Field>  (21) 
OPLS3e

>  <r_lp_Energy>  (21) 
-12.0388

>  <b_lp_Chiralities_Consistent>  (21) 
1

>  <s_lp_Variant>  (21) 
2:0-3

>  <s_i_glide_gridfile>  (21) 
pfpi4k_grid

>  <i_i_glide_lignum>  (21) 
8

>  <i_i_glide_rotatable_bonds>  (21) 
2

>  <r_i_docking_score>  (21) 
-3.47861

>  <r_i_glide_ligand_efficiency>  (21) 
-0.17393

>  <r_i_glide_ligand_efficiency_sa>  (21) 
-0.47212

>  <r_i_glide_ligand_efficiency_ln>  (21) 
-0.870581

>  <r_i_glide_gscore>  (21) 
-3.47861

>  <r_i_glide_lipo>  (21) 
-0.0167562

>  <r_i_glide_hbond>  (21) 
-0.0245345

>  <r_i_glide_metal>  (21) 
-0

>  <r_i_glide_rewards>  (21) 
-1.56461

>  <r_i_glide_evdw>  (21) 
-21.7277

>  <r_i_glide_ecoul>  (21) 
-5.63438

>  <r_i_glide_erotb>  (21) 
0.468389

>  <r_i_glide_esite>  (21) 
-0.409552

>  <r_i_glide_emodel>  (21) 
-34.4512

>  <r_i_glide_energy>  (21) 
-27.3621

>  <r_i_glide_einternal>  (21) 
0.413741

>  <r_i_glide_intrahb_reward>  (21) 
-0

>  <i_i_glide_confnum>  (21) 
5

>  <i_i_glide_posenum>  (21) 
11

>  <r_i_glide_eff_state_penalty>  (21) 
0

>  <ligand_id>  (21) 
2

>  <original_smiles>  (21) 
Cc1[nH]n(C)c(=O)c1C1=NOC(C)(c2nnnn2C)C1

>  <smiles>  (21) 
[H]n1c(C([H])([H])[H])c(C2=NOC(c3nnnn3C([H])([H])[H])(C([H])([H])[H])C2([H])[H])c(=O)n1C([H])([H])[H]

$$$$
4:0:0
     RDKit          3D

 21 23  0  0  1  0  0  0  0  0999 V2000
    2.7515   -2.0702   -2.5921 C   0  0  0  0  0  0  0  0  0  0  0  0
    3.8464   -2.5781   -1.7939 N   0  0  0  0  0  0  0  0  0  0  0  0
    5.1063   -2.1002   -1.9938 N   0  0  0  0  0  0  0  0  0  0  0  0
    5.9199   -2.7034   -1.1716 N   0  0  0  0  0  0  0  0  0  0  0  0
    5.1725   -3.5948   -0.4155 C   0  0  0  0  0  0  0  0  0  0  0  0
    5.4852   -4.5109    0.6122 C   0  0  0  0  0  0  0  0  0  0  0  0
    4.4461   -5.2912    1.1720 C   0  0  0  0  0  0  0  0  0  0  0  0
    3.1229   -5.1336    0.6850 C   0  0  0  0  0  0  0  0  0  0  0  0
    2.0661   -5.9428    1.1782 N   0  0  0  0  0  0  0  0  0  0  0  0
    1.9671   -6.4211    2.4190 C   0  0  0  0  0  0  0  0  0  0  0  0
    0.8172   -7.0646    2.5759 N   0  0  0  0  0  0  0  0  0  0  0  0
    0.2155   -6.9743    1.3280 N   0  0  0  0  0  0  0  0  0  0  0  0
    0.9450   -6.2772    0.4996 N   0  0  0  0  0  0  0  0  0  0  0  0
    2.7852   -4.2365   -0.2734 N   0  0  0  0  0  0  0  0  0  0  0  0
    3.8215   -3.5240   -0.7895 C   0  0  0  0  0  0  0  0  0  0  0  0
    1.8263   -2.5831   -2.3271 H   0  0  0  0  0  0  0  0  0  0  0  0
    2.9518   -2.2304   -3.6530 H   0  0  0  0  0  0  0  0  0  0  0  0
    2.6280   -1.0020   -2.4019 H   0  0  0  0  0  0  0  0  0  0  0  0
    6.5017   -4.6194    0.9545 H   0  0  0  0  0  0  0  0  0  0  0  0
    4.6840   -6.0109    1.9464 H   0  0  0  0  0  0  0  0  0  0  0  0
    2.6831   -6.2728    3.2144 H   0  0  0  0  0  0  0  0  0  0  0  0
  1  2  1  0
  1 16  1  0
  1 17  1  0
  1 18  1  0
  2 15  1  0
  2  3  1  0
  3  4  2  0
  4  5  1  0
  5 15  2  0
  5  6  1  0
  6  7  2  0
  6 19  1  0
  7  8  1  0
  7 20  1  0
  8  9  1  0
  8 14  2  0
  9 13  1  0
  9 10  1  0
 10 11  2  0
 10 21  1  0
 11 12  1  0
 12 13  2  0
 14 15  1  0
M  END
>  <i_m_ct_stereo_status>  (22) 
1

>  <s_m_source_file>  (22) 
/var/tmp/pbs.5076255.sched01/tmpikn618da/06v91y69d.sdf

>  <i_m_source_file_index>  (22) 
10

>  <i_lp_mmshare_version>  (22) 
48012

>  <i_f3d_flags>  (22) 
0

>  <s_epik_input>  (22) 
bjFubihbQ0gzXSljKGMxMiluYyhbY0hdW2NIXTIpLW4zW2NIXW5ubjM=

>  <s_epik_cmdline>  (22) 
J2VwaWtfcHl0aG9uJywgJy1waHQnLCAnMi4wJywgJy1waCcsICc3LjAnLCAnLXRuJywgJzgnLCAnLW1hJywgJzIwMCcsICctaW1hZScsICc8aW5maWxlLm1hZT4nLCAnLW9tYWUnLCAnPG91dGZpbGUubWFlPic=

>  <r_lp_tautomer_probability>  (22) 
1

>  <r_epik_Ionization_Penalty>  (22) 
7.13943e-11

>  <r_epik_Ionization_Penalty_Charging>  (22) 
0

>  <r_epik_Ionization_Penalty_Neutral>  (22) 
7.13943e-11

>  <r_epik_State_Penalty>  (22) 
-0

>  <r_epik_Charging_Adjusted_Penalty>  (22) 
0

>  <i_epik_Tot_Q>  (22) 
0

>  <i_epik_Tot_abs_Q>  (22) 
0

>  <s_lp_Force_Field>  (22) 
OPLS3e

>  <r_lp_Energy>  (22) 
17.6005

>  <b_lp_Chiralities_Consistent>  (22) 
1

>  <s_lp_Variant>  (22) 
4:0-1

>  <s_i_glide_gridfile>  (22) 
pfpi4k_grid

>  <i_i_glide_lignum>  (22) 
10

>  <i_i_glide_rotatable_bonds>  (22) 
1

>  <r_i_docking_score>  (22) 
-3.64262

>  <r_i_glide_ligand_efficiency>  (22) 
-0.242842

>  <r_i_glide_ligand_efficiency_sa>  (22) 
-0.598899

>  <r_i_glide_ligand_efficiency_ln>  (22) 
-0.982355

>  <r_i_glide_gscore>  (22) 
-3.64262

>  <r_i_glide_lipo>  (22) 
-0.162854

>  <r_i_glide_hbond>  (22) 
0

>  <r_i_glide_metal>  (22) 
-0

>  <r_i_glide_rewards>  (22) 
-2.05409

>  <r_i_glide_evdw>  (22) 
-21.5983

>  <r_i_glide_ecoul>  (22) 
-2.61996

>  <r_i_glide_erotb>  (22) 
0.401029

>  <r_i_glide_esite>  (22) 
-0.353797

>  <r_i_glide_emodel>  (22) 
-29.7499

>  <r_i_glide_energy>  (22) 
-24.2183

>  <r_i_glide_einternal>  (22) 
0.774516

>  <r_i_glide_intrahb_reward>  (22) 
-0

>  <i_i_glide_confnum>  (22) 
4

>  <i_i_glide_posenum>  (22) 
25

>  <r_i_glide_eff_state_penalty>  (22) 
0

>  <ligand_id>  (22) 
4

>  <original_smiles>  (22) 
Cn1nnc2ccc(-n3cnnn3)nc21

>  <smiles>  (22) 
[H]c1c(-n2nnnc2[H])nc2c(nnn2C([H])([H])[H])c1[H]

$$$$
4:0:1
     RDKit          3D

 21 23  0  0  1  0  0  0  0  0999 V2000
    2.1360   -5.3094    8.1734 C   0  0  0  0  0  0  0  0  0  0  0  0
    1.5077   -6.6045    8.0238 N   0  0  0  0  0  0  0  0  0  0  0  0
    1.2995   -7.3876    9.1207 N   0  0  0  0  0  0  0  0  0  0  0  0
    0.7122   -8.4847    8.7455 N   0  0  0  0  0  0  0  0  0  0  0  0
    0.5549   -8.4302    7.3702 C   0  0  0  0  0  0  0  0  0  0  0  0
    0.0052   -9.3088    6.4163 C   0  0  0  0  0  0  0  0  0  0  0  0
   -0.0246   -8.9038    5.0662 C   0  0  0  0  0  0  0  0  0  0  0  0
    0.5125   -7.6491    4.6905 C   0  0  0  0  0  0  0  0  0  0  0  0
    0.4541   -7.2633    3.3289 N   0  0  0  0  0  0  0  0  0  0  0  0
    1.3506   -6.4718    2.7387 C   0  0  0  0  0  0  0  0  0  0  0  0
    1.0204   -6.2555    1.4714 N   0  0  0  0  0  0  0  0  0  0  0  0
   -0.1464   -6.9975    1.3105 N   0  0  0  0  0  0  0  0  0  0  0  0
   -0.4987   -7.5886    2.4208 N   0  0  0  0  0  0  0  0  0  0  0  0
    1.0590   -6.7833    5.5814 N   0  0  0  0  0  0  0  0  0  0  0  0
    1.0528   -7.2141    6.8741 C   0  0  0  0  0  0  0  0  0  0  0  0
    2.2392   -4.8278    7.1995 H   0  0  0  0  0  0  0  0  0  0  0  0
    3.1271   -5.4267    8.6130 H   0  0  0  0  0  0  0  0  0  0  0  0
    1.5264   -4.6738    8.8168 H   0  0  0  0  0  0  0  0  0  0  0  0
   -0.4103  -10.2609    6.7100 H   0  0  0  0  0  0  0  0  0  0  0  0
   -0.4679   -9.5592    4.3277 H   0  0  0  0  0  0  0  0  0  0  0  0
    2.2195   -6.0425    3.2197 H   0  0  0  0  0  0  0  0  0  0  0  0
  1  2  1  0
  1 16  1  0
  1 17  1  0
  1 18  1  0
  2 15  1  0
  2  3  1  0
  3  4  2  0
  4  5  1  0
  5 15  2  0
  5  6  1  0
  6  7  2  0
  6 19  1  0
  7  8  1  0
  7 20  1  0
  8  9  1  0
  8 14  2  0
  9 13  1  0
  9 10  1  0
 10 11  2  0
 10 21  1  0
 11 12  1  0
 12 13  2  0
 14 15  1  0
M  END
>  <i_m_ct_stereo_status>  (23) 
1

>  <s_m_source_file>  (23) 
/var/tmp/pbs.5076255.sched01/tmpikn618da/06v91y69d.sdf

>  <i_m_source_file_index>  (23) 
10

>  <i_lp_mmshare_version>  (23) 
48012

>  <i_f3d_flags>  (23) 
0

>  <s_epik_input>  (23) 
bjFubihbQ0gzXSljKGMxMiluYyhbY0hdW2NIXTIpLW4zW2NIXW5ubjM=

>  <s_epik_cmdline>  (23) 
J2VwaWtfcHl0aG9uJywgJy1waHQnLCAnMi4wJywgJy1waCcsICc3LjAnLCAnLXRuJywgJzgnLCAnLW1hJywgJzIwMCcsICctaW1hZScsICc8aW5maWxlLm1hZT4nLCAnLW9tYWUnLCAnPG91dGZpbGUubWFlPic=

>  <r_lp_tautomer_probability>  (23) 
1

>  <r_epik_Ionization_Penalty>  (23) 
7.13943e-11

>  <r_epik_Ionization_Penalty_Charging>  (23) 
0

>  <r_epik_Ionization_Penalty_Neutral>  (23) 
7.13943e-11

>  <r_epik_State_Penalty>  (23) 
-0

>  <r_epik_Charging_Adjusted_Penalty>  (23) 
0

>  <i_epik_Tot_Q>  (23) 
0

>  <i_epik_Tot_abs_Q>  (23) 
0

>  <s_lp_Force_Field>  (23) 
OPLS3e

>  <r_lp_Energy>  (23) 
17.6005

>  <b_lp_Chiralities_Consistent>  (23) 
1

>  <s_lp_Variant>  (23) 
4:0-1

>  <s_i_glide_gridfile>  (23) 
pfpi4k_grid

>  <i_i_glide_lignum>  (23) 
10

>  <i_i_glide_rotatable_bonds>  (23) 
1

>  <r_i_docking_score>  (23) 
-3.31282

>  <r_i_glide_ligand_efficiency>  (23) 
-0.220854

>  <r_i_glide_ligand_efficiency_sa>  (23) 
-0.544674

>  <r_i_glide_ligand_efficiency_ln>  (23) 
-0.893412

>  <r_i_glide_gscore>  (23) 
-3.31282

>  <r_i_glide_lipo>  (23) 
0

>  <r_i_glide_hbond>  (23) 
0

>  <r_i_glide_metal>  (23) 
-0

>  <r_i_glide_rewards>  (23) 
-2.03062

>  <r_i_glide_evdw>  (23) 
-15.9221

>  <r_i_glide_ecoul>  (23) 
-3.2248

>  <r_i_glide_erotb>  (23) 
0.401029

>  <r_i_glide_esite>  (23) 
-0.403403

>  <r_i_glide_emodel>  (23) 
-24.2588

>  <r_i_glide_energy>  (23) 
-19.1469

>  <r_i_glide_einternal>  (23) 
0.641557

>  <r_i_glide_intrahb_reward>  (23) 
-0

>  <i_i_glide_confnum>  (23) 
1

>  <i_i_glide_posenum>  (23) 
8

>  <r_i_glide_eff_state_penalty>  (23) 
0

>  <ligand_id>  (23) 
4

>  <original_smiles>  (23) 
Cn1nnc2ccc(-n3cnnn3)nc21

>  <smiles>  (23) 
[H]c1c(-n2nnnc2[H])nc2c(nnn2C([H])([H])[H])c1[H]

$$$$
4:0:2
     RDKit          3D

 21 23  0  0  1  0  0  0  0  0999 V2000
    0.6235   -4.4777    8.4057 C   0  0  0  0  0  0  0  0  0  0  0  0
    0.6507   -5.9200    8.5253 N   0  0  0  0  0  0  0  0  0  0  0  0
    0.8671   -6.4906    9.7412 N   0  0  0  0  0  0  0  0  0  0  0  0
    0.8270   -7.7832    9.6071 N   0  0  0  0  0  0  0  0  0  0  0  0
    0.6043   -8.0676    8.2692 C   0  0  0  0  0  0  0  0  0  0  0  0
    0.4746   -9.2598    7.5256 C   0  0  0  0  0  0  0  0  0  0  0  0
    0.2200   -9.1746    6.1370 C   0  0  0  0  0  0  0  0  0  0  0  0
    0.1169   -7.8978    5.5225 C   0  0  0  0  0  0  0  0  0  0  0  0
   -0.1116   -7.7682    4.1239 N   0  0  0  0  0  0  0  0  0  0  0  0
   -0.7122   -8.6739    3.3481 C   0  0  0  0  0  0  0  0  0  0  0  0
   -0.8208   -8.2173    2.1049 N   0  0  0  0  0  0  0  0  0  0  0  0
   -0.2058   -6.9778    2.1538 N   0  0  0  0  0  0  0  0  0  0  0  0
    0.1831   -6.6862    3.3624 N   0  0  0  0  0  0  0  0  0  0  0  0
    0.2230   -6.7360    6.2194 N   0  0  0  0  0  0  0  0  0  0  0  0
    0.4723   -6.8741    7.5479 C   0  0  0  0  0  0  0  0  0  0  0  0
    0.4594   -4.1891    7.3658 H   0  0  0  0  0  0  0  0  0  0  0  0
    1.5740   -4.0601    8.7402 H   0  0  0  0  0  0  0  0  0  0  0  0
   -0.1823   -4.0748    9.0207 H   0  0  0  0  0  0  0  0  0  0  0  0
    0.5664  -10.2184    8.0134 H   0  0  0  0  0  0  0  0  0  0  0  0
    0.1104  -10.0975    5.5753 H   0  0  0  0  0  0  0  0  0  0  0  0
   -1.0893   -9.6334    3.6659 H   0  0  0  0  0  0  0  0  0  0  0  0
  1  2  1  0
  1 16  1  0
  1 17  1  0
  1 18  1  0
  2 15  1  0
  2  3  1  0
  3  4  2  0
  4  5  1  0
  5 15  2  0
  5  6  1  0
  6  7  2  0
  6 19  1  0
  7  8  1  0
  7 20  1  0
  8  9  1  0
  8 14  2  0
  9 13  1  0
  9 10  1  0
 10 11  2  0
 10 21  1  0
 11 12  1  0
 12 13  2  0
 14 15  1  0
M  END
>  <i_m_ct_stereo_status>  (24) 
1

>  <s_m_source_file>  (24) 
/var/tmp/pbs.5076255.sched01/tmpikn618da/06v91y69d.sdf

>  <i_m_source_file_index>  (24) 
10

>  <i_lp_mmshare_version>  (24) 
48012

>  <i_f3d_flags>  (24) 
0

>  <s_epik_input>  (24) 
bjFubihbQ0gzXSljKGMxMiluYyhbY0hdW2NIXTIpLW4zW2NIXW5ubjM=

>  <s_epik_cmdline>  (24) 
J2VwaWtfcHl0aG9uJywgJy1waHQnLCAnMi4wJywgJy1waCcsICc3LjAnLCAnLXRuJywgJzgnLCAnLW1hJywgJzIwMCcsICctaW1hZScsICc8aW5maWxlLm1hZT4nLCAnLW9tYWUnLCAnPG91dGZpbGUubWFlPic=

>  <r_lp_tautomer_probability>  (24) 
1

>  <r_epik_Ionization_Penalty>  (24) 
7.13943e-11

>  <r_epik_Ionization_Penalty_Charging>  (24) 
0

>  <r_epik_Ionization_Penalty_Neutral>  (24) 
7.13943e-11

>  <r_epik_State_Penalty>  (24) 
-0

>  <r_epik_Charging_Adjusted_Penalty>  (24) 
0

>  <i_epik_Tot_Q>  (24) 
0

>  <i_epik_Tot_abs_Q>  (24) 
0

>  <s_lp_Force_Field>  (24) 
OPLS3e

>  <r_lp_Energy>  (24) 
17.6005

>  <b_lp_Chiralities_Consistent>  (24) 
1

>  <s_lp_Variant>  (24) 
4:0-1

>  <s_i_glide_gridfile>  (24) 
pfpi4k_grid

>  <i_i_glide_lignum>  (24) 
10

>  <i_i_glide_rotatable_bonds>  (24) 
1

>  <r_i_docking_score>  (24) 
-3.25584

>  <r_i_glide_ligand_efficiency>  (24) 
-0.217056

>  <r_i_glide_ligand_efficiency_sa>  (24) 
-0.535306

>  <r_i_glide_ligand_efficiency_ln>  (24) 
-0.878046

>  <r_i_glide_gscore>  (24) 
-3.25584

>  <r_i_glide_lipo>  (24) 
0

>  <r_i_glide_hbond>  (24) 
0

>  <r_i_glide_metal>  (24) 
-0

>  <r_i_glide_rewards>  (24) 
-2.03062

>  <r_i_glide_evdw>  (24) 
-16.873

>  <r_i_glide_ecoul>  (24) 
-2.51714

>  <r_i_glide_erotb>  (24) 
0.401029

>  <r_i_glide_esite>  (24) 
-0.405033

>  <r_i_glide_emodel>  (24) 
-24.3927

>  <r_i_glide_energy>  (24) 
-19.3901

>  <r_i_glide_einternal>  (24) 
0.596746

>  <r_i_glide_intrahb_reward>  (24) 
-0

>  <i_i_glide_confnum>  (24) 
4

>  <i_i_glide_posenum>  (24) 
5

>  <r_i_glide_eff_state_penalty>  (24) 
0

>  <ligand_id>  (24) 
4

>  <original_smiles>  (24) 
Cn1nnc2ccc(-n3cnnn3)nc21

>  <smiles>  (24) 
[H]c1c(-n2nnnc2[H])nc2c(nnn2C([H])([H])[H])c1[H]

$$$$
5:0:0
     RDKit          3D

 48 52  0  0  1  0  0  0  0  0999 V2000
    5.0312   -0.9773   -0.4786 C   0  0  0  0  0  0  0  0  0  0  0  0
    5.2547   -1.9067   -1.6892 C   0  0  2  0  0  0  0  0  0  0  0  0
    3.9911   -2.7402   -1.9215 C   0  0  0  0  0  0  0  0  0  0  0  0
    3.6947   -3.5616   -0.6560 C   0  0  2  0  0  0  0  0  0  0  0  0
    3.4623   -2.6007    0.5413 C   0  0  0  0  0  0  0  0  0  0  0  0
    4.7413   -1.7868    0.7893 C   0  0  1  0  0  0  0  0  0  0  0  0
    5.9294   -2.7270    1.0839 C   0  0  0  0  0  0  0  0  0  0  0  0
    6.1302   -3.7073   -0.1041 C   0  0  2  0  0  0  0  0  0  0  0  0
    6.4171   -2.8836   -1.3882 C   0  0  0  0  0  0  0  0  0  0  0  0
    4.8366   -4.5568   -0.3148 C   0  0  1  0  0  0  0  0  0  0  0  0
    4.5503   -5.3512    0.9068 N   0  0  0  0  0  0  0  0  0  0  0  0
    3.5019   -6.4057    0.8699 C   0  0  2  0  0  0  0  0  0  0  0  0
    2.0542   -5.8271    0.6463 C   0  0  0  0  0  0  0  0  0  0  0  0
    1.1339   -6.1131    1.7475 N   0  0  0  0  0  0  0  0  0  0  0  0
    1.7093   -5.5457    2.9827 C   0  0  0  0  0  0  0  0  0  0  0  0
    3.0718   -6.2083    3.3260 C   0  0  0  0  0  0  0  0  0  0  0  0
    3.4698   -7.1999    2.2060 C   0  0  0  0  0  0  0  0  0  0  0  0
    2.3168   -8.2425    2.1093 C   0  0  0  0  0  0  0  0  0  0  0  0
    0.9415   -7.5689    1.8720 C   0  0  0  0  0  0  0  0  0  0  0  0
    4.1998   -0.3029   -0.6790 H   0  0  0  0  0  0  0  0  0  0  0  0
    5.9115   -0.3591   -0.2984 H   0  0  0  0  0  0  0  0  0  0  0  0
    5.4356   -1.3059   -2.5817 H   0  0  0  0  0  0  0  0  0  0  0  0
    3.1494   -2.0848   -2.1167 H   0  0  0  0  0  0  0  0  0  0  0  0
    4.1104   -3.3859   -2.7854 H   0  0  0  0  0  0  0  0  0  0  0  0
    2.7962   -4.0950   -0.9128 H   0  0  0  0  0  0  0  0  0  0  0  0
    2.5952   -1.9581    0.3759 H   0  0  0  0  0  0  0  0  0  0  0  0
    3.2493   -3.1326    1.4540 H   0  0  0  0  0  0  0  0  0  0  0  0
    4.5750   -1.1257    1.6368 H   0  0  0  0  0  0  0  0  0  0  0  0
    6.8374   -2.1285    1.2218 H   0  0  0  0  0  0  0  0  0  0  0  0
    5.7885   -3.2439    2.0375 H   0  0  0  0  0  0  0  0  0  0  0  0
    6.9812   -4.3662    0.1002 H   0  0  0  0  0  0  0  0  0  0  0  0
    6.5696   -3.5425   -2.2493 H   0  0  0  0  0  0  0  0  0  0  0  0
    7.3437   -2.3157   -1.2568 H   0  0  0  0  0  0  0  0  0  0  0  0
    5.0045   -5.2490   -1.1362 H   0  0  0  0  0  0  0  0  0  0  0  0
    5.4170   -5.7826    1.1787 H   0  0  0  0  0  0  0  0  0  0  0  0
    3.7971   -7.1292    0.0915 H   0  0  0  0  0  0  0  0  0  0  0  0
    1.9914   -4.7499    0.6095 H   0  0  0  0  0  0  0  0  0  0  0  0
    1.6486   -6.1840   -0.3013 H   0  0  0  0  0  0  0  0  0  0  0  0
    1.8521   -4.4738    2.8355 H   0  0  0  0  0  0  0  0  0  0  0  0
    1.0062   -5.6378    3.8000 H   0  0  0  0  0  0  0  0  0  0  0  0
    3.8395   -5.4485    3.5044 H   0  0  0  0  0  0  0  0  0  0  0  0
    2.9735   -6.7316    4.2824 H   0  0  0  0  0  0  0  0  0  0  0  0
    4.4185   -7.7005    2.4359 H   0  0  0  0  0  0  0  0  0  0  0  0
    2.5112   -8.9595    1.3024 H   0  0  0  0  0  0  0  0  0  0  0  0
    2.2496   -8.8089    3.0452 H   0  0  0  0  0  0  0  0  0  0  0  0
    0.2262   -7.7416    2.6835 H   0  0  0  0  0  0  0  0  0  0  0  0
    0.4959   -7.9123    0.9374 H   0  0  0  0  0  0  0  0  0  0  0  0
    4.2883   -4.6824    1.6276 H   0  0  0  0  0  0  0  0  0  0  0  0
  1  6  1  0
  1  2  1  0
  1 20  1  0
  1 21  1  0
  2  9  1  0
  2  3  1  0
  2 22  1  6
  3  4  1  0
  3 23  1  0
  3 24  1  0
  4 10  1  0
  4  5  1  0
  4 25  1  6
  5  6  1  0
  5 26  1  0
  5 27  1  0
  6  7  1  0
  6 28  1  1
  7  8  1  0
  7 29  1  0
  7 30  1  0
  8  9  1  0
  8 10  1  0
  8 31  1  1
  9 32  1  0
  9 33  1  0
 10 11  1  0
 10 34  1  6
 11 12  1  0
 11 35  1  0
 11 48  1  0
 12 17  1  0
 12 13  1  0
 12 36  1  6
 13 14  1  0
 13 37  1  0
 13 38  1  0
 14 19  1  0
 14 15  1  0
 15 16  1  0
 15 39  1  0
 15 40  1  0
 16 17  1  0
 16 41  1  0
 16 42  1  0
 17 18  1  0
 17 43  1  0
 18 19  1  0
 18 44  1  0
 18 45  1  0
 19 46  1  0
 19 47  1  0
M  CHG  1  11   1
M  END
>  <i_m_ct_stereo_status>  (25) 
1

>  <s_m_source_file>  (25) 
/var/tmp/pbs.5076255.sched01/tmpikn618da/06v91y69d.sdf

>  <i_m_source_file_index>  (25) 
11

>  <i_lp_mmshare_version>  (25) 
48012

>  <i_f3d_flags>  (25) 
0

>  <s_epik_input>  (25) 
W0NAQEhdMTJbQ0gyXVtDQEhdM1tDSDJdW0NAQEhdKFtDSDJdMSlbQ0BASF0oW0NASF0oW0NIMl0zKVtDSDJdMilbTkhdW0NASF0oW0NIMl1ONDUpW0NIXShbQ0gyXVtDSDJdNClbQ0gyXVtDSDJdNQ==

>  <s_epik_cmdline>  (25) 
J2VwaWtfcHl0aG9uJywgJy1waHQnLCAnMi4wJywgJy1waCcsICc3LjAnLCAnLXRuJywgJzgnLCAnLW1hJywgJzIwMCcsICctaW1hZScsICc8aW5maWxlLm1hZT4nLCAnLW9tYWUnLCAnPG91dGZpbGUubWFlPic=

>  <r_epik_Ionization_Penalty>  (25) 
0.216692

>  <r_epik_Ionization_Penalty_Charging>  (25) 
0.00125096

>  <r_epik_Ionization_Penalty_Neutral>  (25) 
0.215441

>  <r_epik_State_Penalty>  (25) 
0.265653

>  <r_epik_Charging_Adjusted_Penalty>  (25) 
0.266904

>  <i_epik_Tot_Q>  (25) 
1

>  <i_epik_Tot_abs_Q>  (25) 
1

>  <s_lp_Force_Field>  (25) 
OPLS3e

>  <r_lp_Energy>  (25) 
6.62968

>  <b_lp_Chiralities_Consistent>  (25) 
1

>  <s_lp_Variant>  (25) 
5:0-1

>  <s_i_glide_gridfile>  (25) 
pfpi4k_grid

>  <i_i_glide_lignum>  (25) 
11

>  <i_i_glide_rotatable_bonds>  (25) 
2

>  <r_i_docking_score>  (25) 
-3.31881

>  <r_i_glide_ligand_efficiency>  (25) 
-0.174674

>  <r_i_glide_ligand_efficiency_sa>  (25) 
-0.4661

>  <r_i_glide_ligand_efficiency_ln>  (25) 
-0.841389

>  <r_i_glide_gscore>  (25) 
-3.31881

>  <r_i_glide_lipo>  (25) 
-0.266698

>  <r_i_glide_hbond>  (25) 
-0.0999008

>  <r_i_glide_metal>  (25) 
-0

>  <r_i_glide_rewards>  (25) 
-1.62664

>  <r_i_glide_evdw>  (25) 
-23.2518

>  <r_i_glide_ecoul>  (25) 
-4.5438

>  <r_i_glide_erotb>  (25) 
0.518596

>  <r_i_glide_esite>  (25) 
0

>  <r_i_glide_emodel>  (25) 
-31.946

>  <r_i_glide_energy>  (25) 
-27.7956

>  <r_i_glide_einternal>  (25) 
0.284852

>  <r_i_glide_intrahb_reward>  (25) 
-0

>  <i_i_glide_confnum>  (25) 
5

>  <i_i_glide_posenum>  (25) 
33

>  <r_i_glide_eff_state_penalty>  (25) 
0

>  <ligand_id>  (25) 
5

>  <original_smiles>  (25) 
C1C2CC3CC1CC(C2)C3NC1CN2CCC1CC2

>  <smiles>  (25) 
[H]C1([H])N2C([H])([H])C([H])([H])C([H])(C1([H])[H])C([H])([N+]([H])([H])C1([H])C3([H])C([H])([H])C4([H])C([H])([H])C([H])(C3([H])[H])C([H])([H])C1([H])C4([H])[H])C2([H])[H]

$$$$
5:0:1
     RDKit          3D

 48 52  0  0  1  0  0  0  0  0999 V2000
    4.0108   -1.1241   -2.9758 C   0  0  0  0  0  0  0  0  0  0  0  0
    3.5023   -2.5340   -3.3430 C   0  0  2  0  0  0  0  0  0  0  0  0
    2.4607   -2.9847   -2.3053 C   0  0  0  0  0  0  0  0  0  0  0  0
    3.1036   -3.0088   -0.8945 C   0  0  2  0  0  0  0  0  0  0  0  0
    3.6296   -1.5946   -0.5293 C   0  0  0  0  0  0  0  0  0  0  0  0
    4.6697   -1.1617   -1.5775 C   0  0  1  0  0  0  0  0  0  0  0  0
    5.8495   -2.1557   -1.5786 C   0  0  0  0  0  0  0  0  0  0  0  0
    5.3189   -3.5635   -1.9107 C   0  0  2  0  0  0  0  0  0  0  0  0
    4.6744   -3.5407   -3.3148 C   0  0  0  0  0  0  0  0  0  0  0  0
    4.2767   -4.0087   -0.8672 C   0  0  1  0  0  0  0  0  0  0  0  0
    4.8519   -4.0596    0.4904 N   0  0  0  0  0  0  0  0  0  0  0  0
    5.4566   -5.3286    0.9316 C   0  0  2  0  0  0  0  0  0  0  0  0
    4.3630   -6.3973    1.2222 C   0  0  0  0  0  0  0  0  0  0  0  0
    4.3248   -6.7721    2.6426 N   0  0  0  0  0  0  0  0  0  0  0  0
    4.1307   -5.5857    3.4897 C   0  0  0  0  0  0  0  0  0  0  0  0
    5.2922   -4.5707    3.3203 C   0  0  0  0  0  0  0  0  0  0  0  0
    6.2603   -5.0787    2.2260 C   0  0  0  0  0  0  0  0  0  0  0  0
    6.7938   -6.4378    2.7242 C   0  0  0  0  0  0  0  0  0  0  0  0
    5.6043   -7.4043    2.9861 C   0  0  0  0  0  0  0  0  0  0  0  0
    3.1861   -0.4072   -2.9923 H   0  0  0  0  0  0  0  0  0  0  0  0
    4.7301   -0.7892   -3.7197 H   0  0  0  0  0  0  0  0  0  0  0  0
    3.0351   -2.5039   -4.3337 H   0  0  0  0  0  0  0  0  0  0  0  0
    1.6266   -2.2852   -2.3208 H   0  0  0  0  0  0  0  0  0  0  0  0
    2.0486   -3.9572   -2.5826 H   0  0  0  0  0  0  0  0  0  0  0  0
    2.3448   -3.3098   -0.1736 H   0  0  0  0  0  0  0  0  0  0  0  0
    2.8231   -0.8621   -0.4930 H   0  0  0  0  0  0  0  0  0  0  0  0
    4.0681   -1.5725    0.4700 H   0  0  0  0  0  0  0  0  0  0  0  0
    5.0311   -0.1721   -1.3107 H   0  0  0  0  0  0  0  0  0  0  0  0
    6.5887   -1.8702   -2.3164 H   0  0  0  0  0  0  0  0  0  0  0  0
    6.3568   -2.1249   -0.6109 H   0  0  0  0  0  0  0  0  0  0  0  0
    6.1642   -4.2477   -1.9269 H   0  0  0  0  0  0  0  0  0  0  0  0
    4.3164   -4.5327   -3.5990 H   0  0  0  0  0  0  0  0  0  0  0  0
    5.4284   -3.2658   -4.0380 H   0  0  0  0  0  0  0  0  0  0  0  0
    3.9031   -4.9961   -1.1121 H   0  0  0  0  0  0  0  0  0  0  0  0
    5.5341   -3.3197    0.5536 H   0  0  0  0  0  0  0  0  0  0  0  0
    6.1382   -5.6858    0.1628 H   0  0  0  0  0  0  0  0  0  0  0  0
    3.3729   -6.0316    0.9482 H   0  0  0  0  0  0  0  0  0  0  0  0
    4.5358   -7.2879    0.6164 H   0  0  0  0  0  0  0  0  0  0  0  0
    3.1777   -5.1186    3.2435 H   0  0  0  0  0  0  0  0  0  0  0  0
    4.0585   -5.8983    4.5323 H   0  0  0  0  0  0  0  0  0  0  0  0
    4.8972   -3.5788    3.0950 H   0  0  0  0  0  0  0  0  0  0  0  0
    5.8221   -4.4505    4.2678 H   0  0  0  0  0  0  0  0  0  0  0  0
    7.0835   -4.3804    2.0629 H   0  0  0  0  0  0  0  0  0  0  0  0
    7.4847   -6.8764    1.9985 H   0  0  0  0  0  0  0  0  0  0  0  0
    7.3645   -6.3021    3.6476 H   0  0  0  0  0  0  0  0  0  0  0  0
    5.5834   -7.7071    4.0339 H   0  0  0  0  0  0  0  0  0  0  0  0
    5.7276   -8.3166    2.4020 H   0  0  0  0  0  0  0  0  0  0  0  0
    4.1102   -3.8557    1.1427 H   0  0  0  0  0  0  0  0  0  0  0  0
  1  6  1  0
  1  2  1  0
  1 20  1  0
  1 21  1  0
  2  9  1  0
  2  3  1  0
  2 22  1  6
  3  4  1  0
  3 23  1  0
  3 24  1  0
  4 10  1  0
  4  5  1  0
  4 25  1  1
  5  6  1  0
  5 26  1  0
  5 27  1  0
  6  7  1  0
  6 28  1  1
  7  8  1  0
  7 29  1  0
  7 30  1  0
  8  9  1  0
  8 10  1  0
  8 31  1  6
  9 32  1  0
  9 33  1  0
 10 11  1  0
 10 34  1  6
 11 12  1  0
 11 35  1  0
 11 48  1  0
 12 17  1  0
 12 13  1  0
 12 36  1  6
 13 14  1  0
 13 37  1  0
 13 38  1  0
 14 19  1  0
 14 15  1  0
 15 16  1  0
 15 39  1  0
 15 40  1  0
 16 17  1  0
 16 41  1  0
 16 42  1  0
 17 18  1  0
 17 43  1  0
 18 19  1  0
 18 44  1  0
 18 45  1  0
 19 46  1  0
 19 47  1  0
M  CHG  1  11   1
M  END
>  <i_m_ct_stereo_status>  (26) 
1

>  <s_m_source_file>  (26) 
/var/tmp/pbs.5076255.sched01/tmpikn618da/06v91y69d.sdf

>  <i_m_source_file_index>  (26) 
11

>  <i_lp_mmshare_version>  (26) 
48012

>  <i_f3d_flags>  (26) 
0

>  <s_epik_input>  (26) 
W0NAQEhdMTJbQ0gyXVtDQEhdM1tDSDJdW0NAQEhdKFtDSDJdMSlbQ0BASF0oW0NASF0oW0NIMl0zKVtDSDJdMilbTkhdW0NASF0oW0NIMl1ONDUpW0NIXShbQ0gyXVtDSDJdNClbQ0gyXVtDSDJdNQ==

>  <s_epik_cmdline>  (26) 
J2VwaWtfcHl0aG9uJywgJy1waHQnLCAnMi4wJywgJy1waCcsICc3LjAnLCAnLXRuJywgJzgnLCAnLW1hJywgJzIwMCcsICctaW1hZScsICc8aW5maWxlLm1hZT4nLCAnLW9tYWUnLCAnPG91dGZpbGUubWFlPic=

>  <r_epik_Ionization_Penalty>  (26) 
0.216692

>  <r_epik_Ionization_Penalty_Charging>  (26) 
0.00125096

>  <r_epik_Ionization_Penalty_Neutral>  (26) 
0.215441

>  <r_epik_State_Penalty>  (26) 
0.265653

>  <r_epik_Charging_Adjusted_Penalty>  (26) 
0.266904

>  <i_epik_Tot_Q>  (26) 
1

>  <i_epik_Tot_abs_Q>  (26) 
1

>  <s_lp_Force_Field>  (26) 
OPLS3e

>  <r_lp_Energy>  (26) 
6.62968

>  <b_lp_Chiralities_Consistent>  (26) 
1

>  <s_lp_Variant>  (26) 
5:0-1

>  <s_i_glide_gridfile>  (26) 
pfpi4k_grid

>  <i_i_glide_lignum>  (26) 
11

>  <i_i_glide_rotatable_bonds>  (26) 
2

>  <r_i_docking_score>  (26) 
-3.1471

>  <r_i_glide_ligand_efficiency>  (26) 
-0.165637

>  <r_i_glide_ligand_efficiency_sa>  (26) 
-0.441986

>  <r_i_glide_ligand_efficiency_ln>  (26) 
-0.797858

>  <r_i_glide_gscore>  (26) 
-3.1471

>  <r_i_glide_lipo>  (26) 
-0.660832

>  <r_i_glide_hbond>  (26) 
0

>  <r_i_glide_metal>  (26) 
-0

>  <r_i_glide_rewards>  (26) 
-1.62664

>  <r_i_glide_evdw>  (26) 
-19.3338

>  <r_i_glide_ecoul>  (26) 
-2.74354

>  <r_i_glide_erotb>  (26) 
0.518596

>  <r_i_glide_esite>  (26) 
0

>  <r_i_glide_emodel>  (26) 
-27.466

>  <r_i_glide_energy>  (26) 
-22.0774

>  <r_i_glide_einternal>  (26) 
0.656846

>  <r_i_glide_intrahb_reward>  (26) 
-0

>  <i_i_glide_confnum>  (26) 
5

>  <i_i_glide_posenum>  (26) 
1

>  <r_i_glide_eff_state_penalty>  (26) 
0

>  <ligand_id>  (26) 
5

>  <original_smiles>  (26) 
C1C2CC3CC1CC(C2)C3NC1CN2CCC1CC2

>  <smiles>  (26) 
[H]C1([H])N2C([H])([H])C([H])([H])C([H])(C1([H])[H])C([H])([N+]([H])([H])C1([H])C3([H])C([H])([H])C4([H])C([H])([H])C([H])(C3([H])[H])C([H])([H])C1([H])C4([H])[H])C2([H])[H]

$$$$
5:0:2
     RDKit          3D

 48 52  0  0  1  0  0  0  0  0999 V2000
    4.1958   -1.1861   -3.0360 C   0  0  0  0  0  0  0  0  0  0  0  0
    3.6841   -2.6134   -3.3152 C   0  0  2  0  0  0  0  0  0  0  0  0
    2.5843   -2.9490   -2.2918 C   0  0  0  0  0  0  0  0  0  0  0  0
    3.1506   -2.8713   -0.8626 C   0  0  2  0  0  0  0  0  0  0  0  0
    3.6896   -1.4487   -0.5817 C   0  0  0  0  0  0  0  0  0  0  0  0
    4.7844   -1.1102   -1.6109 C   0  0  1  0  0  0  0  0  0  0  0  0
    5.9455   -2.1079   -1.4781 C   0  0  0  0  0  0  0  0  0  0  0  0
    5.4077   -3.5266   -1.7226 C   0  0  2  0  0  0  0  0  0  0  0  0
    4.8489   -3.6132   -3.1603 C   0  0  0  0  0  0  0  0  0  0  0  0
    4.3063   -3.8763   -0.6879 C   0  0  1  0  0  0  0  0  0  0  0  0
    4.8390   -3.8327    0.6685 N   0  0  0  0  0  0  0  0  0  0  0  0
    4.1660   -4.6540    1.7113 C   0  0  2  0  0  0  0  0  0  0  0  0
    4.7764   -4.3337    3.1157 C   0  0  0  0  0  0  0  0  0  0  0  0
    5.4140   -5.5093    3.7115 N   0  0  0  0  0  0  0  0  0  0  0  0
    6.4484   -6.0521    2.8135 C   0  0  0  0  0  0  0  0  0  0  0  0
    5.8378   -6.4939    1.4570 C   0  0  0  0  0  0  0  0  0  0  0  0
    4.3312   -6.1672    1.4340 C   0  0  0  0  0  0  0  0  0  0  0  0
    3.6854   -6.9189    2.6059 C   0  0  0  0  0  0  0  0  0  0  0  0
    4.3859   -6.5384    3.9390 C   0  0  0  0  0  0  0  0  0  0  0  0
    3.3871   -0.4572   -3.1523 H   0  0  0  0  0  0  0  0  0  0  0  0
    4.9634   -0.9317   -3.7690 H   0  0  0  0  0  0  0  0  0  0  0  0
    3.2588   -2.6618   -4.3277 H   0  0  0  0  0  0  0  0  0  0  0  0
    1.7637   -2.2450   -2.4071 H   0  0  0  0  0  0  0  0  0  0  0  0
    2.1582   -3.9318   -2.5040 H   0  0  0  0  0  0  0  0  0  0  0  0
    2.3518   -3.1065   -0.1518 H   0  0  0  0  0  0  0  0  0  0  0  0
    2.9023   -0.7006   -0.6497 H   0  0  0  0  0  0  0  0  0  0  0  0
    4.0823   -1.3462    0.4331 H   0  0  0  0  0  0  0  0  0  0  0  0
    5.1494   -0.1069   -1.4145 H   0  0  0  0  0  0  0  0  0  0  0  0
    6.7268   -1.8900   -2.2116 H   0  0  0  0  0  0  0  0  0  0  0  0
    6.4096   -2.0168   -0.4958 H   0  0  0  0  0  0  0  0  0  0  0  0
    6.2274   -4.2150   -1.6135 H   0  0  0  0  0  0  0  0  0  0  0  0
    4.5124   -4.6274   -3.3841 H   0  0  0  0  0  0  0  0  0  0  0  0
    5.6463   -3.3993   -3.8727 H   0  0  0  0  0  0  0  0  0  0  0  0
    3.9560   -4.8785   -0.9372 H   0  0  0  0  0  0  0  0  0  0  0  0
    5.8047   -4.1324    0.6564 H   0  0  0  0  0  0  0  0  0  0  0  0
    3.1051   -4.3874    1.7312 H   0  0  0  0  0  0  0  0  0  0  0  0
    5.5153   -3.5337    3.0617 H   0  0  0  0  0  0  0  0  0  0  0  0
    4.0010   -3.9742    3.7922 H   0  0  0  0  0  0  0  0  0  0  0  0
    7.2167   -5.2972    2.6639 H   0  0  0  0  0  0  0  0  0  0  0  0
    6.9361   -6.9002    3.2947 H   0  0  0  0  0  0  0  0  0  0  0  0
    6.3700   -6.0111    0.6354 H   0  0  0  0  0  0  0  0  0  0  0  0
    5.9929   -7.5631    1.3052 H   0  0  0  0  0  0  0  0  0  0  0  0
    3.8594   -6.4968    0.5083 H   0  0  0  0  0  0  0  0  0  0  0  0
    2.6218   -6.6952    2.6688 H   0  0  0  0  0  0  0  0  0  0  0  0
    3.7659   -8.0002    2.4445 H   0  0  0  0  0  0  0  0  0  0  0  0
    4.8478   -7.4206    4.3872 H   0  0  0  0  0  0  0  0  0  0  0  0
    3.6546   -6.1744    4.6577 H   0  0  0  0  0  0  0  0  0  0  0  0
    4.8299   -2.8669    0.9572 H   0  0  0  0  0  0  0  0  0  0  0  0
  1  6  1  0
  1  2  1  0
  1 20  1  0
  1 21  1  0
  2  9  1  0
  2  3  1  0
  2 22  1  6
  3  4  1  0
  3 23  1  0
  3 24  1  0
  4 10  1  0
  4  5  1  0
  4 25  1  1
  5  6  1  0
  5 26  1  0
  5 27  1  0
  6  7  1  0
  6 28  1  1
  7  8  1  0
  7 29  1  0
  7 30  1  0
  8  9  1  0
  8 10  1  0
  8 31  1  6
  9 32  1  0
  9 33  1  0
 10 11  1  0
 10 34  1  6
 11 12  1  0
 11 35  1  0
 11 48  1  0
 12 17  1  0
 12 13  1  0
 12 36  1  1
 13 14  1  0
 13 37  1  0
 13 38  1  0
 14 19  1  0
 14 15  1  0
 15 16  1  0
 15 39  1  0
 15 40  1  0
 16 17  1  0
 16 41  1  0
 16 42  1  0
 17 18  1  0
 17 43  1  0
 18 19  1  0
 18 44  1  0
 18 45  1  0
 19 46  1  0
 19 47  1  0
M  CHG  1  11   1
M  END
>  <i_m_ct_stereo_status>  (27) 
1

>  <s_m_source_file>  (27) 
/var/tmp/pbs.5076255.sched01/tmpikn618da/06v91y69d.sdf

>  <i_m_source_file_index>  (27) 
11

>  <i_lp_mmshare_version>  (27) 
48012

>  <i_f3d_flags>  (27) 
0

>  <s_epik_input>  (27) 
W0NAQEhdMTJbQ0gyXVtDQEhdM1tDSDJdW0NAQEhdKFtDSDJdMSlbQ0BASF0oW0NASF0oW0NIMl0zKVtDSDJdMilbTkhdW0NASF0oW0NIMl1ONDUpW0NIXShbQ0gyXVtDSDJdNClbQ0gyXVtDSDJdNQ==

>  <s_epik_cmdline>  (27) 
J2VwaWtfcHl0aG9uJywgJy1waHQnLCAnMi4wJywgJy1waCcsICc3LjAnLCAnLXRuJywgJzgnLCAnLW1hJywgJzIwMCcsICctaW1hZScsICc8aW5maWxlLm1hZT4nLCAnLW9tYWUnLCAnPG91dGZpbGUubWFlPic=

>  <r_epik_Ionization_Penalty>  (27) 
0.216692

>  <r_epik_Ionization_Penalty_Charging>  (27) 
0.00125096

>  <r_epik_Ionization_Penalty_Neutral>  (27) 
0.215441

>  <r_epik_State_Penalty>  (27) 
0.265653

>  <r_epik_Charging_Adjusted_Penalty>  (27) 
0.266904

>  <i_epik_Tot_Q>  (27) 
1

>  <i_epik_Tot_abs_Q>  (27) 
1

>  <s_lp_Force_Field>  (27) 
OPLS3e

>  <r_lp_Energy>  (27) 
6.62968

>  <b_lp_Chiralities_Consistent>  (27) 
1

>  <s_lp_Variant>  (27) 
5:0-1

>  <s_i_glide_gridfile>  (27) 
pfpi4k_grid

>  <i_i_glide_lignum>  (27) 
11

>  <i_i_glide_rotatable_bonds>  (27) 
2

>  <r_i_docking_score>  (27) 
-3.11576

>  <r_i_glide_ligand_efficiency>  (27) 
-0.163987

>  <r_i_glide_ligand_efficiency_sa>  (27) 
-0.437583

>  <r_i_glide_ligand_efficiency_ln>  (27) 
-0.789911

>  <r_i_glide_gscore>  (27) 
-3.11576

>  <r_i_glide_lipo>  (27) 
-0.585013

>  <r_i_glide_hbond>  (27) 
0

>  <r_i_glide_metal>  (27) 
-0

>  <r_i_glide_rewards>  (27) 
-1.62664

>  <r_i_glide_evdw>  (27) 
-20.2636

>  <r_i_glide_ecoul>  (27) 
-2.73009

>  <r_i_glide_erotb>  (27) 
0.518596

>  <r_i_glide_esite>  (27) 
0

>  <r_i_glide_emodel>  (27) 
-28.388

>  <r_i_glide_energy>  (27) 
-22.9937

>  <r_i_glide_einternal>  (27) 
0.407809

>  <r_i_glide_intrahb_reward>  (27) 
-0

>  <i_i_glide_confnum>  (27) 
2

>  <i_i_glide_posenum>  (27) 
24

>  <r_i_glide_eff_state_penalty>  (27) 
0

>  <ligand_id>  (27) 
5

>  <original_smiles>  (27) 
C1C2CC3CC1CC(C2)C3NC1CN2CCC1CC2

>  <smiles>  (27) 
[H]C1([H])N2C([H])([H])C([H])([H])C([H])(C1([H])[H])C([H])([N+]([H])([H])C1([H])C3([H])C([H])([H])C4([H])C([H])([H])C([H])(C3([H])[H])C([H])([H])C1([H])C4([H])[H])C2([H])[H]

$$$$
5:1:0
     RDKit          3D

 49 53  0  0  1  0  0  0  0  0999 V2000
    6.0701   -3.3741    0.2721 C   0  0  0  0  0  0  0  0  0  0  0  0
    4.6508   -3.8398   -0.1288 C   0  0  2  0  0  0  0  0  0  0  0  0
    3.9466   -2.7210   -0.9250 C   0  0  0  0  0  0  0  0  0  0  0  0
    3.8440   -1.4518   -0.0500 C   0  0  2  0  0  0  0  0  0  0  0  0
    5.2677   -0.9842    0.3402 C   0  0  0  0  0  0  0  0  0  0  0  0
    5.9720   -2.1013    1.1393 C   0  0  1  0  0  0  0  0  0  0  0  0
    5.1601   -2.4246    2.4169 C   0  0  0  0  0  0  0  0  0  0  0  0
    3.7261   -2.8761    2.0222 C   0  0  2  0  0  0  0  0  0  0  0  0
    3.8301   -4.1483    1.1449 C   0  0  0  0  0  0  0  0  0  0  0  0
    3.0139   -1.7568    1.2214 C   0  0  1  0  0  0  0  0  0  0  0  0
    2.8929   -0.5277    2.0372 N   0  0  0  0  0  0  0  0  0  0  0  0
    1.5704   -0.1829    2.6068 C   0  0  2  0  0  0  0  0  0  0  0  0
    0.8482    0.8548    1.7005 C   0  0  0  0  0  0  0  0  0  0  0  0
    0.6325    2.1407    2.4196 N   0  0  2  0  0  0  0  0  0  0  0  0
    1.9252    2.7039    2.9156 C   0  0  0  0  0  0  0  0  0  0  0  0
    2.5874    1.7199    3.9163 C   0  0  0  0  0  0  0  0  0  0  0  0
    1.7357    0.4309    4.0185 C   0  0  1  0  0  0  0  0  0  0  0  0
    0.3336    0.8512    4.5245 C   0  0  0  0  0  0  0  0  0  0  0  0
   -0.2874    1.9041    3.5608 C   0  0  0  0  0  0  0  0  0  0  0  0
    6.6708   -3.1839   -0.6198 H   0  0  0  0  0  0  0  0  0  0  0  0
    6.5754   -4.1632    0.8287 H   0  0  0  0  0  0  0  0  0  0  0  0
    4.7248   -4.7377   -0.7495 H   0  0  0  0  0  0  0  0  0  0  0  0
    4.5038   -2.5078   -1.8382 H   0  0  0  0  0  0  0  0  0  0  0  0
    2.9553   -3.0547   -1.2418 H   0  0  0  0  0  0  0  0  0  0  0  0
    3.3461   -0.6706   -0.6239 H   0  0  0  0  0  0  0  0  0  0  0  0
    5.8308   -0.7277   -0.5575 H   0  0  0  0  0  0  0  0  0  0  0  0
    5.2339   -0.0696    0.9341 H   0  0  0  0  0  0  0  0  0  0  0  0
    6.9756   -1.7656    1.4135 H   0  0  0  0  0  0  0  0  0  0  0  0
    5.6578   -3.2167    2.9809 H   0  0  0  0  0  0  0  0  0  0  0  0
    5.1395   -1.5568    3.0770 H   0  0  0  0  0  0  0  0  0  0  0  0
    3.1577   -3.1121    2.9257 H   0  0  0  0  0  0  0  0  0  0  0  0
    2.8359   -4.5062    0.8692 H   0  0  0  0  0  0  0  0  0  0  0  0
    4.3074   -4.9556    1.7053 H   0  0  0  0  0  0  0  0  0  0  0  0
    2.0244   -2.0871    0.9072 H   0  0  0  0  0  0  0  0  0  0  0  0
    3.5667   -0.6010    2.7829 H   0  0  0  0  0  0  0  0  0  0  0  0
    0.9705   -1.0889    2.6952 H   0  0  0  0  0  0  0  0  0  0  0  0
    1.4436    1.0181    0.8121 H   0  0  0  0  0  0  0  0  0  0  0  0
   -0.1037    0.4636    1.3400 H   0  0  0  0  0  0  0  0  0  0  0  0
    2.5954    2.9032    2.0821 H   0  0  0  0  0  0  0  0  0  0  0  0
    1.7496    3.6705    3.3924 H   0  0  0  0  0  0  0  0  0  0  0  0
    3.6113    1.5059    3.6074 H   0  0  0  0  0  0  0  0  0  0  0  0
    2.6848    2.1859    4.8975 H   0  0  0  0  0  0  0  0  0  0  0  0
    2.1911   -0.2796    4.7055 H   0  0  0  0  0  0  0  0  0  0  0  0
   -0.3204   -0.0205    4.6037 H   0  0  0  0  0  0  0  0  0  0  0  0
    0.4066    1.2662    5.5309 H   0  0  0  0  0  0  0  0  0  0  0  0
   -0.4816    2.8404    4.0838 H   0  0  0  0  0  0  0  0  0  0  0  0
   -1.2551    1.5624    3.1920 H   0  0  0  0  0  0  0  0  0  0  0  0
    0.2215    2.8275    1.7839 H   0  0  0  0  0  0  0  0  0  0  0  0
    3.1798    0.2381    1.4453 H   0  0  0  0  0  0  0  0  0  0  0  0
  1  6  1  0
  1  2  1  0
  1 20  1  0
  1 21  1  0
  2  9  1  0
  2  3  1  0
  2 22  1  6
  3  4  1  0
  3 23  1  0
  3 24  1  0
  4 10  1  0
  4  5  1  0
  4 25  1  6
  5  6  1  0
  5 26  1  0
  5 27  1  0
  6  7  1  0
  6 28  1  1
  7  8  1  0
  7 29  1  0
  7 30  1  0
  8  9  1  0
  8 10  1  0
  8 31  1  1
  9 32  1  0
  9 33  1  0
 10 11  1  0
 10 34  1  6
 11 12  1  0
 11 35  1  0
 11 49  1  0
 12 17  1  0
 12 13  1  0
 12 36  1  1
 13 14  1  0
 13 37  1  0
 13 38  1  0
 14 19  1  0
 14 15  1  0
 14 48  1  6
 15 16  1  0
 15 39  1  0
 15 40  1  0
 16 17  1  0
 16 41  1  0
 16 42  1  0
 17 18  1  0
 17 43  1  1
 18 19  1  0
 18 44  1  0
 18 45  1  0
 19 46  1  0
 19 47  1  0
M  CHG  2  11   1  14   1
M  END
>  <i_m_ct_stereo_status>  (28) 
1

>  <s_m_source_file>  (28) 
/var/tmp/pbs.5076255.sched01/tmpikn618da/06v91y69d.sdf

>  <i_m_source_file_index>  (28) 
12

>  <i_lp_mmshare_version>  (28) 
48012

>  <i_f3d_flags>  (28) 
0

>  <s_epik_input>  (28) 
W0NAQEhdMTJbQ0gyXVtDQEhdM1tDSDJdW0NAQEhdKFtDSDJdMSlbQ0BASF0oW0NASF0oW0NIMl0zKVtDSDJdMilbTkhdW0NASF0oW0NIMl1ONDUpW0NIXShbQ0gyXVtDSDJdNClbQ0gyXVtDSDJdNQ==

>  <s_epik_cmdline>  (28) 
J2VwaWtfcHl0aG9uJywgJy1waHQnLCAnMi4wJywgJy1waCcsICc3LjAnLCAnLXRuJywgJzgnLCAnLW1hJywgJzIwMCcsICctaW1hZScsICc8aW5maWxlLm1hZT4nLCAnLW9tYWUnLCAnPG91dGZpbGUubWFlPic=

>  <r_epik_Ionization_Penalty>  (28) 
0.897819

>  <r_epik_Ionization_Penalty_Charging>  (28) 
0.897819

>  <r_epik_Ionization_Penalty_Neutral>  (28) 
0

>  <r_epik_State_Penalty>  (28) 
0.786817

>  <r_epik_Charging_Adjusted_Penalty>  (28) 
1.68464

>  <i_epik_Tot_Q>  (28) 
2

>  <i_epik_Tot_abs_Q>  (28) 
2

>  <s_lp_Force_Field>  (28) 
OPLS3e

>  <r_lp_Energy>  (28) 
38.9859

>  <b_lp_Chiralities_Consistent>  (28) 
1

>  <s_lp_Variant>  (28) 
5:0-2

>  <s_i_glide_gridfile>  (28) 
pfpi4k_grid

>  <i_i_glide_lignum>  (28) 
12

>  <i_i_glide_rotatable_bonds>  (28) 
2

>  <r_i_docking_score>  (28) 
-4.04744

>  <r_i_glide_ligand_efficiency>  (28) 
-0.213023

>  <r_i_glide_ligand_efficiency_sa>  (28) 
-0.568431

>  <r_i_glide_ligand_efficiency_ln>  (28) 
-1.02611

>  <r_i_glide_gscore>  (28) 
-4.04744

>  <r_i_glide_lipo>  (28) 
-0.390537

>  <r_i_glide_hbond>  (28) 
-0.2

>  <r_i_glide_metal>  (28) 
-0

>  <r_i_glide_rewards>  (28) 
-1.61977

>  <r_i_glide_evdw>  (28) 
-20.3206

>  <r_i_glide_ecoul>  (28) 
-8.09872

>  <r_i_glide_erotb>  (28) 
0.515168

>  <r_i_glide_esite>  (28) 
-0.121453

>  <r_i_glide_emodel>  (28) 
-37.0405

>  <r_i_glide_energy>  (28) 
-28.4194

>  <r_i_glide_einternal>  (28) 
2.29629

>  <r_i_glide_intrahb_reward>  (28) 
-0

>  <i_i_glide_confnum>  (28) 
4

>  <i_i_glide_posenum>  (28) 
10

>  <r_i_glide_eff_state_penalty>  (28) 
0

>  <ligand_id>  (28) 
5

>  <original_smiles>  (28) 
C1C2CC3CC1CC(C2)C3NC1CN2CCC1CC2

>  <smiles>  (28) 
[H]C1([H])C2([H])C([H])([H])C3([H])C([H])([H])C1([H])C([H])([H])C([H])(C2([H])[H])C3([H])[N+]([H])([H])C1([H])C2([H])C([H])([H])C([H])([H])[N+]([H])(C([H])([H])C2([H])[H])C1([H])[H]

$$$$
5:1:1
     RDKit          3D

 49 53  0  0  1  0  0  0  0  0999 V2000
    3.8146   -2.2861    4.8954 C   0  0  0  0  0  0  0  0  0  0  0  0
    2.7592   -3.3532    4.5303 C   0  0  2  0  0  0  0  0  0  0  0  0
    3.3805   -4.3666    3.5634 C   0  0  0  0  0  0  0  0  0  0  0  0
    3.8531   -3.6460    2.2836 C   0  0  2  0  0  0  0  0  0  0  0  0
    4.9173   -2.5813    2.6615 C   0  0  0  0  0  0  0  0  0  0  0  0
    4.2817   -1.5533    3.6181 C   0  0  1  0  0  0  0  0  0  0  0  0
    3.0620   -0.8602    2.9582 C   0  0  0  0  0  0  0  0  0  0  0  0
    2.0186   -1.9386    2.5592 C   0  0  2  0  0  0  0  0  0  0  0  0
    1.5475   -2.6786    3.8322 C   0  0  0  0  0  0  0  0  0  0  0  0
    2.6467   -2.9592    1.5779 C   0  0  1  0  0  0  0  0  0  0  0  0
    3.0396   -2.2623    0.3219 N   0  0  0  0  0  0  0  0  0  0  0  0
    3.2294   -3.0370   -0.9295 C   0  0  2  0  0  0  0  0  0  0  0  0
    4.4567   -4.0111   -0.8414 C   0  0  0  0  0  0  0  0  0  0  0  0
    5.4583   -3.6847   -1.8889 N   0  0  2  0  0  0  0  0  0  0  0  0
    5.9364   -2.3037   -1.6711 C   0  0  0  0  0  0  0  0  0  0  0  0
    4.7681   -1.2920   -1.9032 C   0  0  0  0  0  0  0  0  0  0  0  0
    3.4511   -2.0770   -2.1320 C   0  0  1  0  0  0  0  0  0  0  0  0
    3.6484   -2.9203   -3.4220 C   0  0  0  0  0  0  0  0  0  0  0  0
    4.8971   -3.8329   -3.2522 C   0  0  0  0  0  0  0  0  0  0  0  0
    4.6711   -2.7654    5.3706 H   0  0  0  0  0  0  0  0  0  0  0  0
    3.3994   -1.5674    5.5980 H   0  0  0  0  0  0  0  0  0  0  0  0
    2.4444   -3.8715    5.4458 H   0  0  0  0  0  0  0  0  0  0  0  0
    4.2227   -4.8543    4.0538 H   0  0  0  0  0  0  0  0  0  0  0  0
    2.6503   -5.1471    3.3335 H   0  0  0  0  0  0  0  0  0  0  0  0
    4.2658   -4.4339    1.6850 H   0  0  0  0  0  0  0  0  0  0  0  0
    5.7920   -3.0517    3.1231 H   0  0  0  0  0  0  0  0  0  0  0  0
    5.2888   -2.0744    1.7805 H   0  0  0  0  0  0  0  0  0  0  0  0
    5.0306   -0.7936    3.8771 H   0  0  0  0  0  0  0  0  0  0  0  0
    2.6103   -0.1609    3.6557 H   0  0  0  0  0  0  0  0  0  0  0  0
    3.3831   -0.2537    2.1030 H   0  0  0  0  0  0  0  0  0  0  0  0
    1.1582   -1.4535    2.0816 H   0  0  0  0  0  0  0  0  0  0  0  0
    0.8018   -3.4414    3.5731 H   0  0  0  0  0  0  0  0  0  0  0  0
    1.0693   -1.9826    4.5132 H   0  0  0  0  0  0  0  0  0  0  0  0
    1.9023   -3.7042    1.3169 H   0  0  0  0  0  0  0  0  0  0  0  0
    2.2950   -1.5971    0.1076 H   0  0  0  0  0  0  0  0  0  0  0  0
    2.2993   -3.5844   -1.1243 H   0  0  0  0  0  0  0  0  0  0  0  0
    5.0604   -3.9508    0.0608 H   0  0  0  0  0  0  0  0  0  0  0  0
    4.1543   -5.0550   -0.9127 H   0  0  0  0  0  0  0  0  0  0  0  0
    6.3354   -2.1997   -0.6639 H   0  0  0  0  0  0  0  0  0  0  0  0
    6.7992   -2.1199   -2.3106 H   0  0  0  0  0  0  0  0  0  0  0  0
    4.6962   -0.5907   -1.0618 H   0  0  0  0  0  0  0  0  0  0  0  0
    4.9889   -0.6473   -2.7628 H   0  0  0  0  0  0  0  0  0  0  0  0
    2.6214   -1.4012   -2.2795 H   0  0  0  0  0  0  0  0  0  0  0  0
    2.7675   -3.5510   -3.6199 H   0  0  0  0  0  0  0  0  0  0  0  0
    3.7753   -2.2821   -4.3097 H   0  0  0  0  0  0  0  0  0  0  0  0
    5.6796   -3.6326   -3.9857 H   0  0  0  0  0  0  0  0  0  0  0  0
    4.6454   -4.8671   -3.4449 H   0  0  0  0  0  0  0  0  0  0  0  0
    6.2042   -4.3369   -1.8220 H   0  0  0  0  0  0  0  0  0  0  0  0
    3.8787   -1.7438    0.5403 H   0  0  0  0  0  0  0  0  0  0  0  0
  1  6  1  0
  1  2  1  0
  1 20  1  0
  1 21  1  0
  2  9  1  0
  2  3  1  0
  2 22  1  1
  3  4  1  0
  3 23  1  0
  3 24  1  0
  4 10  1  0
  4  5  1  0
  4 25  1  6
  5  6  1  0
  5 26  1  0
  5 27  1  0
  6  7  1  0
  6 28  1  1
  7  8  1  0
  7 29  1  0
  7 30  1  0
  8  9  1  0
  8 10  1  0
  8 31  1  6
  9 32  1  0
  9 33  1  0
 10 11  1  0
 10 34  1  6
 11 12  1  0
 11 35  1  0
 11 49  1  0
 12 17  1  0
 12 13  1  0
 12 36  1  6
 13 14  1  0
 13 37  1  0
 13 38  1  0
 14 19  1  0
 14 15  1  0
 14 48  1  6
 15 16  1  0
 15 39  1  0
 15 40  1  0
 16 17  1  0
 16 41  1  0
 16 42  1  0
 17 18  1  0
 17 43  1  6
 18 19  1  0
 18 44  1  0
 18 45  1  0
 19 46  1  0
 19 47  1  0
M  CHG  2  11   1  14   1
M  END
>  <i_m_ct_stereo_status>  (29) 
1

>  <s_m_source_file>  (29) 
/var/tmp/pbs.5076255.sched01/tmpikn618da/06v91y69d.sdf

>  <i_m_source_file_index>  (29) 
12

>  <i_lp_mmshare_version>  (29) 
48012

>  <i_f3d_flags>  (29) 
0

>  <s_epik_input>  (29) 
W0NAQEhdMTJbQ0gyXVtDQEhdM1tDSDJdW0NAQEhdKFtDSDJdMSlbQ0BASF0oW0NASF0oW0NIMl0zKVtDSDJdMilbTkhdW0NASF0oW0NIMl1ONDUpW0NIXShbQ0gyXVtDSDJdNClbQ0gyXVtDSDJdNQ==

>  <s_epik_cmdline>  (29) 
J2VwaWtfcHl0aG9uJywgJy1waHQnLCAnMi4wJywgJy1waCcsICc3LjAnLCAnLXRuJywgJzgnLCAnLW1hJywgJzIwMCcsICctaW1hZScsICc8aW5maWxlLm1hZT4nLCAnLW9tYWUnLCAnPG91dGZpbGUubWFlPic=

>  <r_epik_Ionization_Penalty>  (29) 
0.897819

>  <r_epik_Ionization_Penalty_Charging>  (29) 
0.897819

>  <r_epik_Ionization_Penalty_Neutral>  (29) 
0

>  <r_epik_State_Penalty>  (29) 
0.786817

>  <r_epik_Charging_Adjusted_Penalty>  (29) 
1.68464

>  <i_epik_Tot_Q>  (29) 
2

>  <i_epik_Tot_abs_Q>  (29) 
2

>  <s_lp_Force_Field>  (29) 
OPLS3e

>  <r_lp_Energy>  (29) 
38.9859

>  <b_lp_Chiralities_Consistent>  (29) 
1

>  <s_lp_Variant>  (29) 
5:0-2

>  <s_i_glide_gridfile>  (29) 
pfpi4k_grid

>  <i_i_glide_lignum>  (29) 
12

>  <i_i_glide_rotatable_bonds>  (29) 
2

>  <r_i_docking_score>  (29) 
-3.68812

>  <r_i_glide_ligand_efficiency>  (29) 
-0.194111

>  <r_i_glide_ligand_efficiency_sa>  (29) 
-0.517967

>  <r_i_glide_ligand_efficiency_ln>  (29) 
-0.935017

>  <r_i_glide_gscore>  (29) 
-3.68812

>  <r_i_glide_lipo>  (29) 
-0.294038

>  <r_i_glide_hbond>  (29) 
-0.2

>  <r_i_glide_metal>  (29) 
-0

>  <r_i_glide_rewards>  (29) 
-1.61977

>  <r_i_glide_evdw>  (29) 
-20.6505

>  <r_i_glide_ecoul>  (29) 
-6.64548

>  <r_i_glide_erotb>  (29) 
0.515168

>  <r_i_glide_esite>  (29) 
-0.0601298

>  <r_i_glide_emodel>  (29) 
-35.1422

>  <r_i_glide_energy>  (29) 
-27.2959

>  <r_i_glide_einternal>  (29) 
0.32825

>  <r_i_glide_intrahb_reward>  (29) 
-0

>  <i_i_glide_confnum>  (29) 
3

>  <i_i_glide_posenum>  (29) 
11

>  <r_i_glide_eff_state_penalty>  (29) 
0

>  <ligand_id>  (29) 
5

>  <original_smiles>  (29) 
C1C2CC3CC1CC(C2)C3NC1CN2CCC1CC2

>  <smiles>  (29) 
[H]C1([H])C2([H])C([H])([H])C3([H])C([H])([H])C1([H])C([H])([H])C([H])(C2([H])[H])C3([H])[N+]([H])([H])C1([H])C2([H])C([H])([H])C([H])([H])[N+]([H])(C([H])([H])C2([H])[H])C1([H])[H]

$$$$
5:1:2
     RDKit          3D

 49 53  0  0  1  0  0  0  0  0999 V2000
    5.8166   -2.4333   -0.1608 C   0  0  0  0  0  0  0  0  0  0  0  0
    5.0100   -3.5371    0.5683 C   0  0  2  0  0  0  0  0  0  0  0  0
    3.5009   -3.2711    0.4063 C   0  0  0  0  0  0  0  0  0  0  0  0
    3.1589   -1.8988    1.0084 C   0  0  2  0  0  0  0  0  0  0  0  0
    3.9715   -0.7951    0.2685 C   0  0  0  0  0  0  0  0  0  0  0  0
    5.4754   -1.0575    0.4418 C   0  0  1  0  0  0  0  0  0  0  0  0
    5.8240   -1.0458    1.9480 C   0  0  0  0  0  0  0  0  0  0  0  0
    5.0008   -2.1329    2.6886 C   0  0  2  0  0  0  0  0  0  0  0  0
    5.3494   -3.5168    2.0775 C   0  0  0  0  0  0  0  0  0  0  0  0
    3.4822   -1.8557    2.5193 C   0  0  1  0  0  0  0  0  0  0  0  0
    3.1279   -0.5504    3.1108 N   0  0  0  0  0  0  0  0  0  0  0  0
    1.6867   -0.1973    3.2340 C   0  0  2  0  0  0  0  0  0  0  0  0
    1.0696    0.3488    1.9004 C   0  0  0  0  0  0  0  0  0  0  0  0
    0.6364    1.7531    2.0561 N   0  0  2  0  0  0  0  0  0  0  0  0
    1.7746    2.6072    2.5148 C   0  0  0  0  0  0  0  0  0  0  0  0
    2.2737    2.1544    3.9113 C   0  0  0  0  0  0  0  0  0  0  0  0
    1.4954    0.8845    4.3328 C   0  0  1  0  0  0  0  0  0  0  0  0
   -0.0136    1.2768    4.3937 C   0  0  0  0  0  0  0  0  0  0  0  0
   -0.4836    1.8322    3.0207 C   0  0  0  0  0  0  0  0  0  0  0  0
    5.5763   -2.4399   -1.2267 H   0  0  0  0  0  0  0  0  0  0  0  0
    6.8844   -2.6231   -0.0607 H   0  0  0  0  0  0  0  0  0  0  0  0
    5.2517   -4.5130    0.1336 H   0  0  0  0  0  0  0  0  0  0  0  0
    3.2259   -3.2905   -0.6485 H   0  0  0  0  0  0  0  0  0  0  0  0
    2.9218   -4.0623    0.8883 H   0  0  0  0  0  0  0  0  0  0  0  0
    2.0904   -1.7778    0.8801 H   0  0  0  0  0  0  0  0  0  0  0  0
    3.6984   -0.7750   -0.7891 H   0  0  0  0  0  0  0  0  0  0  0  0
    3.7887    0.2100    0.6527 H   0  0  0  0  0  0  0  0  0  0  0  0
    6.0334   -0.2699   -0.0715 H   0  0  0  0  0  0  0  0  0  0  0  0
    6.8971   -1.2224    2.0784 H   0  0  0  0  0  0  0  0  0  0  0  0
    5.6388   -0.0592    2.3692 H   0  0  0  0  0  0  0  0  0  0  0  0
    5.2680   -2.1360    3.7490 H   0  0  0  0  0  0  0  0  0  0  0  0
    4.8023   -4.3102    2.5971 H   0  0  0  0  0  0  0  0  0  0  0  0
    6.4144   -3.7266    2.2042 H   0  0  0  0  0  0  0  0  0  0  0  0
    2.9269   -2.6314    3.0452 H   0  0  0  0  0  0  0  0  0  0  0  0
    3.5297   -0.5314    4.0299 H   0  0  0  0  0  0  0  0  0  0  0  0
    1.1501   -1.0879    3.5672 H   0  0  0  0  0  0  0  0  0  0  0  0
    1.7479    0.3694    1.0549 H   0  0  0  0  0  0  0  0  0  0  0  0
    0.2046   -0.2605    1.6105 H   0  0  0  0  0  0  0  0  0  0  0  0
    2.5854    2.5398    1.7930 H   0  0  0  0  0  0  0  0  0  0  0  0
    1.4848    3.6570    2.5347 H   0  0  0  0  0  0  0  0  0  0  0  0
    3.3552    1.9965    3.8939 H   0  0  0  0  0  0  0  0  0  0  0  0
    2.1273    2.9566    4.6382 H   0  0  0  0  0  0  0  0  0  0  0  0
    1.8309    0.5403    5.3119 H   0  0  0  0  0  0  0  0  0  0  0  0
   -0.6195    0.4080    4.6660 H   0  0  0  0  0  0  0  0  0  0  0  0
   -0.1811    2.0312    5.1651 H   0  0  0  0  0  0  0  0  0  0  0  0
   -0.8314    2.8665    3.0888 H   0  0  0  0  0  0  0  0  0  0  0  0
   -1.3246    1.2605    2.6266 H   0  0  0  0  0  0  0  0  0  0  0  0
    0.3082    2.1117    1.1665 H   0  0  0  0  0  0  0  0  0  0  0  0
    3.5841    0.1598    2.5623 H   0  0  0  0  0  0  0  0  0  0  0  0
  1  6  1  0
  1  2  1  0
  1 20  1  0
  1 21  1  0
  2  9  1  0
  2  3  1  0
  2 22  1  6
  3  4  1  0
  3 23  1  0
  3 24  1  0
  4 10  1  0
  4  5  1  0
  4 25  1  1
  5  6  1  0
  5 26  1  0
  5 27  1  0
  6  7  1  0
  6 28  1  6
  7  8  1  0
  7 29  1  0
  7 30  1  0
  8  9  1  0
  8 10  1  0
  8 31  1  1
  9 32  1  0
  9 33  1  0
 10 11  1  0
 10 34  1  1
 11 12  1  0
 11 35  1  0
 11 49  1  0
 12 17  1  0
 12 13  1  0
 12 36  1  1
 13 14  1  0
 13 37  1  0
 13 38  1  0
 14 19  1  0
 14 15  1  0
 14 48  1  6
 15 16  1  0
 15 39  1  0
 15 40  1  0
 16 17  1  0
 16 41  1  0
 16 42  1  0
 17 18  1  0
 17 43  1  1
 18 19  1  0
 18 44  1  0
 18 45  1  0
 19 46  1  0
 19 47  1  0
M  CHG  2  11   1  14   1
M  END
>  <i_m_ct_stereo_status>  (30) 
1

>  <s_m_source_file>  (30) 
/var/tmp/pbs.5076255.sched01/tmpikn618da/06v91y69d.sdf

>  <i_m_source_file_index>  (30) 
12

>  <i_lp_mmshare_version>  (30) 
48012

>  <i_f3d_flags>  (30) 
0

>  <s_epik_input>  (30) 
W0NAQEhdMTJbQ0gyXVtDQEhdM1tDSDJdW0NAQEhdKFtDSDJdMSlbQ0BASF0oW0NASF0oW0NIMl0zKVtDSDJdMilbTkhdW0NASF0oW0NIMl1ONDUpW0NIXShbQ0gyXVtDSDJdNClbQ0gyXVtDSDJdNQ==

>  <s_epik_cmdline>  (30) 
J2VwaWtfcHl0aG9uJywgJy1waHQnLCAnMi4wJywgJy1waCcsICc3LjAnLCAnLXRuJywgJzgnLCAnLW1hJywgJzIwMCcsICctaW1hZScsICc8aW5maWxlLm1hZT4nLCAnLW9tYWUnLCAnPG91dGZpbGUubWFlPic=

>  <r_epik_Ionization_Penalty>  (30) 
0.897819

>  <r_epik_Ionization_Penalty_Charging>  (30) 
0.897819

>  <r_epik_Ionization_Penalty_Neutral>  (30) 
0

>  <r_epik_State_Penalty>  (30) 
0.786817

>  <r_epik_Charging_Adjusted_Penalty>  (30) 
1.68464

>  <i_epik_Tot_Q>  (30) 
2

>  <i_epik_Tot_abs_Q>  (30) 
2

>  <s_lp_Force_Field>  (30) 
OPLS3e

>  <r_lp_Energy>  (30) 
38.9859

>  <b_lp_Chiralities_Consistent>  (30) 
1

>  <s_lp_Variant>  (30) 
5:0-2

>  <s_i_glide_gridfile>  (30) 
pfpi4k_grid

>  <i_i_glide_lignum>  (30) 
12

>  <i_i_glide_rotatable_bonds>  (30) 
2

>  <r_i_docking_score>  (30) 
-3.50981

>  <r_i_glide_ligand_efficiency>  (30) 
-0.184727

>  <r_i_glide_ligand_efficiency_sa>  (30) 
-0.492925

>  <r_i_glide_ligand_efficiency_ln>  (30) 
-0.889812

>  <r_i_glide_gscore>  (30) 
-3.50981

>  <r_i_glide_lipo>  (30) 
-0.361743

>  <r_i_glide_hbond>  (30) 
-0.0446425

>  <r_i_glide_metal>  (30) 
-0

>  <r_i_glide_rewards>  (30) 
-1.61977

>  <r_i_glide_evdw>  (30) 
-19.4395

>  <r_i_glide_ecoul>  (30) 
-6.3724

>  <r_i_glide_erotb>  (30) 
0.515168

>  <r_i_glide_esite>  (30) 
-0.0709815

>  <r_i_glide_emodel>  (30) 
-33.5241

>  <r_i_glide_energy>  (30) 
-25.8119

>  <r_i_glide_einternal>  (30) 
0.686478

>  <r_i_glide_intrahb_reward>  (30) 
-0

>  <i_i_glide_confnum>  (30) 
4

>  <i_i_glide_posenum>  (30) 
2

>  <r_i_glide_eff_state_penalty>  (30) 
0

>  <ligand_id>  (30) 
5

>  <original_smiles>  (30) 
C1C2CC3CC1CC(C2)C3NC1CN2CCC1CC2

>  <smiles>  (30) 
[H]C1([H])C2([H])C([H])([H])C3([H])C([H])([H])C1([H])C([H])([H])C([H])(C2([H])[H])C3([H])[N+]([H])([H])C1([H])C2([H])C([H])([H])C([H])([H])[N+]([H])(C([H])([H])C2([H])[H])C1([H])[H]

$$$$
5:2:0
     RDKit          3D

 48 52  0  0  1  0  0  0  0  0999 V2000
    5.8045   -3.3903   -0.0398 C   0  0  0  0  0  0  0  0  0  0  0  0
    5.7136   -2.8464    1.4016 C   0  0  1  0  0  0  0  0  0  0  0  0
    5.8768   -1.3109    1.3801 C   0  0  0  0  0  0  0  0  0  0  0  0
    4.7494   -0.6815    0.5285 C   0  0  1  0  0  0  0  0  0  0  0  0
    4.8505   -1.2286   -0.9182 C   0  0  0  0  0  0  0  0  0  0  0  0
    4.6811   -2.7671   -0.8980 C   0  0  2  0  0  0  0  0  0  0  0  0
    3.3040   -3.1305   -0.2948 C   0  0  0  0  0  0  0  0  0  0  0  0
    3.2134   -2.5925    1.1499 C   0  0  1  0  0  0  0  0  0  0  0  0
    4.3407   -3.2169    2.0008 C   0  0  0  0  0  0  0  0  0  0  0  0
    3.3572   -1.0584    1.0842 C   0  0  1  0  0  0  0  0  0  0  0  0
    3.1202   -0.4163    2.3795 N   0  0  0  0  0  0  0  0  0  0  0  0
    1.7179   -0.1260    2.6673 C   0  0  2  0  0  0  0  0  0  0  0  0
    1.1319    0.9136    1.6700 C   0  0  0  0  0  0  0  0  0  0  0  0
    0.7187    2.1512    2.3686 N   0  0  2  0  0  0  0  0  0  0  0  0
    1.8701    2.7473    3.0964 C   0  0  0  0  0  0  0  0  0  0  0  0
    2.3733    1.7712    4.1942 C   0  0  0  0  0  0  0  0  0  0  0  0
    1.5839    0.4428    4.1064 C   0  0  1  0  0  0  0  0  0  0  0  0
    0.0909    0.7887    4.3446 C   0  0  0  0  0  0  0  0  0  0  0  0
   -0.3885    1.8413    3.3042 C   0  0  0  0  0  0  0  0  0  0  0  0
    5.7191   -4.4785   -0.0378 H   0  0  0  0  0  0  0  0  0  0  0  0
    6.7779   -3.1488   -0.4716 H   0  0  0  0  0  0  0  0  0  0  0  0
    6.5061   -3.2936    2.0063 H   0  0  0  0  0  0  0  0  0  0  0  0
    5.8556   -0.9112    2.3950 H   0  0  0  0  0  0  0  0  0  0  0  0
    6.8525   -1.0390    0.9718 H   0  0  0  0  0  0  0  0  0  0  0  0
    4.8569    0.4040    0.5070 H   0  0  0  0  0  0  0  0  0  0  0  0
    4.0814   -0.7768   -1.5487 H   0  0  0  0  0  0  0  0  0  0  0  0
    5.8126   -0.9655   -1.3614 H   0  0  0  0  0  0  0  0  0  0  0  0
    4.7403   -3.1587   -1.9181 H   0  0  0  0  0  0  0  0  0  0  0  0
    2.5134   -2.6872   -0.9036 H   0  0  0  0  0  0  0  0  0  0  0  0
    3.1490   -4.2095   -0.3199 H   0  0  0  0  0  0  0  0  0  0  0  0
    2.2389   -2.8596    1.5588 H   0  0  0  0  0  0  0  0  0  0  0  0
    4.2261   -4.3005    2.0394 H   0  0  0  0  0  0  0  0  0  0  0  0
    4.2814   -2.8697    3.0331 H   0  0  0  0  0  0  0  0  0  0  0  0
    2.6304   -0.6913    0.3656 H   0  0  0  0  0  0  0  0  0  0  0  0
    3.5329   -0.9945    3.0979 H   0  0  0  0  0  0  0  0  0  0  0  0
    1.1515   -1.0562    2.6042 H   0  0  0  0  0  0  0  0  0  0  0  0
    1.8397    1.2023    0.8982 H   0  0  0  0  0  0  0  0  0  0  0  0
    0.2710    0.4913    1.1622 H   0  0  0  0  0  0  0  0  0  0  0  0
    2.6748    2.9729    2.3966 H   0  0  0  0  0  0  0  0  0  0  0  0
    1.5810    3.7043    3.5342 H   0  0  0  0  0  0  0  0  0  0  0  0
    3.4468    1.6033    4.0811 H   0  0  0  0  0  0  0  0  0  0  0  0
    2.2545    2.2174    5.1804 H   0  0  0  0  0  0  0  0  0  0  0  0
    1.9325   -0.2723    4.8522 H   0  0  0  0  0  0  0  0  0  0  0  0
   -0.5283   -0.1080    4.2817 H   0  0  0  0  0  0  0  0  0  0  0  0
   -0.0463    1.1852    5.3513 H   0  0  0  0  0  0  0  0  0  0  0  0
   -0.7226    2.7567    3.7928 H   0  0  0  0  0  0  0  0  0  0  0  0
   -1.2467    1.4705    2.7463 H   0  0  0  0  0  0  0  0  0  0  0  0
    0.3985    2.8383    1.6817 H   0  0  0  0  0  0  0  0  0  0  0  0
  1  6  1  0
  1  2  1  0
  1 20  1  0
  1 21  1  0
  2  9  1  0
  2  3  1  0
  2 22  1  1
  3  4  1  0
  3 23  1  0
  3 24  1  0
  4 10  1  0
  4  5  1  0
  4 25  1  6
  5  6  1  0
  5 26  1  0
  5 27  1  0
  6  7  1  0
  6 28  1  6
  7  8  1  0
  7 29  1  0
  7 30  1  0
  8  9  1  0
  8 10  1  0
  8 31  1  1
  9 32  1  0
  9 33  1  0
 10 11  1  0
 10 34  1  6
 11 12  1  0
 11 35  1  0
 12 17  1  0
 12 13  1  0
 12 36  1  1
 13 14  1  0
 13 37  1  0
 13 38  1  0
 14 19  1  0
 14 15  1  0
 14 48  1  6
 15 16  1  0
 15 39  1  0
 15 40  1  0
 16 17  1  0
 16 41  1  0
 16 42  1  0
 17 18  1  0
 17 43  1  1
 18 19  1  0
 18 44  1  0
 18 45  1  0
 19 46  1  0
 19 47  1  0
M  CHG  1  14   1
M  END
>  <i_m_ct_stereo_status>  (31) 
1

>  <s_m_source_file>  (31) 
/var/tmp/pbs.5076255.sched01/tmpikn618da/06v91y69d.sdf

>  <i_m_source_file_index>  (31) 
13

>  <i_lp_mmshare_version>  (31) 
48012

>  <i_f3d_flags>  (31) 
0

>  <s_epik_input>  (31) 
W0NAQEhdMTJbQ0gyXVtDQEhdM1tDSDJdW0NAQEhdKFtDSDJdMSlbQ0BASF0oW0NASF0oW0NIMl0zKVtDSDJdMilbTkhdW0NASF0oW0NIMl1ONDUpW0NIXShbQ0gyXVtDSDJdNClbQ0gyXVtDSDJdNQ==

>  <s_epik_cmdline>  (31) 
J2VwaWtfcHl0aG9uJywgJy1waHQnLCAnMi4wJywgJy1waCcsICc3LjAnLCAnLXRuJywgJzgnLCAnLW1hJywgJzIwMCcsICctaW1hZScsICc8aW5maWxlLm1hZT4nLCAnLW9tYWUnLCAnPG91dGZpbGUubWFlPic=

>  <r_epik_Ionization_Penalty>  (31) 
0.756662

>  <r_epik_Ionization_Penalty_Charging>  (31) 
0.000753008

>  <r_epik_Ionization_Penalty_Neutral>  (31) 
0.755909

>  <r_epik_State_Penalty>  (31) 
1.38645

>  <r_epik_Charging_Adjusted_Penalty>  (31) 
1.3872

>  <i_epik_Tot_Q>  (31) 
1

>  <i_epik_Tot_abs_Q>  (31) 
1

>  <s_lp_Force_Field>  (31) 
OPLS3e

>  <r_lp_Energy>  (31) 
31.407

>  <b_lp_Chiralities_Consistent>  (31) 
1

>  <s_lp_Variant>  (31) 
5:0-3

>  <s_i_glide_gridfile>  (31) 
pfpi4k_grid

>  <i_i_glide_lignum>  (31) 
13

>  <i_i_glide_rotatable_bonds>  (31) 
2

>  <r_i_docking_score>  (31) 
-3.80207

>  <r_i_glide_ligand_efficiency>  (31) 
-0.200109

>  <r_i_glide_ligand_efficiency_sa>  (31) 
-0.533971

>  <r_i_glide_ligand_efficiency_ln>  (31) 
-0.963906

>  <r_i_glide_gscore>  (31) 
-3.80207

>  <r_i_glide_lipo>  (31) 
-0.461442

>  <r_i_glide_hbond>  (31) 
-0.2

>  <r_i_glide_metal>  (31) 
-0

>  <r_i_glide_rewards>  (31) 
-1.62664

>  <r_i_glide_evdw>  (31) 
-22.282

>  <r_i_glide_ecoul>  (31) 
-5.47617

>  <r_i_glide_erotb>  (31) 
0.518596

>  <r_i_glide_esite>  (31) 
-0.0970537

>  <r_i_glide_emodel>  (31) 
-36.1377

>  <r_i_glide_energy>  (31) 
-27.7582

>  <r_i_glide_einternal>  (31) 
0.390608

>  <r_i_glide_intrahb_reward>  (31) 
-0

>  <i_i_glide_confnum>  (31) 
1

>  <i_i_glide_posenum>  (31) 
32

>  <r_i_glide_eff_state_penalty>  (31) 
0

>  <ligand_id>  (31) 
5

>  <original_smiles>  (31) 
C1C2CC3CC1CC(C2)C3NC1CN2CCC1CC2

>  <smiles>  (31) 
[H]N(C1([H])C2([H])C([H])([H])C3([H])C([H])([H])C([H])(C2([H])[H])C([H])([H])C1([H])C3([H])[H])C1([H])C2([H])C([H])([H])C([H])([H])[N+]([H])(C([H])([H])C2([H])[H])C1([H])[H]

$$$$
5:2:1
     RDKit          3D

 48 52  0  0  1  0  0  0  0  0999 V2000
    4.1932   -1.9329   -0.4479 C   0  0  0  0  0  0  0  0  0  0  0  0
    3.8562   -3.3045   -1.0713 C   0  0  1  0  0  0  0  0  0  0  0  0
    5.1020   -4.2121   -1.0184 C   0  0  0  0  0  0  0  0  0  0  0  0
    5.5529   -4.4179    0.4481 C   0  0  1  0  0  0  0  0  0  0  0  0
    5.8822   -3.0376    1.0668 C   0  0  0  0  0  0  0  0  0  0  0  0
    4.6263   -2.1335    1.0202 C   0  0  2  0  0  0  0  0  0  0  0  0
    3.4785   -2.8009    1.8192 C   0  0  0  0  0  0  0  0  0  0  0  0
    3.1482   -4.1726    1.1933 C   0  0  1  0  0  0  0  0  0  0  0  0
    2.7087   -3.9553   -0.2725 C   0  0  0  0  0  0  0  0  0  0  0  0
    4.4199   -5.0586    1.2827 C   0  0  1  0  0  0  0  0  0  0  0  0
    4.1467   -6.4314    0.8570 N   0  0  0  0  0  0  0  0  0  0  0  0
    4.7581   -7.4635    1.6939 C   0  0  2  0  0  0  0  0  0  0  0  0
    4.7831   -8.8345    0.9474 C   0  0  0  0  0  0  0  0  0  0  0  0
    3.9844   -9.8592    1.6833 N   0  0  2  0  0  0  0  0  0  0  0  0
    2.5757   -9.4002    1.8380 C   0  0  0  0  0  0  0  0  0  0  0  0
    2.5207   -8.0860    2.6664 C   0  0  0  0  0  0  0  0  0  0  0  0
    3.9560   -7.6237    3.0100 C   0  0  1  0  0  0  0  0  0  0  0  0
    4.6170   -8.7543    3.8284 C   0  0  0  0  0  0  0  0  0  0  0  0
    4.5835  -10.0854    3.0254 C   0  0  0  0  0  0  0  0  0  0  0  0
    3.3245   -1.2718   -0.5090 H   0  0  0  0  0  0  0  0  0  0  0  0
    4.9933   -1.4530   -1.0131 H   0  0  0  0  0  0  0  0  0  0  0  0
    3.5405   -3.1665   -2.1060 H   0  0  0  0  0  0  0  0  0  0  0  0
    4.8898   -5.1721   -1.4862 H   0  0  0  0  0  0  0  0  0  0  0  0
    5.9144   -3.7683   -1.5971 H   0  0  0  0  0  0  0  0  0  0  0  0
    6.4398   -5.0516    0.4828 H   0  0  0  0  0  0  0  0  0  0  0  0
    6.2184   -3.1525    2.0982 H   0  0  0  0  0  0  0  0  0  0  0  0
    6.7007   -2.5643    0.5196 H   0  0  0  0  0  0  0  0  0  0  0  0
    4.8555   -1.1613    1.4634 H   0  0  0  0  0  0  0  0  0  0  0  0
    3.7804   -2.9299    2.8603 H   0  0  0  0  0  0  0  0  0  0  0  0
    2.5990   -2.1573    1.8256 H   0  0  0  0  0  0  0  0  0  0  0  0
    2.3369   -4.6289    1.7620 H   0  0  0  0  0  0  0  0  0  0  0  0
    1.8236   -3.3209   -0.3240 H   0  0  0  0  0  0  0  0  0  0  0  0
    2.4277   -4.9057   -0.7188 H   0  0  0  0  0  0  0  0  0  0  0  0
    4.7283   -5.0755    2.3268 H   0  0  0  0  0  0  0  0  0  0  0  0
    3.1479   -6.5683    0.8198 H   0  0  0  0  0  0  0  0  0  0  0  0
    5.7870   -7.1609    1.8960 H   0  0  0  0  0  0  0  0  0  0  0  0
    4.4142   -8.7376   -0.0746 H   0  0  0  0  0  0  0  0  0  0  0  0
    5.8129   -9.1821    0.8594 H   0  0  0  0  0  0  0  0  0  0  0  0
    2.1326   -9.2422    0.8573 H   0  0  0  0  0  0  0  0  0  0  0  0
    1.9767  -10.1746    2.3188 H   0  0  0  0  0  0  0  0  0  0  0  0
    1.9742   -7.3153    2.1221 H   0  0  0  0  0  0  0  0  0  0  0  0
    1.9518   -8.2357    3.5847 H   0  0  0  0  0  0  0  0  0  0  0  0
    3.9415   -6.7077    3.5982 H   0  0  0  0  0  0  0  0  0  0  0  0
    5.6467   -8.4908    4.0798 H   0  0  0  0  0  0  0  0  0  0  0  0
    4.0932   -8.8794    4.7776 H   0  0  0  0  0  0  0  0  0  0  0  0
    4.0053  -10.8394    3.5604 H   0  0  0  0  0  0  0  0  0  0  0  0
    5.5876  -10.4977    2.9224 H   0  0  0  0  0  0  0  0  0  0  0  0
    4.0081  -10.7495    1.1660 H   0  0  0  0  0  0  0  0  0  0  0  0
  1  6  1  0
  1  2  1  0
  1 20  1  0
  1 21  1  0
  2  9  1  0
  2  3  1  0
  2 22  1  6
  3  4  1  0
  3 23  1  0
  3 24  1  0
  4 10  1  0
  4  5  1  0
  4 25  1  6
  5  6  1  0
  5 26  1  0
  5 27  1  0
  6  7  1  0
  6 28  1  1
  7  8  1  0
  7 29  1  0
  7 30  1  0
  8  9  1  0
  8 10  1  0
  8 31  1  1
  9 32  1  0
  9 33  1  0
 10 11  1  0
 10 34  1  1
 11 12  1  0
 11 35  1  0
 12 17  1  0
 12 13  1  0
 12 36  1  1
 13 14  1  0
 13 37  1  0
 13 38  1  0
 14 19  1  0
 14 15  1  0
 14 48  1  6
 15 16  1  0
 15 39  1  0
 15 40  1  0
 16 17  1  0
 16 41  1  0
 16 42  1  0
 17 18  1  0
 17 43  1  1
 18 19  1  0
 18 44  1  0
 18 45  1  0
 19 46  1  0
 19 47  1  0
M  CHG  1  14   1
M  END
>  <i_m_ct_stereo_status>  (32) 
1

>  <s_m_source_file>  (32) 
/var/tmp/pbs.5076255.sched01/tmpikn618da/06v91y69d.sdf

>  <i_m_source_file_index>  (32) 
13

>  <i_lp_mmshare_version>  (32) 
48012

>  <i_f3d_flags>  (32) 
0

>  <s_epik_input>  (32) 
W0NAQEhdMTJbQ0gyXVtDQEhdM1tDSDJdW0NAQEhdKFtDSDJdMSlbQ0BASF0oW0NASF0oW0NIMl0zKVtDSDJdMilbTkhdW0NASF0oW0NIMl1ONDUpW0NIXShbQ0gyXVtDSDJdNClbQ0gyXVtDSDJdNQ==

>  <s_epik_cmdline>  (32) 
J2VwaWtfcHl0aG9uJywgJy1waHQnLCAnMi4wJywgJy1waCcsICc3LjAnLCAnLXRuJywgJzgnLCAnLW1hJywgJzIwMCcsICctaW1hZScsICc8aW5maWxlLm1hZT4nLCAnLW9tYWUnLCAnPG91dGZpbGUubWFlPic=

>  <r_epik_Ionization_Penalty>  (32) 
0.756662

>  <r_epik_Ionization_Penalty_Charging>  (32) 
0.000753008

>  <r_epik_Ionization_Penalty_Neutral>  (32) 
0.755909

>  <r_epik_State_Penalty>  (32) 
1.38645

>  <r_epik_Charging_Adjusted_Penalty>  (32) 
1.3872

>  <i_epik_Tot_Q>  (32) 
1

>  <i_epik_Tot_abs_Q>  (32) 
1

>  <s_lp_Force_Field>  (32) 
OPLS3e

>  <r_lp_Energy>  (32) 
31.407

>  <b_lp_Chiralities_Consistent>  (32) 
1

>  <s_lp_Variant>  (32) 
5:0-3

>  <s_i_glide_gridfile>  (32) 
pfpi4k_grid

>  <i_i_glide_lignum>  (32) 
13

>  <i_i_glide_rotatable_bonds>  (32) 
2

>  <r_i_docking_score>  (32) 
-3.33386

>  <r_i_glide_ligand_efficiency>  (32) 
-0.175466

>  <r_i_glide_ligand_efficiency_sa>  (32) 
-0.468215

>  <r_i_glide_ligand_efficiency_ln>  (32) 
-0.845206

>  <r_i_glide_gscore>  (32) 
-3.33386

>  <r_i_glide_lipo>  (32) 
-0.275823

>  <r_i_glide_hbond>  (32) 
-0.2

>  <r_i_glide_metal>  (32) 
-0

>  <r_i_glide_rewards>  (32) 
-1.62664

>  <r_i_glide_evdw>  (32) 
-20.2136

>  <r_i_glide_ecoul>  (32) 
-4.2701

>  <r_i_glide_erotb>  (32) 
0.518596

>  <r_i_glide_esite>  (32) 
-0.0987956

>  <r_i_glide_emodel>  (32) 
-31.4318

>  <r_i_glide_energy>  (32) 
-24.4837

>  <r_i_glide_einternal>  (32) 
1.30882

>  <r_i_glide_intrahb_reward>  (32) 
-0

>  <i_i_glide_confnum>  (32) 
6

>  <i_i_glide_posenum>  (32) 
38

>  <r_i_glide_eff_state_penalty>  (32) 
0

>  <ligand_id>  (32) 
5

>  <original_smiles>  (32) 
C1C2CC3CC1CC(C2)C3NC1CN2CCC1CC2

>  <smiles>  (32) 
[H]N(C1([H])C2([H])C([H])([H])C3([H])C([H])([H])C([H])(C2([H])[H])C([H])([H])C1([H])C3([H])[H])C1([H])C2([H])C([H])([H])C([H])([H])[N+]([H])(C([H])([H])C2([H])[H])C1([H])[H]

$$$$
5:2:2
     RDKit          3D

 48 52  0  0  1  0  0  0  0  0999 V2000
    3.8543   -1.5334   -2.0720 C   0  0  0  0  0  0  0  0  0  0  0  0
    3.6324   -3.0574   -2.1505 C   0  0  1  0  0  0  0  0  0  0  0  0
    5.0027   -3.7709   -2.1687 C   0  0  0  0  0  0  0  0  0  0  0  0
    5.7820   -3.4498   -0.8726 C   0  0  1  0  0  0  0  0  0  0  0  0
    5.9977   -1.9233   -0.8036 C   0  0  0  0  0  0  0  0  0  0  0  0
    4.6286   -1.2066   -0.7773 C   0  0  2  0  0  0  0  0  0  0  0  0
    3.8279   -1.6706    0.4588 C   0  0  0  0  0  0  0  0  0  0  0  0
    3.6021   -3.1922    0.3786 C   0  0  1  0  0  0  0  0  0  0  0  0
    2.8249   -3.5176   -0.9180 C   0  0  0  0  0  0  0  0  0  0  0  0
    4.9896   -3.8886    0.3856 C   0  0  1  0  0  0  0  0  0  0  0  0
    4.8654   -5.3405    0.4565 N   0  0  0  0  0  0  0  0  0  0  0  0
    4.6748   -5.8507    1.8153 C   0  0  2  0  0  0  0  0  0  0  0  0
    6.0523   -6.1281    2.4892 C   0  0  0  0  0  0  0  0  0  0  0  0
    6.1878   -7.5774    2.8156 N   0  0  2  0  0  0  0  0  0  0  0  0
    6.0529   -8.4108    1.5897 C   0  0  0  0  0  0  0  0  0  0  0  0
    4.6402   -8.2289    0.9661 C   0  0  0  0  0  0  0  0  0  0  0  0
    3.8545   -7.1658    1.7702 C   0  0  1  0  0  0  0  0  0  0  0  0
    3.7336   -7.6977    3.2195 C   0  0  0  0  0  0  0  0  0  0  0  0
    5.1491   -7.9667    3.8054 C   0  0  0  0  0  0  0  0  0  0  0  0
    2.8949   -1.0124   -2.0930 H   0  0  0  0  0  0  0  0  0  0  0  0
    4.4152   -1.1926   -2.9445 H   0  0  0  0  0  0  0  0  0  0  0  0
    3.0728   -3.2968   -3.0564 H   0  0  0  0  0  0  0  0  0  0  0  0
    4.8755   -4.8471   -2.2619 H   0  0  0  0  0  0  0  0  0  0  0  0
    5.5772   -3.4643   -3.0450 H   0  0  0  0  0  0  0  0  0  0  0  0
    6.7562   -3.9371   -0.8889 H   0  0  0  0  0  0  0  0  0  0  0  0
    6.5785   -1.6560    0.0808 H   0  0  0  0  0  0  0  0  0  0  0  0
    6.5659   -1.5996   -1.6755 H   0  0  0  0  0  0  0  0  0  0  0  0
    4.7732   -0.1302   -0.7132 H   0  0  0  0  0  0  0  0  0  0  0  0
    4.3794   -1.4254    1.3676 H   0  0  0  0  0  0  0  0  0  0  0  0
    2.8770   -1.1415    0.5136 H   0  0  0  0  0  0  0  0  0  0  0  0
    3.0155   -3.5005    1.2438 H   0  0  0  0  0  0  0  0  0  0  0  0
    1.8428   -3.0508   -0.9092 H   0  0  0  0  0  0  0  0  0  0  0  0
    2.6258   -4.5858   -0.9778 H   0  0  0  0  0  0  0  0  0  0  0  0
    5.5635   -3.5684    1.2571 H   0  0  0  0  0  0  0  0  0  0  0  0
    4.1111   -5.6197   -0.1600 H   0  0  0  0  0  0  0  0  0  0  0  0
    4.1165   -5.1233    2.4089 H   0  0  0  0  0  0  0  0  0  0  0  0
    6.8856   -5.8143    1.8597 H   0  0  0  0  0  0  0  0  0  0  0  0
    6.1403   -5.5404    3.4031 H   0  0  0  0  0  0  0  0  0  0  0  0
    6.8319   -8.1305    0.8817 H   0  0  0  0  0  0  0  0  0  0  0  0
    6.2212   -9.4611    1.8325 H   0  0  0  0  0  0  0  0  0  0  0  0
    4.7164   -7.9406   -0.0838 H   0  0  0  0  0  0  0  0  0  0  0  0
    4.0994   -9.1762    0.9591 H   0  0  0  0  0  0  0  0  0  0  0  0
    2.8646   -7.0002    1.3443 H   0  0  0  0  0  0  0  0  0  0  0  0
    3.1989   -6.9850    3.8514 H   0  0  0  0  0  0  0  0  0  0  0  0
    3.1486   -8.6193    3.2367 H   0  0  0  0  0  0  0  0  0  0  0  0
    5.2637   -9.0223    4.0609 H   0  0  0  0  0  0  0  0  0  0  0  0
    5.2922   -7.4181    4.7383 H   0  0  0  0  0  0  0  0  0  0  0  0
    7.1011   -7.7343    3.2194 H   0  0  0  0  0  0  0  0  0  0  0  0
  1  6  1  0
  1  2  1  0
  1 20  1  0
  1 21  1  0
  2  9  1  0
  2  3  1  0
  2 22  1  6
  3  4  1  0
  3 23  1  0
  3 24  1  0
  4 10  1  0
  4  5  1  0
  4 25  1  6
  5  6  1  0
  5 26  1  0
  5 27  1  0
  6  7  1  0
  6 28  1  1
  7  8  1  0
  7 29  1  0
  7 30  1  0
  8  9  1  0
  8 10  1  0
  8 31  1  1
  9 32  1  0
  9 33  1  0
 10 11  1  0
 10 34  1  1
 11 12  1  0
 11 35  1  0
 12 17  1  0
 12 13  1  0
 12 36  1  1
 13 14  1  0
 13 37  1  0
 13 38  1  0
 14 19  1  0
 14 15  1  0
 14 48  1  1
 15 16  1  0
 15 39  1  0
 15 40  1  0
 16 17  1  0
 16 41  1  0
 16 42  1  0
 17 18  1  0
 17 43  1  6
 18 19  1  0
 18 44  1  0
 18 45  1  0
 19 46  1  0
 19 47  1  0
M  CHG  1  14   1
M  END
>  <i_m_ct_stereo_status>  (33) 
1

>  <s_m_source_file>  (33) 
/var/tmp/pbs.5076255.sched01/tmpikn618da/06v91y69d.sdf

>  <i_m_source_file_index>  (33) 
13

>  <i_lp_mmshare_version>  (33) 
48012

>  <i_f3d_flags>  (33) 
0

>  <s_epik_input>  (33) 
W0NAQEhdMTJbQ0gyXVtDQEhdM1tDSDJdW0NAQEhdKFtDSDJdMSlbQ0BASF0oW0NASF0oW0NIMl0zKVtDSDJdMilbTkhdW0NASF0oW0NIMl1ONDUpW0NIXShbQ0gyXVtDSDJdNClbQ0gyXVtDSDJdNQ==

>  <s_epik_cmdline>  (33) 
J2VwaWtfcHl0aG9uJywgJy1waHQnLCAnMi4wJywgJy1waCcsICc3LjAnLCAnLXRuJywgJzgnLCAnLW1hJywgJzIwMCcsICctaW1hZScsICc8aW5maWxlLm1hZT4nLCAnLW9tYWUnLCAnPG91dGZpbGUubWFlPic=

>  <r_epik_Ionization_Penalty>  (33) 
0.756662

>  <r_epik_Ionization_Penalty_Charging>  (33) 
0.000753008

>  <r_epik_Ionization_Penalty_Neutral>  (33) 
0.755909

>  <r_epik_State_Penalty>  (33) 
1.38645

>  <r_epik_Charging_Adjusted_Penalty>  (33) 
1.3872

>  <i_epik_Tot_Q>  (33) 
1

>  <i_epik_Tot_abs_Q>  (33) 
1

>  <s_lp_Force_Field>  (33) 
OPLS3e

>  <r_lp_Energy>  (33) 
31.407

>  <b_lp_Chiralities_Consistent>  (33) 
1

>  <s_lp_Variant>  (33) 
5:0-3

>  <s_i_glide_gridfile>  (33) 
pfpi4k_grid

>  <i_i_glide_lignum>  (33) 
13

>  <i_i_glide_rotatable_bonds>  (33) 
2

>  <r_i_docking_score>  (33) 
-2.83169

>  <r_i_glide_ligand_efficiency>  (33) 
-0.149036

>  <r_i_glide_ligand_efficiency_sa>  (33) 
-0.397688

>  <r_i_glide_ligand_efficiency_ln>  (33) 
-0.717893

>  <r_i_glide_gscore>  (33) 
-2.83169

>  <r_i_glide_lipo>  (33) 
-0.343449

>  <r_i_glide_hbond>  (33) 
0

>  <r_i_glide_metal>  (33) 
-0

>  <r_i_glide_rewards>  (33) 
-1.62664

>  <r_i_glide_evdw>  (33) 
-22.3108

>  <r_i_glide_ecoul>  (33) 
-1.76432

>  <r_i_glide_erotb>  (33) 
0.518596

>  <r_i_glide_esite>  (33) 
0

>  <r_i_glide_emodel>  (33) 
-29.9613

>  <r_i_glide_energy>  (33) 
-24.0751

>  <r_i_glide_einternal>  (33) 
1.1068

>  <r_i_glide_intrahb_reward>  (33) 
-0

>  <i_i_glide_confnum>  (33) 
6

>  <i_i_glide_posenum>  (33) 
1

>  <r_i_glide_eff_state_penalty>  (33) 
0

>  <ligand_id>  (33) 
5

>  <original_smiles>  (33) 
C1C2CC3CC1CC(C2)C3NC1CN2CCC1CC2

>  <smiles>  (33) 
[H]N(C1([H])C2([H])C([H])([H])C3([H])C([H])([H])C([H])(C2([H])[H])C([H])([H])C1([H])C3([H])[H])C1([H])C2([H])C([H])([H])C([H])([H])[N+]([H])(C([H])([H])C2([H])[H])C1([H])[H]

$$$$
6:0:0
     RDKit          3D

 49 53  0  0  1  0  0  0  0  0999 V2000
    1.4067   -7.3441    6.4852 C   0  0  0  0  0  0  0  0  0  0  0  0
    1.4396   -5.9248    6.0442 C   0  0  0  0  0  0  0  0  0  0  0  0
    2.5150   -5.1173    5.8354 C   0  0  0  0  0  0  0  0  0  0  0  0
    2.0244   -3.8814    5.4721 N   0  0  0  0  0  0  0  0  0  0  0  0
    2.6277   -2.6967    5.2001 C   0  0  0  0  0  0  0  0  0  0  0  0
    1.8500   -1.6031    4.9582 C   0  0  0  0  0  0  0  0  0  0  0  0
    0.4333   -1.7911    4.8583 C   0  0  0  0  0  0  0  0  0  0  0  0
   -0.3835   -0.7528    4.4215 N   0  0  0  0  0  0  0  0  0  0  0  0
   -1.5224   -0.3592    5.2547 C   0  0  0  0  0  0  0  0  0  0  0  0
   -1.3756    1.1154    5.6844 C   0  0  0  0  0  0  0  0  0  0  0  0
   -1.1815    1.9645    4.4958 N   0  0  0  0  0  0  0  0  0  0  0  0
   -2.0010    3.0043    4.2165 C   0  0  0  0  0  0  0  0  0  0  0  0
   -2.9315    3.3419    4.9741 O   0  0  0  0  0  0  0  0  0  0  0  0
   -1.7161    3.8591    2.9646 C   0  0  0  0  0  0  0  0  0  0  0  0
   -2.8608    4.7046    2.4836 C   0  0  0  0  0  0  0  0  0  0  0  0
   -4.1827    4.3907    2.2312 C   0  0  0  0  0  0  0  0  0  0  0  0
   -4.7646    5.5640    1.7490 N   0  0  0  0  0  0  0  0  0  0  0  0
   -6.0200    6.0060    1.4105 C   0  0  0  0  0  0  0  0  0  0  0  0
   -6.0565    7.2881    0.9415 C   0  0  0  0  0  0  0  0  0  0  0  0
   -4.4213    7.9464    0.9925 S   0  0  0  0  0  0  0  0  0  0  0  0
   -3.7238    6.4656    1.6236 C   0  0  0  0  0  0  0  0  0  0  0  0
   -2.5839    6.0130    2.0759 N   0  0  0  0  0  0  0  0  0  0  0  0
    0.0207    1.5731    3.7123 C   0  0  0  0  0  0  0  0  0  0  0  0
   -0.1232    0.1140    3.2510 C   0  0  1  0  0  0  0  0  0  0  0  0
    1.0359   -0.2843    2.2929 C   0  0  0  0  0  0  0  0  0  0  0  0
   -0.1554   -2.9471    5.1384 N   0  0  0  0  0  0  0  0  0  0  0  0
    0.6099   -4.0083    5.4558 C   0  0  0  0  0  0  0  0  0  0  0  0
    0.2470   -5.2393    5.7916 N   0  0  0  0  0  0  0  0  0  0  0  0
    2.4089   -7.7471    6.6374 H   0  0  0  0  0  0  0  0  0  0  0  0
    0.9134   -7.9609    5.7396 H   0  0  0  0  0  0  0  0  0  0  0  0
    0.8638   -7.4492    7.4212 H   0  0  0  0  0  0  0  0  0  0  0  0
    3.5793   -5.2779    5.9493 H   0  0  0  0  0  0  0  0  0  0  0  0
    3.7181   -2.6937    5.2106 H   0  0  0  0  0  0  0  0  0  0  0  0
    2.3168   -0.6294    4.7983 H   0  0  0  0  0  0  0  0  0  0  0  0
   -2.4558   -0.4725    4.6933 H   0  0  0  0  0  0  0  0  0  0  0  0
   -1.6085   -1.0024    6.1329 H   0  0  0  0  0  0  0  0  0  0  0  0
   -2.2401    1.4059    6.2891 H   0  0  0  0  0  0  0  0  0  0  0  0
   -0.5129    1.2383    6.3374 H   0  0  0  0  0  0  0  0  0  0  0  0
   -0.8567    4.5047    3.1876 H   0  0  0  0  0  0  0  0  0  0  0  0
   -1.4438    3.2492    2.1178 H   0  0  0  0  0  0  0  0  0  0  0  0
   -4.7541    3.4947    2.4110 H   0  0  0  0  0  0  0  0  0  0  0  0
   -6.8510    5.3474    1.5570 H   0  0  0  0  0  0  0  0  0  0  0  0
   -6.9175    7.8632    0.5745 H   0  0  0  0  0  0  0  0  0  0  0  0
    0.2087    2.1772    2.8251 H   0  0  0  0  0  0  0  0  0  0  0  0
    0.8934    1.6853    4.3529 H   0  0  0  0  0  0  0  0  0  0  0  0
   -1.0424    0.0902    2.6702 H   0  0  0  0  0  0  0  0  0  0  0  0
    0.9617    0.2537    1.3421 H   0  0  0  0  0  0  0  0  0  0  0  0
    0.9899   -1.3440    2.0464 H   0  0  0  0  0  0  0  0  0  0  0  0
    2.0272   -0.0697    2.7342 H   0  0  0  0  0  0  0  0  0  0  0  0
  1  2  1  0
  1 29  1  0
  1 30  1  0
  1 31  1  0
  2 28  1  0
  2  3  2  0
  3  4  1  0
  3 32  1  0
  4 27  1  0
  4  5  1  0
  5  6  2  0
  5 33  1  0
  6  7  1  0
  6 34  1  0
  7  8  1  0
  7 26  2  0
  8 24  1  0
  8  9  1  0
  9 10  1  0
  9 35  1  0
  9 36  1  0
 10 11  1  0
 10 37  1  0
 10 38  1  0
 11 12  1  0
 11 23  1  0
 12 13  2  0
 12 14  1  0
 14 15  1  0
 14 39  1  0
 14 40  1  0
 15 22  1  0
 15 16  2  0
 16 17  1  0
 16 41  1  0
 17 21  1  0
 17 18  1  0
 18 19  2  0
 18 42  1  0
 19 20  1  0
 19 43  1  0
 20 21  1  0
 21 22  2  0
 23 24  1  0
 23 44  1  0
 23 45  1  0
 24 25  1  0
 24 46  1  6
 25 47  1  0
 25 48  1  0
 25 49  1  0
 26 27  1  0
 27 28  2  0
M  END
>  <i_m_ct_stereo_status>  (34) 
1

>  <s_m_source_file>  (34) 
/var/tmp/pbs.5076255.sched01/tmpikn618da/06v91y69d.sdf

>  <i_m_source_file_index>  (34) 
14

>  <i_lp_mmshare_version>  (34) 
48012

>  <i_f3d_flags>  (34) 
0

>  <s_epik_input>  (34) 
W0NIM11jKFtjSF0xKW5jKG4xMiluYyhbY0hdW2NIXTIpTjNbQ0gyXVtDSDJdTihbQ0gyXVtDQEhdM1tDSDNdKUMoPU8pW0NIMl1jKFtjSF00KW5jKG40NSlzW2NIXVtjSF01

>  <s_epik_cmdline>  (34) 
J2VwaWtfcHl0aG9uJywgJy1waHQnLCAnMi4wJywgJy1waCcsICc3LjAnLCAnLXRuJywgJzgnLCAnLW1hJywgJzIwMCcsICctaW1hZScsICc8aW5maWxlLm1hZT4nLCAnLW9tYWUnLCAnPG91dGZpbGUubWFlPic=

>  <r_epik_Ionization_Penalty>  (34) 
0.021978

>  <r_epik_Ionization_Penalty_Charging>  (34) 
0.0219172

>  <r_epik_Ionization_Penalty_Neutral>  (34) 
6.07428e-05

>  <r_epik_State_Penalty>  (34) 
0.0176541

>  <r_epik_Charging_Adjusted_Penalty>  (34) 
0.0395713

>  <i_epik_Tot_Q>  (34) 
0

>  <i_epik_Tot_abs_Q>  (34) 
0

>  <s_lp_Force_Field>  (34) 
OPLS3e

>  <r_lp_Energy>  (34) 
43.7472

>  <b_lp_Chiralities_Consistent>  (34) 
1

>  <s_lp_Variant>  (34) 
6:0-1

>  <s_i_glide_gridfile>  (34) 
pfpi4k_grid

>  <i_i_glide_lignum>  (34) 
14

>  <i_i_glide_rotatable_bonds>  (34) 
4

>  <r_i_docking_score>  (34) 
-3.05984

>  <r_i_glide_ligand_efficiency>  (34) 
-0.10928

>  <r_i_glide_ligand_efficiency_sa>  (34) 
-0.331838

>  <r_i_glide_ligand_efficiency_ln>  (34) 
-0.7063

>  <r_i_glide_gscore>  (34) 
-3.05984

>  <r_i_glide_lipo>  (34) 
-0.555923

>  <r_i_glide_hbond>  (34) 
-0.102733

>  <r_i_glide_metal>  (34) 
-0

>  <r_i_glide_rewards>  (34) 
-0.836838

>  <r_i_glide_evdw>  (34) 
-22.1437

>  <r_i_glide_ecoul>  (34) 
-5.51515

>  <r_i_glide_erotb>  (34) 
0.500116

>  <r_i_glide_esite>  (34) 
-0.130002

>  <r_i_glide_emodel>  (34) 
-33.6214

>  <r_i_glide_energy>  (34) 
-27.6589

>  <r_i_glide_einternal>  (34) 
1.29507

>  <r_i_glide_intrahb_reward>  (34) 
-0

>  <i_i_glide_confnum>  (34) 
1

>  <i_i_glide_posenum>  (34) 
2

>  <r_i_glide_eff_state_penalty>  (34) 
0

>  <ligand_id>  (34) 
6

>  <original_smiles>  (34) 
Cc1cn2ccc(N3CCN(C(=O)Cc4cn5ccsc5n4)CC3C)nc2n1

>  <smiles>  (34) 
[H]c1sc2nc(C([H])([H])C(=O)N3C([H])([H])C([H])([H])N(c4nc5nc(C([H])([H])[H])c([H])n5c([H])c4[H])C([H])(C([H])([H])[H])C3([H])[H])c([H])n2c1[H]

$$$$
6:0:1
     RDKit          3D

 49 53  0  0  1  0  0  0  0  0999 V2000
    5.6268  -11.8440    4.0289 C   0  0  0  0  0  0  0  0  0  0  0  0
    4.3472  -11.0752    3.8723 C   0  0  0  0  0  0  0  0  0  0  0  0
    3.1789  -11.4586    3.2826 C   0  0  0  0  0  0  0  0  0  0  0  0
    2.2883  -10.4029    3.4283 N   0  0  0  0  0  0  0  0  0  0  0  0
    1.0033  -10.2090    3.0165 C   0  0  0  0  0  0  0  0  0  0  0  0
    0.4091   -8.9987    3.3128 C   0  0  0  0  0  0  0  0  0  0  0  0
    1.1564   -8.0311    4.0406 C   0  0  0  0  0  0  0  0  0  0  0  0
    0.6324   -6.7597    4.2024 N   0  0  0  0  0  0  0  0  0  0  0  0
   -0.6347   -6.5718    4.9081 C   0  0  0  0  0  0  0  0  0  0  0  0
   -0.4368   -5.6696    6.1501 C   0  0  0  0  0  0  0  0  0  0  0  0
    0.2617   -4.4240    5.7815 N   0  0  0  0  0  0  0  0  0  0  0  0
   -0.2361   -3.1930    6.0651 C   0  0  0  0  0  0  0  0  0  0  0  0
   -1.3919   -3.0517    6.4766 O   0  0  0  0  0  0  0  0  0  0  0  0
    0.6577   -1.9400    5.9716 C   0  0  0  0  0  0  0  0  0  0  0  0
    0.0200   -0.8187    5.1919 C   0  0  0  0  0  0  0  0  0  0  0  0
    0.1738   -0.5000    3.8610 C   0  0  0  0  0  0  0  0  0  0  0  0
   -0.5345    0.6826    3.6699 N   0  0  0  0  0  0  0  0  0  0  0  0
   -0.8036    1.5523    2.6498 C   0  0  0  0  0  0  0  0  0  0  0  0
   -1.5842    2.6196    3.0173 C   0  0  0  0  0  0  0  0  0  0  0  0
   -1.9391    2.4960    4.7225 S   0  0  0  0  0  0  0  0  0  0  0  0
   -1.0628    0.9856    4.9104 C   0  0  0  0  0  0  0  0  0  0  0  0
   -0.7789    0.1175    5.8412 N   0  0  0  0  0  0  0  0  0  0  0  0
    1.5647   -4.6783    5.1515 C   0  0  0  0  0  0  0  0  0  0  0  0
    1.3802   -5.5302    3.8856 C   0  0  1  0  0  0  0  0  0  0  0  0
    2.7325   -5.7078    3.1658 C   0  0  0  0  0  0  0  0  0  0  0  0
    2.3873   -8.2518    4.4869 N   0  0  0  0  0  0  0  0  0  0  0  0
    2.9838   -9.4086    4.1613 C   0  0  0  0  0  0  0  0  0  0  0  0
    4.2348   -9.7926    4.3983 N   0  0  0  0  0  0  0  0  0  0  0  0
    5.5563  -12.8467    3.6087 H   0  0  0  0  0  0  0  0  0  0  0  0
    5.8929  -11.9550    5.0804 H   0  0  0  0  0  0  0  0  0  0  0  0
    6.4593  -11.3422    3.5373 H   0  0  0  0  0  0  0  0  0  0  0  0
    2.9010  -12.3709    2.7740 H   0  0  0  0  0  0  0  0  0  0  0  0
    0.5142  -11.0146    2.4765 H   0  0  0  0  0  0  0  0  0  0  0  0
   -0.5976   -8.7947    2.9622 H   0  0  0  0  0  0  0  0  0  0  0  0
   -1.3263   -6.0839    4.2235 H   0  0  0  0  0  0  0  0  0  0  0  0
   -1.0815   -7.5319    5.1834 H   0  0  0  0  0  0  0  0  0  0  0  0
   -1.3989   -5.4995    6.6354 H   0  0  0  0  0  0  0  0  0  0  0  0
    0.1648   -6.2005    6.8913 H   0  0  0  0  0  0  0  0  0  0  0  0
    0.8098   -1.5929    6.9966 H   0  0  0  0  0  0  0  0  0  0  0  0
    1.6531   -2.1024    5.5800 H   0  0  0  0  0  0  0  0  0  0  0  0
    0.7353   -0.9529    3.0598 H   0  0  0  0  0  0  0  0  0  0  0  0
   -0.4055    1.3656    1.6527 H   0  0  0  0  0  0  0  0  0  0  0  0
   -1.9432    3.4416    2.4231 H   0  0  0  0  0  0  0  0  0  0  0  0
    2.0938   -3.7911    4.8188 H   0  0  0  0  0  0  0  0  0  0  0  0
    2.2093   -5.1980    5.8700 H   0  0  0  0  0  0  0  0  0  0  0  0
    0.7319   -4.9737    3.2073 H   0  0  0  0  0  0  0  0  0  0  0  0
    3.1373   -4.7585    2.8185 H   0  0  0  0  0  0  0  0  0  0  0  0
    2.6395   -6.3645    2.3046 H   0  0  0  0  0  0  0  0  0  0  0  0
    3.4802   -6.1262    3.8389 H   0  0  0  0  0  0  0  0  0  0  0  0
  1  2  1  0
  1 29  1  0
  1 30  1  0
  1 31  1  0
  2 28  1  0
  2  3  2  0
  3  4  1  0
  3 32  1  0
  4 27  1  0
  4  5  1  0
  5  6  2  0
  5 33  1  0
  6  7  1  0
  6 34  1  0
  7  8  1  0
  7 26  2  0
  8 24  1  0
  8  9  1  0
  9 10  1  0
  9 35  1  0
  9 36  1  0
 10 11  1  0
 10 37  1  0
 10 38  1  0
 11 12  1  0
 11 23  1  0
 12 13  2  0
 12 14  1  0
 14 15  1  0
 14 39  1  0
 14 40  1  0
 15 22  1  0
 15 16  2  0
 16 17  1  0
 16 41  1  0
 17 21  1  0
 17 18  1  0
 18 19  2  0
 18 42  1  0
 19 20  1  0
 19 43  1  0
 20 21  1  0
 21 22  2  0
 23 24  1  0
 23 44  1  0
 23 45  1  0
 24 25  1  0
 24 46  1  6
 25 47  1  0
 25 48  1  0
 25 49  1  0
 26 27  1  0
 27 28  2  0
M  END
>  <i_m_ct_stereo_status>  (35) 
1

>  <s_m_source_file>  (35) 
/var/tmp/pbs.5076255.sched01/tmpikn618da/06v91y69d.sdf

>  <i_m_source_file_index>  (35) 
14

>  <i_lp_mmshare_version>  (35) 
48012

>  <i_f3d_flags>  (35) 
0

>  <s_epik_input>  (35) 
W0NIM11jKFtjSF0xKW5jKG4xMiluYyhbY0hdW2NIXTIpTjNbQ0gyXVtDSDJdTihbQ0gyXVtDQEhdM1tDSDNdKUMoPU8pW0NIMl1jKFtjSF00KW5jKG40NSlzW2NIXVtjSF01

>  <s_epik_cmdline>  (35) 
J2VwaWtfcHl0aG9uJywgJy1waHQnLCAnMi4wJywgJy1waCcsICc3LjAnLCAnLXRuJywgJzgnLCAnLW1hJywgJzIwMCcsICctaW1hZScsICc8aW5maWxlLm1hZT4nLCAnLW9tYWUnLCAnPG91dGZpbGUubWFlPic=

>  <r_epik_Ionization_Penalty>  (35) 
0.021978

>  <r_epik_Ionization_Penalty_Charging>  (35) 
0.0219172

>  <r_epik_Ionization_Penalty_Neutral>  (35) 
6.07428e-05

>  <r_epik_State_Penalty>  (35) 
0.0176541

>  <r_epik_Charging_Adjusted_Penalty>  (35) 
0.0395713

>  <i_epik_Tot_Q>  (35) 
0

>  <i_epik_Tot_abs_Q>  (35) 
0

>  <s_lp_Force_Field>  (35) 
OPLS3e

>  <r_lp_Energy>  (35) 
43.7472

>  <b_lp_Chiralities_Consistent>  (35) 
1

>  <s_lp_Variant>  (35) 
6:0-1

>  <s_i_glide_gridfile>  (35) 
pfpi4k_grid

>  <i_i_glide_lignum>  (35) 
14

>  <i_i_glide_rotatable_bonds>  (35) 
4

>  <r_i_docking_score>  (35) 
-2.66782

>  <r_i_glide_ligand_efficiency>  (35) 
-0.0952792

>  <r_i_glide_ligand_efficiency_sa>  (35) 
-0.289324

>  <r_i_glide_ligand_efficiency_ln>  (35) 
-0.615811

>  <r_i_glide_gscore>  (35) 
-2.66782

>  <r_i_glide_lipo>  (35) 
-0.147563

>  <r_i_glide_hbond>  (35) 
0

>  <r_i_glide_metal>  (35) 
-0

>  <r_i_glide_rewards>  (35) 
-0.745458

>  <r_i_glide_evdw>  (35) 
-29.3685

>  <r_i_glide_ecoul>  (35) 
-4.73023

>  <r_i_glide_erotb>  (35) 
0.500116

>  <r_i_glide_esite>  (35) 
-0.0969515

>  <r_i_glide_emodel>  (35) 
-39.3217

>  <r_i_glide_energy>  (35) 
-34.0988

>  <r_i_glide_einternal>  (35) 
1.41517

>  <r_i_glide_intrahb_reward>  (35) 
-0

>  <i_i_glide_confnum>  (35) 
1

>  <i_i_glide_posenum>  (35) 
37

>  <r_i_glide_eff_state_penalty>  (35) 
0

>  <ligand_id>  (35) 
6

>  <original_smiles>  (35) 
Cc1cn2ccc(N3CCN(C(=O)Cc4cn5ccsc5n4)CC3C)nc2n1

>  <smiles>  (35) 
[H]c1sc2nc(C([H])([H])C(=O)N3C([H])([H])C([H])([H])N(c4nc5nc(C([H])([H])[H])c([H])n5c([H])c4[H])C([H])(C([H])([H])[H])C3([H])[H])c([H])n2c1[H]

$$$$
6:0:2
     RDKit          3D

 49 53  0  0  1  0  0  0  0  0999 V2000
    6.1177  -11.0524    2.3364 C   0  0  0  0  0  0  0  0  0  0  0  0
    5.0142  -10.4091    3.1258 C   0  0  0  0  0  0  0  0  0  0  0  0
    4.2237  -10.9379    4.1047 C   0  0  0  0  0  0  0  0  0  0  0  0
    3.3358   -9.9429    4.4904 N   0  0  0  0  0  0  0  0  0  0  0  0
    2.3499   -9.8766    5.4182 C   0  0  0  0  0  0  0  0  0  0  0  0
    1.6493   -8.6962    5.5482 C   0  0  0  0  0  0  0  0  0  0  0  0
    1.9834   -7.6095    4.6810 C   0  0  0  0  0  0  0  0  0  0  0  0
    1.3645   -6.3756    4.8276 N   0  0  0  0  0  0  0  0  0  0  0  0
   -0.0932   -6.3019    4.8788 C   0  0  0  0  0  0  0  0  0  0  0  0
   -0.5649   -5.5615    6.1527 C   0  0  0  0  0  0  0  0  0  0  0  0
    0.1290   -4.2649    6.2632 N   0  0  0  0  0  0  0  0  0  0  0  0
   -0.5318   -3.0934    6.3945 C   0  0  0  0  0  0  0  0  0  0  0  0
   -1.7609   -3.0582    6.4741 O   0  0  0  0  0  0  0  0  0  0  0  0
    0.2398   -1.7588    6.5015 C   0  0  0  0  0  0  0  0  0  0  0  0
   -0.3068   -0.6903    5.5996 C   0  0  0  0  0  0  0  0  0  0  0  0
    0.0214   -0.4277    4.2968 C   0  0  0  0  0  0  0  0  0  0  0  0
   -0.6424    0.7529    3.9625 N   0  0  0  0  0  0  0  0  0  0  0  0
   -0.7642    1.5733    2.8858 C   0  0  0  0  0  0  0  0  0  0  0  0
   -1.5783    2.6586    3.0913 C   0  0  0  0  0  0  0  0  0  0  0  0
   -2.1573    2.6026    4.7354 S   0  0  0  0  0  0  0  0  0  0  0  0
   -1.3202    1.0984    5.1191 C   0  0  0  0  0  0  0  0  0  0  0  0
   -1.1718    0.2742    6.1102 N   0  0  0  0  0  0  0  0  0  0  0  0
    1.5899   -4.4285    6.3092 C   0  0  0  0  0  0  0  0  0  0  0  0
    2.0938   -5.1044    5.0155 C   0  0  1  0  0  0  0  0  0  0  0  0
    3.6362   -5.1700    5.0691 C   0  0  0  0  0  0  0  0  0  0  0  0
    2.9040   -7.6939    3.7399 N   0  0  0  0  0  0  0  0  0  0  0  0
    3.6267   -8.8325    3.6520 C   0  0  0  0  0  0  0  0  0  0  0  0
    4.6635   -9.0926    2.8714 N   0  0  0  0  0  0  0  0  0  0  0  0
    6.2755  -12.0938    2.6278 H   0  0  0  0  0  0  0  0  0  0  0  0
    7.0595  -10.5235    2.4688 H   0  0  0  0  0  0  0  0  0  0  0  0
    5.8925  -11.0490    1.2710 H   0  0  0  0  0  0  0  0  0  0  0  0
    4.1811  -11.9322    4.5530 H   0  0  0  0  0  0  0  0  0  0  0  0
    2.1628  -10.7678    6.0215 H   0  0  0  0  0  0  0  0  0  0  0  0
    0.8890   -8.6037    6.3129 H   0  0  0  0  0  0  0  0  0  0  0  0
   -0.4141   -5.7266    4.0096 H   0  0  0  0  0  0  0  0  0  0  0  0
   -0.5563   -7.2952    4.7886 H   0  0  0  0  0  0  0  0  0  0  0  0
   -1.6510   -5.4768    6.1248 H   0  0  0  0  0  0  0  0  0  0  0  0
   -0.3413   -6.1672    7.0298 H   0  0  0  0  0  0  0  0  0  0  0  0
    0.1598   -1.4240    7.5351 H   0  0  0  0  0  0  0  0  0  0  0  0
    1.3022   -1.8203    6.2850 H   0  0  0  0  0  0  0  0  0  0  0  0
    0.6936   -0.9089    3.5866 H   0  0  0  0  0  0  0  0  0  0  0  0
   -0.2510    1.3510    1.9531 H   0  0  0  0  0  0  0  0  0  0  0  0
   -1.8579    3.4593    2.4285 H   0  0  0  0  0  0  0  0  0  0  0  0
    2.1641   -3.5191    6.4415 H   0  0  0  0  0  0  0  0  0  0  0  0
    1.8287   -5.0542    7.1740 H   0  0  0  0  0  0  0  0  0  0  0  0
    1.8127   -4.4747    4.1683 H   0  0  0  0  0  0  0  0  0  0  0  0
    4.0695   -4.1738    5.1828 H   0  0  0  0  0  0  0  0  0  0  0  0
    4.0820   -5.5737    4.1630 H   0  0  0  0  0  0  0  0  0  0  0  0
    3.9555   -5.7691    5.9201 H   0  0  0  0  0  0  0  0  0  0  0  0
  1  2  1  0
  1 29  1  0
  1 30  1  0
  1 31  1  0
  2 28  1  0
  2  3  2  0
  3  4  1  0
  3 32  1  0
  4 27  1  0
  4  5  1  0
  5  6  2  0
  5 33  1  0
  6  7  1  0
  6 34  1  0
  7  8  1  0
  7 26  2  0
  8 24  1  0
  8  9  1  0
  9 10  1  0
  9 35  1  0
  9 36  1  0
 10 11  1  0
 10 37  1  0
 10 38  1  0
 11 12  1  0
 11 23  1  0
 12 13  2  0
 12 14  1  0
 14 15  1  0
 14 39  1  0
 14 40  1  0
 15 22  1  0
 15 16  2  0
 16 17  1  0
 16 41  1  0
 17 21  1  0
 17 18  1  0
 18 19  2  0
 18 42  1  0
 19 20  1  0
 19 43  1  0
 20 21  1  0
 21 22  2  0
 23 24  1  0
 23 44  1  0
 23 45  1  0
 24 25  1  0
 24 46  1  6
 25 47  1  0
 25 48  1  0
 25 49  1  0
 26 27  1  0
 27 28  2  0
M  END
>  <i_m_ct_stereo_status>  (36) 
1

>  <s_m_source_file>  (36) 
/var/tmp/pbs.5076255.sched01/tmpikn618da/06v91y69d.sdf

>  <i_m_source_file_index>  (36) 
14

>  <i_lp_mmshare_version>  (36) 
48012

>  <i_f3d_flags>  (36) 
0

>  <s_epik_input>  (36) 
W0NIM11jKFtjSF0xKW5jKG4xMiluYyhbY0hdW2NIXTIpTjNbQ0gyXVtDSDJdTihbQ0gyXVtDQEhdM1tDSDNdKUMoPU8pW0NIMl1jKFtjSF00KW5jKG40NSlzW2NIXVtjSF01

>  <s_epik_cmdline>  (36) 
J2VwaWtfcHl0aG9uJywgJy1waHQnLCAnMi4wJywgJy1waCcsICc3LjAnLCAnLXRuJywgJzgnLCAnLW1hJywgJzIwMCcsICctaW1hZScsICc8aW5maWxlLm1hZT4nLCAnLW9tYWUnLCAnPG91dGZpbGUubWFlPic=

>  <r_epik_Ionization_Penalty>  (36) 
0.021978

>  <r_epik_Ionization_Penalty_Charging>  (36) 
0.0219172

>  <r_epik_Ionization_Penalty_Neutral>  (36) 
6.07428e-05

>  <r_epik_State_Penalty>  (36) 
0.0176541

>  <r_epik_Charging_Adjusted_Penalty>  (36) 
0.0395713

>  <i_epik_Tot_Q>  (36) 
0

>  <i_epik_Tot_abs_Q>  (36) 
0

>  <s_lp_Force_Field>  (36) 
OPLS3e

>  <r_lp_Energy>  (36) 
43.7472

>  <b_lp_Chiralities_Consistent>  (36) 
1

>  <s_lp_Variant>  (36) 
6:0-1

>  <s_i_glide_gridfile>  (36) 
pfpi4k_grid

>  <i_i_glide_lignum>  (36) 
14

>  <i_i_glide_rotatable_bonds>  (36) 
4

>  <r_i_docking_score>  (36) 
-2.41875

>  <r_i_glide_ligand_efficiency>  (36) 
-0.0863838

>  <r_i_glide_ligand_efficiency_sa>  (36) 
-0.262312

>  <r_i_glide_ligand_efficiency_ln>  (36) 
-0.558318

>  <r_i_glide_gscore>  (36) 
-2.41875

>  <r_i_glide_lipo>  (36) 
-0.0398669

>  <r_i_glide_hbond>  (36) 
-0.0169699

>  <r_i_glide_metal>  (36) 
-0

>  <r_i_glide_rewards>  (36) 
-0.71262

>  <r_i_glide_evdw>  (36) 
-25.3459

>  <r_i_glide_ecoul>  (36) 
-5.2167

>  <r_i_glide_erotb>  (36) 
0.500116

>  <r_i_glide_esite>  (36) 
-0.0996066

>  <r_i_glide_emodel>  (36) 
-35.4858

>  <r_i_glide_energy>  (36) 
-30.5626

>  <r_i_glide_einternal>  (36) 
0.170721

>  <r_i_glide_intrahb_reward>  (36) 
-0

>  <i_i_glide_confnum>  (36) 
1

>  <i_i_glide_posenum>  (36) 
1

>  <r_i_glide_eff_state_penalty>  (36) 
0

>  <ligand_id>  (36) 
6

>  <original_smiles>  (36) 
Cc1cn2ccc(N3CCN(C(=O)Cc4cn5ccsc5n4)CC3C)nc2n1

>  <smiles>  (36) 
[H]c1sc2nc(C([H])([H])C(=O)N3C([H])([H])C([H])([H])N(c4nc5nc(C([H])([H])[H])c([H])n5c([H])c4[H])C([H])(C([H])([H])[H])C3([H])[H])c([H])n2c1[H]

$$$$
6:1:0
     RDKit          3D

 50 54  0  0  1  0  0  0  0  0999 V2000
    3.9348  -13.1826    5.0145 C   0  0  0  0  0  0  0  0  0  0  0  0
    3.5355  -11.8196    4.5662 C   0  0  0  0  0  0  0  0  0  0  0  0
    3.8761  -11.2047    3.3682 C   0  0  0  0  0  0  0  0  0  0  0  0
    3.2375   -9.9831    3.4426 N   0  0  0  0  0  0  0  0  0  0  0  0
    3.2495   -9.0143    2.4602 C   0  0  0  0  0  0  0  0  0  0  0  0
    2.5141   -7.8817    2.7059 C   0  0  0  0  0  0  0  0  0  0  0  0
    1.8565   -7.7564    3.9601 C   0  0  0  0  0  0  0  0  0  0  0  0
    1.2185   -6.5606    4.2768 N   0  0  0  0  0  0  0  0  0  0  0  0
   -0.1477   -6.5771    4.8033 C   0  0  0  0  0  0  0  0  0  0  0  0
   -0.2330   -5.8709    6.1763 C   0  0  0  0  0  0  0  0  0  0  0  0
    0.3949   -4.5340    6.1080 N   0  0  0  0  0  0  0  0  0  0  0  0
   -0.2381   -3.3981    6.4926 C   0  0  0  0  0  0  0  0  0  0  0  0
   -1.4252   -3.3995    6.8267 O   0  0  0  0  0  0  0  0  0  0  0  0
    0.5361   -2.0563    6.6029 C   0  0  0  0  0  0  0  0  0  0  0  0
    0.0030   -1.0093    5.6691 C   0  0  0  0  0  0  0  0  0  0  0  0
    0.2356   -0.8215    4.3274 C   0  0  0  0  0  0  0  0  0  0  0  0
   -0.3952    0.3789    3.9850 N   0  0  0  0  0  0  0  0  0  0  0  0
   -0.5686    1.1650    2.8876 C   0  0  0  0  0  0  0  0  0  0  0  0
   -1.3195    2.2982    3.1075 C   0  0  0  0  0  0  0  0  0  0  0  0
   -1.7835    2.3368    4.7957 S   0  0  0  0  0  0  0  0  0  0  0  0
   -0.9708    0.8111    5.1657 C   0  0  0  0  0  0  0  0  0  0  0  0
   -0.7859    0.0275    6.1821 N   0  0  0  0  0  0  0  0  0  0  0  0
    1.7939   -4.6071    5.6627 C   0  0  0  0  0  0  0  0  0  0  0  0
    1.8893   -5.2455    4.2685 C   0  0  1  0  0  0  0  0  0  0  0  0
    3.3730   -5.1912    3.8289 C   0  0  0  0  0  0  0  0  0  0  0  0
    1.8859   -8.7257    4.8892 N   0  0  0  0  0  0  0  0  0  0  0  0
    2.5729   -9.8324    4.5764 C   0  0  0  0  0  0  0  0  0  0  0  0
    2.7140  -10.9461    5.2986 N   0  0  0  0  0  0  0  0  0  0  0  0
    4.5132  -13.7364    4.2774 H   0  0  0  0  0  0  0  0  0  0  0  0
    3.0453  -13.7557    5.2395 H   0  0  0  0  0  0  0  0  0  0  0  0
    4.4961  -13.1239    5.9426 H   0  0  0  0  0  0  0  0  0  0  0  0
    4.4558  -11.5293    2.5121 H   0  0  0  0  0  0  0  0  0  0  0  0
    3.8422   -9.2117    1.5660 H   0  0  0  0  0  0  0  0  0  0  0  0
    2.4388   -7.0968    1.9563 H   0  0  0  0  0  0  0  0  0  0  0  0
   -0.7719   -6.0112    4.1135 H   0  0  0  0  0  0  0  0  0  0  0  0
   -0.5698   -7.5853    4.8517 H   0  0  0  0  0  0  0  0  0  0  0  0
   -1.2713   -5.8371    6.5199 H   0  0  0  0  0  0  0  0  0  0  0  0
    0.2940   -6.4664    6.9242 H   0  0  0  0  0  0  0  0  0  0  0  0
    0.3993   -1.7031    7.6261 H   0  0  0  0  0  0  0  0  0  0  0  0
    1.6173   -2.1125    6.4819 H   0  0  0  0  0  0  0  0  0  0  0  0
    0.8163   -1.3524    3.5917 H   0  0  0  0  0  0  0  0  0  0  0  0
   -0.1423    0.8822    1.9261 H   0  0  0  0  0  0  0  0  0  0  0  0
   -1.6100    3.0853    2.4295 H   0  0  0  0  0  0  0  0  0  0  0  0
    2.2905   -3.6481    5.5607 H   0  0  0  0  0  0  0  0  0  0  0  0
    2.3511   -5.1911    6.4000 H   0  0  0  0  0  0  0  0  0  0  0  0
    1.3012   -4.6258    3.5870 H   0  0  0  0  0  0  0  0  0  0  0  0
    3.7228   -4.1535    3.8506 H   0  0  0  0  0  0  0  0  0  0  0  0
    3.5494   -5.5643    2.8155 H   0  0  0  0  0  0  0  0  0  0  0  0
    3.9823   -5.7461    4.5490 H   0  0  0  0  0  0  0  0  0  0  0  0
    2.2780  -11.1350    6.2036 H   0  0  0  0  0  0  0  0  0  0  0  0
  1  2  1  0
  1 29  1  0
  1 30  1  0
  1 31  1  0
  2 28  1  0
  2  3  2  0
  3  4  1  0
  3 32  1  0
  4 27  1  0
  4  5  1  0
  5  6  2  0
  5 33  1  0
  6  7  1  0
  6 34  1  0
  7  8  1  0
  7 26  2  0
  8 24  1  0
  8  9  1  0
  9 10  1  0
  9 35  1  0
  9 36  1  0
 10 11  1  0
 10 37  1  0
 10 38  1  0
 11 12  1  0
 11 23  1  0
 12 13  2  0
 12 14  1  0
 14 15  1  0
 14 39  1  0
 14 40  1  0
 15 22  1  0
 15 16  2  0
 16 17  1  0
 16 41  1  0
 17 21  1  0
 17 18  1  0
 18 19  2  0
 18 42  1  0
 19 20  1  0
 19 43  1  0
 20 21  1  0
 21 22  2  0
 23 24  1  0
 23 44  1  0
 23 45  1  0
 24 25  1  0
 24 46  1  6
 25 47  1  0
 25 48  1  0
 25 49  1  0
 26 27  1  0
 27 28  2  0
 28 50  1  0
M  CHG  1  28   1
M  END
>  <i_m_ct_stereo_status>  (37) 
1

>  <s_m_source_file>  (37) 
/var/tmp/pbs.5076255.sched01/tmpikn618da/06v91y69d.sdf

>  <i_m_source_file_index>  (37) 
15

>  <i_lp_mmshare_version>  (37) 
48012

>  <i_f3d_flags>  (37) 
0

>  <s_epik_input>  (37) 
W0NIM11jKFtjSF0xKW5jKG4xMiluYyhbY0hdW2NIXTIpTjNbQ0gyXVtDSDJdTihbQ0gyXVtDQEhdM1tDSDNdKUMoPU8pW0NIMl1jKFtjSF00KW5jKG40NSlzW2NIXVtjSF01

>  <s_epik_cmdline>  (37) 
J2VwaWtfcHl0aG9uJywgJy1waHQnLCAnMi4wJywgJy1waCcsICc3LjAnLCAnLXRuJywgJzgnLCAnLW1hJywgJzIwMCcsICctaW1hZScsICc8aW5maWxlLm1hZT4nLCAnLW9tYWUnLCAnPG91dGZpbGUubWFlPic=

>  <r_epik_Ionization_Penalty>  (37) 
1.96444

>  <r_epik_Ionization_Penalty_Charging>  (37) 
0

>  <r_epik_Ionization_Penalty_Neutral>  (37) 
1.96444

>  <r_epik_State_Penalty>  (37) 
2.09042

>  <r_epik_Charging_Adjusted_Penalty>  (37) 
2.09042

>  <i_epik_Tot_Q>  (37) 
1

>  <i_epik_Tot_abs_Q>  (37) 
1

>  <s_lp_Force_Field>  (37) 
OPLS3e

>  <r_lp_Energy>  (37) 
42.6983

>  <b_lp_Chiralities_Consistent>  (37) 
1

>  <s_lp_Variant>  (37) 
6:0-2

>  <s_i_glide_gridfile>  (37) 
pfpi4k_grid

>  <i_i_glide_lignum>  (37) 
15

>  <i_i_glide_rotatable_bonds>  (37) 
4

>  <r_i_docking_score>  (37) 
-2.77917

>  <r_i_glide_ligand_efficiency>  (37) 
-0.0992562

>  <r_i_glide_ligand_efficiency_sa>  (37) 
-0.3014

>  <r_i_glide_ligand_efficiency_ln>  (37) 
-0.641515

>  <r_i_glide_gscore>  (37) 
-2.77917

>  <r_i_glide_lipo>  (37) 
-0.000608404

>  <r_i_glide_hbond>  (37) 
-0.160673

>  <r_i_glide_metal>  (37) 
-0

>  <r_i_glide_rewards>  (37) 
-0.705748

>  <r_i_glide_evdw>  (37) 
-23.7027

>  <r_i_glide_ecoul>  (37) 
-7.01507

>  <r_i_glide_erotb>  (37) 
0.497832

>  <r_i_glide_esite>  (37) 
-0.17258

>  <r_i_glide_emodel>  (37) 
-37.7183

>  <r_i_glide_energy>  (37) 
-30.7178

>  <r_i_glide_einternal>  (37) 
1.06919

>  <r_i_glide_intrahb_reward>  (37) 
-0

>  <i_i_glide_confnum>  (37) 
4

>  <i_i_glide_posenum>  (37) 
26

>  <r_i_glide_eff_state_penalty>  (37) 
0

>  <ligand_id>  (37) 
6

>  <original_smiles>  (37) 
Cc1cn2ccc(N3CCN(C(=O)Cc4cn5ccsc5n4)CC3C)nc2n1

>  <smiles>  (37) 
[H]c1sc2nc(C([H])([H])C(=O)N3C([H])([H])C([H])([H])N(c4nc5n(c([H])c4[H])c([H])c(C([H])([H])[H])[n+]5[H])C([H])(C([H])([H])[H])C3([H])[H])c([H])n2c1[H]

$$$$
6:1:1
     RDKit          3D

 50 54  0  0  1  0  0  0  0  0999 V2000
    0.4998    7.5743    5.2404 C   0  0  0  0  0  0  0  0  0  0  0  0
    0.9052    6.2421    4.6859 C   0  0  0  0  0  0  0  0  0  0  0  0
    1.9494    5.9916    3.7975 C   0  0  0  0  0  0  0  0  0  0  0  0
    1.8676    4.6251    3.5949 N   0  0  0  0  0  0  0  0  0  0  0  0
    2.6825    3.8511    2.8114 C   0  0  0  0  0  0  0  0  0  0  0  0
    2.4389    2.4903    2.7968 C   0  0  0  0  0  0  0  0  0  0  0  0
    1.3204    1.9842    3.5260 C   0  0  0  0  0  0  0  0  0  0  0  0
    1.0337    0.6062    3.5899 N   0  0  0  0  0  0  0  0  0  0  0  0
    1.3954   -0.2605    2.4559 C   0  0  0  0  0  0  0  0  0  0  0  0
    2.2966   -1.4308    2.9039 C   0  0  0  0  0  0  0  0  0  0  0  0
    1.6162   -2.1805    3.9748 N   0  0  0  0  0  0  0  0  0  0  0  0
    1.3271   -3.5087    3.9578 C   0  0  0  0  0  0  0  0  0  0  0  0
    0.6475   -4.0409    4.8388 O   0  0  0  0  0  0  0  0  0  0  0  0
    1.8736   -4.3710    2.7972 C   0  0  0  0  0  0  0  0  0  0  0  0
    1.5125   -5.8265    2.8729 C   0  0  0  0  0  0  0  0  0  0  0  0
    2.3313   -6.9091    3.0929 C   0  0  0  0  0  0  0  0  0  0  0  0
    1.5044   -8.0258    3.0141 N   0  0  0  0  0  0  0  0  0  0  0  0
    1.6275   -9.3790    3.1320 C   0  0  0  0  0  0  0  0  0  0  0  0
    0.4665  -10.0888    2.9794 C   0  0  0  0  0  0  0  0  0  0  0  0
   -0.8161   -8.9343    2.6786 S   0  0  0  0  0  0  0  0  0  0  0  0
    0.2548   -7.5351    2.7356 C   0  0  0  0  0  0  0  0  0  0  0  0
    0.2073   -6.2415    2.5899 N   0  0  0  0  0  0  0  0  0  0  0  0
    1.3019   -1.3228    5.1271 C   0  0  0  0  0  0  0  0  0  0  0  0
    0.4087   -0.1233    4.7292 C   0  0  1  0  0  0  0  0  0  0  0  0
    0.0473    0.6542    6.0224 C   0  0  0  0  0  0  0  0  0  0  0  0
    0.5270    2.8137    4.2055 N   0  0  0  0  0  0  0  0  0  0  0  0
    0.8674    4.0993    4.2512 C   0  0  0  0  0  0  0  0  0  0  0  0
    0.2632    5.0320    4.9709 N   0  0  0  0  0  0  0  0  0  0  0  0
    1.1309    8.4022    4.8976 H   0  0  0  0  0  0  0  0  0  0  0  0
    0.5089    7.5605    6.3331 H   0  0  0  0  0  0  0  0  0  0  0  0
   -0.5233    7.8212    4.9532 H   0  0  0  0  0  0  0  0  0  0  0  0
    2.6710    6.6365    3.3111 H   0  0  0  0  0  0  0  0  0  0  0  0
    3.4607    4.3662    2.2532 H   0  0  0  0  0  0  0  0  0  0  0  0
    3.0938    1.8423    2.2421 H   0  0  0  0  0  0  0  0  0  0  0  0
    0.4782   -0.6681    2.0307 H   0  0  0  0  0  0  0  0  0  0  0  0
    1.8593    0.2484    1.6104 H   0  0  0  0  0  0  0  0  0  0  0  0
    2.5342   -2.0239    2.0224 H   0  0  0  0  0  0  0  0  0  0  0  0
    3.2582   -1.0676    3.2686 H   0  0  0  0  0  0  0  0  0  0  0  0
    1.4548   -3.9908    1.8750 H   0  0  0  0  0  0  0  0  0  0  0  0
    2.9580   -4.2388    2.7213 H   0  0  0  0  0  0  0  0  0  0  0  0
    3.3920   -7.0023    3.2795 H   0  0  0  0  0  0  0  0  0  0  0  0
    2.5921   -9.8141    3.3377 H   0  0  0  0  0  0  0  0  0  0  0  0
    0.2694  -11.1526    3.0287 H   0  0  0  0  0  0  0  0  0  0  0  0
    0.8221   -1.8737    5.9364 H   0  0  0  0  0  0  0  0  0  0  0  0
    2.2375   -0.9615    5.5518 H   0  0  0  0  0  0  0  0  0  0  0  0
   -0.5170   -0.5347    4.3289 H   0  0  0  0  0  0  0  0  0  0  0  0
   -0.3997    0.0286    6.8008 H   0  0  0  0  0  0  0  0  0  0  0  0
   -0.7067    1.4167    5.8467 H   0  0  0  0  0  0  0  0  0  0  0  0
    0.9505    1.1161    6.4271 H   0  0  0  0  0  0  0  0  0  0  0  0
   -0.4968    4.8366    5.6062 H   0  0  0  0  0  0  0  0  0  0  0  0
  1  2  1  0
  1 29  1  0
  1 30  1  0
  1 31  1  0
  2 28  1  0
  2  3  2  0
  3  4  1  0
  3 32  1  0
  4 27  1  0
  4  5  1  0
  5  6  2  0
  5 33  1  0
  6  7  1  0
  6 34  1  0
  7  8  1  0
  7 26  2  0
  8 24  1  0
  8  9  1  0
  9 10  1  0
  9 35  1  0
  9 36  1  0
 10 11  1  0
 10 37  1  0
 10 38  1  0
 11 12  1  0
 11 23  1  0
 12 13  2  0
 12 14  1  0
 14 15  1  0
 14 39  1  0
 14 40  1  0
 15 22  1  0
 15 16  2  0
 16 17  1  0
 16 41  1  0
 17 21  1  0
 17 18  1  0
 18 19  2  0
 18 42  1  0
 19 20  1  0
 19 43  1  0
 20 21  1  0
 21 22  2  0
 23 24  1  0
 23 44  1  0
 23 45  1  0
 24 25  1  0
 24 46  1  6
 25 47  1  0
 25 48  1  0
 25 49  1  0
 26 27  1  0
 27 28  2  0
 28 50  1  0
M  CHG  1  28   1
M  END
>  <i_m_ct_stereo_status>  (38) 
1

>  <s_m_source_file>  (38) 
/var/tmp/pbs.5076255.sched01/tmpikn618da/06v91y69d.sdf

>  <i_m_source_file_index>  (38) 
15

>  <i_lp_mmshare_version>  (38) 
48012

>  <i_f3d_flags>  (38) 
0

>  <s_epik_input>  (38) 
W0NIM11jKFtjSF0xKW5jKG4xMiluYyhbY0hdW2NIXTIpTjNbQ0gyXVtDSDJdTihbQ0gyXVtDQEhdM1tDSDNdKUMoPU8pW0NIMl1jKFtjSF00KW5jKG40NSlzW2NIXVtjSF01

>  <s_epik_cmdline>  (38) 
J2VwaWtfcHl0aG9uJywgJy1waHQnLCAnMi4wJywgJy1waCcsICc3LjAnLCAnLXRuJywgJzgnLCAnLW1hJywgJzIwMCcsICctaW1hZScsICc8aW5maWxlLm1hZT4nLCAnLW9tYWUnLCAnPG91dGZpbGUubWFlPic=

>  <r_epik_Ionization_Penalty>  (38) 
1.96444

>  <r_epik_Ionization_Penalty_Charging>  (38) 
0

>  <r_epik_Ionization_Penalty_Neutral>  (38) 
1.96444

>  <r_epik_State_Penalty>  (38) 
2.09042

>  <r_epik_Charging_Adjusted_Penalty>  (38) 
2.09042

>  <i_epik_Tot_Q>  (38) 
1

>  <i_epik_Tot_abs_Q>  (38) 
1

>  <s_lp_Force_Field>  (38) 
OPLS3e

>  <r_lp_Energy>  (38) 
42.6983

>  <b_lp_Chiralities_Consistent>  (38) 
1

>  <s_lp_Variant>  (38) 
6:0-2

>  <s_i_glide_gridfile>  (38) 
pfpi4k_grid

>  <i_i_glide_lignum>  (38) 
15

>  <i_i_glide_rotatable_bonds>  (38) 
4

>  <r_i_docking_score>  (38) 
-2.55564

>  <r_i_glide_ligand_efficiency>  (38) 
-0.091273

>  <r_i_glide_ligand_efficiency_sa>  (38) 
-0.277159

>  <r_i_glide_ligand_efficiency_ln>  (38) 
-0.589918

>  <r_i_glide_gscore>  (38) 
-2.55564

>  <r_i_glide_lipo>  (38) 
-0.0378569

>  <r_i_glide_hbond>  (38) 
-0.137592

>  <r_i_glide_metal>  (38) 
-0

>  <r_i_glide_rewards>  (38) 
-0.75402

>  <r_i_glide_evdw>  (38) 
-24.7815

>  <r_i_glide_ecoul>  (38) 
-4.54865

>  <r_i_glide_erotb>  (38) 
0.497832

>  <r_i_glide_esite>  (38) 
-0.202634

>  <r_i_glide_emodel>  (38) 
-34.6137

>  <r_i_glide_energy>  (38) 
-29.3302

>  <r_i_glide_einternal>  (38) 
3.73977

>  <r_i_glide_intrahb_reward>  (38) 
-0

>  <i_i_glide_confnum>  (38) 
5

>  <i_i_glide_posenum>  (38) 
34

>  <r_i_glide_eff_state_penalty>  (38) 
0

>  <ligand_id>  (38) 
6

>  <original_smiles>  (38) 
Cc1cn2ccc(N3CCN(C(=O)Cc4cn5ccsc5n4)CC3C)nc2n1

>  <smiles>  (38) 
[H]c1sc2nc(C([H])([H])C(=O)N3C([H])([H])C([H])([H])N(c4nc5n(c([H])c4[H])c([H])c(C([H])([H])[H])[n+]5[H])C([H])(C([H])([H])[H])C3([H])[H])c([H])n2c1[H]

$$$$
6:1:2
     RDKit          3D

 50 54  0  0  1  0  0  0  0  0999 V2000
   -3.7121    4.0890    2.4798 C   0  0  0  0  0  0  0  0  0  0  0  0
   -2.4056    3.4647    2.8794 C   0  0  0  0  0  0  0  0  0  0  0  0
   -1.2386    4.1090    3.2787 C   0  0  0  0  0  0  0  0  0  0  0  0
   -0.3592    3.0771    3.4932 N   0  0  0  0  0  0  0  0  0  0  0  0
    0.9431    3.2080    3.8901 C   0  0  0  0  0  0  0  0  0  0  0  0
    1.6594    2.0489    4.0598 C   0  0  0  0  0  0  0  0  0  0  0  0
    1.0215    0.8132    3.7628 C   0  0  0  0  0  0  0  0  0  0  0  0
    1.7589   -0.3573    3.8490 N   0  0  0  0  0  0  0  0  0  0  0  0
    1.3803   -1.3758    4.8196 C   0  0  0  0  0  0  0  0  0  0  0  0
    1.0200   -2.6877    4.1109 C   0  0  0  0  0  0  0  0  0  0  0  0
    2.1823   -3.1188    3.3010 N   0  0  0  0  0  0  0  0  0  0  0  0
    2.8739   -4.2882    3.3961 C   0  0  0  0  0  0  0  0  0  0  0  0
    3.7372   -4.5848    2.5649 O   0  0  0  0  0  0  0  0  0  0  0  0
    2.6578   -5.2648    4.5836 C   0  0  0  0  0  0  0  0  0  0  0  0
    2.2782   -6.6442    4.1029 C   0  0  0  0  0  0  0  0  0  0  0  0
    1.0543   -7.2666    4.1851 C   0  0  0  0  0  0  0  0  0  0  0  0
    1.2636   -8.5767    3.7597 N   0  0  0  0  0  0  0  0  0  0  0  0
    0.5222   -9.7199    3.6161 C   0  0  0  0  0  0  0  0  0  0  0  0
    1.2155  -10.8008    3.1342 C   0  0  0  0  0  0  0  0  0  0  0  0
    2.8702  -10.2926    2.8779 S   0  0  0  0  0  0  0  0  0  0  0  0
    2.5998   -8.6473    3.4282 C   0  0  0  0  0  0  0  0  0  0  0  0
    3.2530   -7.5318    3.6114 N   0  0  0  0  0  0  0  0  0  0  0  0
    2.5186   -2.1032    2.2671 C   0  0  0  0  0  0  0  0  0  0  0  0
    2.8337   -0.7237    2.9094 C   0  0  1  0  0  0  0  0  0  0  0  0
    3.1729    0.3347    1.8360 C   0  0  0  0  0  0  0  0  0  0  0  0
   -0.2553    0.7416    3.3934 N   0  0  0  0  0  0  0  0  0  0  0  0
   -0.9045    1.8980    3.2526 C   0  0  0  0  0  0  0  0  0  0  0  0
   -2.1471    2.0938    2.8875 N   0  0  0  0  0  0  0  0  0  0  0  0
   -3.7193    5.1767    2.5576 H   0  0  0  0  0  0  0  0  0  0  0  0
   -4.5024    3.6809    3.1086 H   0  0  0  0  0  0  0  0  0  0  0  0
   -3.9978    3.8081    1.4695 H   0  0  0  0  0  0  0  0  0  0  0  0
   -0.9424    5.1494    3.3813 H   0  0  0  0  0  0  0  0  0  0  0  0
    1.3315    4.2249    4.0235 H   0  0  0  0  0  0  0  0  0  0  0  0
    2.6982    2.0621    4.3737 H   0  0  0  0  0  0  0  0  0  0  0  0
    2.2396   -1.5475    5.4680 H   0  0  0  0  0  0  0  0  0  0  0  0
    0.5636   -1.0469    5.4550 H   0  0  0  0  0  0  0  0  0  0  0  0
    0.6663   -3.3792    4.8928 H   0  0  0  0  0  0  0  0  0  0  0  0
    0.1900   -2.5298    3.4112 H   0  0  0  0  0  0  0  0  0  0  0  0
    3.6322   -5.3598    5.0704 H   0  0  0  0  0  0  0  0  0  0  0  0
    1.9512   -4.9776    5.3796 H   0  0  0  0  0  0  0  0  0  0  0  0
    0.0988   -6.9728    4.5706 H   0  0  0  0  0  0  0  0  0  0  0  0
   -0.5345   -9.7129    3.8755 H   0  0  0  0  0  0  0  0  0  0  0  0
    0.8866  -11.8111    2.9155 H   0  0  0  0  0  0  0  0  0  0  0  0
    3.3538   -2.3747    1.6132 H   0  0  0  0  0  0  0  0  0  0  0  0
    1.6686   -1.9936    1.5920 H   0  0  0  0  0  0  0  0  0  0  0  0
    3.7155   -0.8726    3.5332 H   0  0  0  0  0  0  0  0  0  0  0  0
    4.0305    0.0268    1.2442 H   0  0  0  0  0  0  0  0  0  0  0  0
    3.4460    1.2913    2.2672 H   0  0  0  0  0  0  0  0  0  0  0  0
    2.3261    0.4741    1.1693 H   0  0  0  0  0  0  0  0  0  0  0  0
   -2.7992    1.3302    2.6603 H   0  0  0  0  0  0  0  0  0  0  0  0
  1  2  1  0
  1 29  1  0
  1 30  1  0
  1 31  1  0
  2 28  1  0
  2  3  2  0
  3  4  1  0
  3 32  1  0
  4 27  1  0
  4  5  1  0
  5  6  2  0
  5 33  1  0
  6  7  1  0
  6 34  1  0
  7  8  1  0
  7 26  2  0
  8 24  1  0
  8  9  1  0
  9 10  1  0
  9 35  1  0
  9 36  1  0
 10 11  1  0
 10 37  1  0
 10 38  1  0
 11 12  1  0
 11 23  1  0
 12 13  2  0
 12 14  1  0
 14 15  1  0
 14 39  1  0
 14 40  1  0
 15 22  1  0
 15 16  2  0
 16 17  1  0
 16 41  1  0
 17 21  1  0
 17 18  1  0
 18 19  2  0
 18 42  1  0
 19 20  1  0
 19 43  1  0
 20 21  1  0
 21 22  2  0
 23 24  1  0
 23 44  1  0
 23 45  1  0
 24 25  1  0
 24 46  1  1
 25 47  1  0
 25 48  1  0
 25 49  1  0
 26 27  1  0
 27 28  2  0
 28 50  1  0
M  CHG  1  28   1
M  END
>  <i_m_ct_stereo_status>  (39) 
1

>  <s_m_source_file>  (39) 
/var/tmp/pbs.5076255.sched01/tmpikn618da/06v91y69d.sdf

>  <i_m_source_file_index>  (39) 
15

>  <i_lp_mmshare_version>  (39) 
48012

>  <i_f3d_flags>  (39) 
0

>  <s_epik_input>  (39) 
W0NIM11jKFtjSF0xKW5jKG4xMiluYyhbY0hdW2NIXTIpTjNbQ0gyXVtDSDJdTihbQ0gyXVtDQEhdM1tDSDNdKUMoPU8pW0NIMl1jKFtjSF00KW5jKG40NSlzW2NIXVtjSF01

>  <s_epik_cmdline>  (39) 
J2VwaWtfcHl0aG9uJywgJy1waHQnLCAnMi4wJywgJy1waCcsICc3LjAnLCAnLXRuJywgJzgnLCAnLW1hJywgJzIwMCcsICctaW1hZScsICc8aW5maWxlLm1hZT4nLCAnLW9tYWUnLCAnPG91dGZpbGUubWFlPic=

>  <r_epik_Ionization_Penalty>  (39) 
1.96444

>  <r_epik_Ionization_Penalty_Charging>  (39) 
0

>  <r_epik_Ionization_Penalty_Neutral>  (39) 
1.96444

>  <r_epik_State_Penalty>  (39) 
2.09042

>  <r_epik_Charging_Adjusted_Penalty>  (39) 
2.09042

>  <i_epik_Tot_Q>  (39) 
1

>  <i_epik_Tot_abs_Q>  (39) 
1

>  <s_lp_Force_Field>  (39) 
OPLS3e

>  <r_lp_Energy>  (39) 
42.6983

>  <b_lp_Chiralities_Consistent>  (39) 
1

>  <s_lp_Variant>  (39) 
6:0-2

>  <s_i_glide_gridfile>  (39) 
pfpi4k_grid

>  <i_i_glide_lignum>  (39) 
15

>  <i_i_glide_rotatable_bonds>  (39) 
4

>  <r_i_docking_score>  (39) 
-2.53411

>  <r_i_glide_ligand_efficiency>  (39) 
-0.0905041

>  <r_i_glide_ligand_efficiency_sa>  (39) 
-0.274824

>  <r_i_glide_ligand_efficiency_ln>  (39) 
-0.584948

>  <r_i_glide_gscore>  (39) 
-2.53411

>  <r_i_glide_lipo>  (39) 
-0.333807

>  <r_i_glide_hbond>  (39) 
0

>  <r_i_glide_metal>  (39) 
-0

>  <r_i_glide_rewards>  (39) 
-0.70753

>  <r_i_glide_evdw>  (39) 
-24.5021

>  <r_i_glide_ecoul>  (39) 
-4.04724

>  <r_i_glide_erotb>  (39) 
0.497832

>  <r_i_glide_esite>  (39) 
-0.158416

>  <r_i_glide_emodel>  (39) 
-34.8273

>  <r_i_glide_energy>  (39) 
-28.5494

>  <r_i_glide_einternal>  (39) 
1.40674

>  <r_i_glide_intrahb_reward>  (39) 
-0

>  <i_i_glide_confnum>  (39) 
2

>  <i_i_glide_posenum>  (39) 
3

>  <r_i_glide_eff_state_penalty>  (39) 
0

>  <ligand_id>  (39) 
6

>  <original_smiles>  (39) 
Cc1cn2ccc(N3CCN(C(=O)Cc4cn5ccsc5n4)CC3C)nc2n1

>  <smiles>  (39) 
[H]c1sc2nc(C([H])([H])C(=O)N3C([H])([H])C([H])([H])N(c4nc5n(c([H])c4[H])c([H])c(C([H])([H])[H])[n+]5[H])C([H])(C([H])([H])[H])C3([H])[H])c([H])n2c1[H]

$$$$
7:0:0
     RDKit          3D

 82 86  0  0  1  0  0  0  0  0999 V2000
    0.2476    1.0024    1.7562 C   0  0  0  0  0  0  0  0  0  0  0  0
    0.6858    0.6020    3.1746 C   0  0  0  0  0  0  0  0  0  0  0  0
   -0.4812    0.8406    4.1476 C   0  0  0  0  0  0  0  0  0  0  0  0
    1.0456   -0.8785    3.1718 C   0  0  0  0  0  0  0  0  0  0  0  0
    2.2679   -1.4076    3.3488 C   0  0  0  0  0  0  0  0  0  0  0  0
    2.4569   -2.9281    3.2927 C   0  0  2  0  0  0  0  0  0  0  0  0
    2.7043   -3.4961    4.6935 C   0  0  0  0  0  0  0  0  0  0  0  0
    2.6764   -5.0100    4.6705 C   0  0  0  0  0  0  0  0  0  0  0  0
    3.7841   -5.6294    3.7538 C   0  0  1  0  0  0  0  0  0  0  0  0
    3.7997   -7.2184    3.9219 C   0  0  2  0  0  0  0  0  0  0  0  0
    3.8918   -7.4825    5.4558 C   0  0  0  0  0  0  0  0  0  0  0  0
    5.0494   -7.9327    3.3164 C   0  0  0  0  0  0  0  0  0  0  0  0
    5.0094   -9.4771    3.3774 C   0  0  0  0  0  0  0  0  0  0  0  0
    3.7244  -10.0433    2.7480 C   0  0  1  0  0  0  0  0  0  0  0  0
    3.7361  -11.4492    2.8838 O   0  0  0  0  0  0  0  0  0  0  0  0
    2.4221   -9.4162    3.3246 C   0  0  0  0  0  0  0  0  0  0  0  0
    1.2277   -9.9174    2.4833 C   0  0  0  0  0  0  0  0  0  0  0  0
    2.1302   -9.9366    4.7583 C   0  0  0  0  0  0  0  0  0  0  0  0
    2.5092   -7.8360    3.2689 C   0  0  2  0  0  0  0  0  0  0  0  0
    2.3343   -7.2705    1.8263 C   0  0  0  0  0  0  0  0  0  0  0  0
    2.3722   -5.7281    1.6964 C   0  0  0  0  0  0  0  0  0  0  0  0
    3.6408   -5.0364    2.2860 C   0  0  2  0  0  0  0  0  0  0  0  0
    4.8328   -5.4423    1.3686 C   0  0  0  0  0  0  0  0  0  0  0  0
    3.5248   -3.4128    2.2654 C   0  0  1  0  0  0  0  0  0  0  0  0
    3.0428   -2.9205    0.8630 C   0  0  0  0  0  0  0  0  0  0  0  0
    4.8455   -2.6304    2.6488 C   0  0  1  0  0  0  0  0  0  0  0  0
    5.9028   -2.8141    1.7341 O   0  0  0  0  0  0  0  0  0  0  0  0
    4.7017   -1.0847    2.6980 C   0  0  0  0  0  0  0  0  0  0  0  0
    3.5181   -0.5348    3.5326 C   0  0  2  0  0  0  0  0  0  0  0  0
    3.9195   -0.4644    5.0240 C   0  0  0  0  0  0  0  0  0  0  0  0
    3.2069    0.9079    3.0588 C   0  0  0  0  0  0  0  0  0  0  0  0
    1.8898    1.4574    3.6086 C   0  0  0  0  0  0  0  0  0  0  0  0
   -0.0077    2.0630    1.6841 H   0  0  0  0  0  0  0  0  0  0  0  0
   -0.6310    0.4360    1.4436 H   0  0  0  0  0  0  0  0  0  0  0  0
    1.0304    0.8026    1.0213 H   0  0  0  0  0  0  0  0  0  0  0  0
   -0.7594    1.8964    4.1779 H   0  0  0  0  0  0  0  0  0  0  0  0
   -0.2081    0.5374    5.1588 H   0  0  0  0  0  0  0  0  0  0  0  0
   -1.3681    0.2729    3.8598 H   0  0  0  0  0  0  0  0  0  0  0  0
    0.2131   -1.5455    3.0161 H   0  0  0  0  0  0  0  0  0  0  0  0
    1.4951   -3.3257    2.9733 H   0  0  0  0  0  0  0  0  0  0  0  0
    3.6607   -3.1954    5.1147 H   0  0  0  0  0  0  0  0  0  0  0  0
    1.9429   -3.1271    5.3826 H   0  0  0  0  0  0  0  0  0  0  0  0
    2.7724   -5.3031    5.7135 H   0  0  0  0  0  0  0  0  0  0  0  0
    1.6790   -5.3289    4.3700 H   0  0  0  0  0  0  0  0  0  0  0  0
    4.7368   -5.2707    4.1444 H   0  0  0  0  0  0  0  0  0  0  0  0
    4.3548   -8.4263    5.7250 H   0  0  0  0  0  0  0  0  0  0  0  0
    2.9110   -7.4706    5.9361 H   0  0  0  0  0  0  0  0  0  0  0  0
    4.5176   -6.7344    5.9498 H   0  0  0  0  0  0  0  0  0  0  0  0
    5.1443   -7.7405    2.2606 H   0  0  0  0  0  0  0  0  0  0  0  0
    5.9672   -7.5571    3.7769 H   0  0  0  0  0  0  0  0  0  0  0  0
    5.8691   -9.8665    2.8269 H   0  0  0  0  0  0  0  0  0  0  0  0
    5.1373   -9.8481    4.3935 H   0  0  0  0  0  0  0  0  0  0  0  0
    3.7714   -9.8395    1.6785 H   0  0  0  0  0  0  0  0  0  0  0  0
    3.8081  -11.8211    1.9948 H   0  0  0  0  0  0  0  0  0  0  0  0
    0.3038   -9.3851    2.7241 H   0  0  0  0  0  0  0  0  0  0  0  0
    1.0461  -10.9862    2.6300 H   0  0  0  0  0  0  0  0  0  0  0  0
    1.4328   -9.7962    1.4232 H   0  0  0  0  0  0  0  0  0  0  0  0
    1.4240   -9.2896    5.2841 H   0  0  0  0  0  0  0  0  0  0  0  0
    3.0277  -10.0336    5.3646 H   0  0  0  0  0  0  0  0  0  0  0  0
    1.6915  -10.9384    4.7487 H   0  0  0  0  0  0  0  0  0  0  0  0
    1.6427   -7.4818    3.8237 H   0  0  0  0  0  0  0  0  0  0  0  0
    3.0713   -7.7191    1.1628 H   0  0  0  0  0  0  0  0  0  0  0  0
    1.3697   -7.5742    1.4184 H   0  0  0  0  0  0  0  0  0  0  0  0
    2.2762   -5.4962    0.6338 H   0  0  0  0  0  0  0  0  0  0  0  0
    1.4688   -5.3428    2.1631 H   0  0  0  0  0  0  0  0  0  0  0  0
    5.0084   -4.7565    0.5441 H   0  0  0  0  0  0  0  0  0  0  0  0
    4.6791   -6.3736    0.8323 H   0  0  0  0  0  0  0  0  0  0  0  0
    5.7626   -5.5206    1.9342 H   0  0  0  0  0  0  0  0  0  0  0  0
    3.6922   -3.2168    0.0428 H   0  0  0  0  0  0  0  0  0  0  0  0
    2.9637   -1.8360    0.7956 H   0  0  0  0  0  0  0  0  0  0  0  0
    2.0457   -3.2810    0.6281 H   0  0  0  0  0  0  0  0  0  0  0  0
    5.2112   -2.9729    3.6163 H   0  0  0  0  0  0  0  0  0  0  0  0
    6.1107   -3.7357    1.7157 H   0  0  0  0  0  0  0  0  0  0  0  0
    5.6335   -0.6453    3.0626 H   0  0  0  0  0  0  0  0  0  0  0  0
    4.6207   -0.7156    1.6763 H   0  0  0  0  0  0  0  0  0  0  0  0
    4.5207    0.4220    5.2386 H   0  0  0  0  0  0  0  0  0  0  0  0
    4.5231   -1.3142    5.3384 H   0  0  0  0  0  0  0  0  0  0  0  0
    3.0381   -0.4204    5.6669 H   0  0  0  0  0  0  0  0  0  0  0  0
    4.0063    1.5775    3.3631 H   0  0  0  0  0  0  0  0  0  0  0  0
    3.1715    0.9520    1.9695 H   0  0  0  0  0  0  0  0  0  0  0  0
    1.7500    2.4893    3.2789 H   0  0  0  0  0  0  0  0  0  0  0  0
    1.9478    1.5027    4.6953 H   0  0  0  0  0  0  0  0  0  0  0  0
  1  2  1  0
  1 33  1  0
  1 34  1  0
  1 35  1  0
  2 32  1  0
  2  3  1  0
  2  4  1  0
  3 36  1  0
  3 37  1  0
  3 38  1  0
  4  5  2  0
  4 39  1  0
  5 29  1  0
  5  6  1  0
  6 24  1  0
  6  7  1  0
  6 40  1  6
  7  8  1  0
  7 41  1  0
  7 42  1  0
  8  9  1  0
  8 43  1  0
  8 44  1  0
  9 22  1  0
  9 10  1  0
  9 45  1  1
 10 19  1  0
 10 11  1  1
 10 12  1  0
 11 46  1  0
 11 47  1  0
 11 48  1  0
 12 13  1  0
 12 49  1  0
 12 50  1  0
 13 14  1  0
 13 51  1  0
 13 52  1  0
 14 15  1  0
 14 16  1  0
 14 53  1  6
 15 54  1  0
 16 17  1  0
 16 18  1  0
 16 19  1  0
 17 55  1  0
 17 56  1  0
 17 57  1  0
 18 58  1  0
 18 59  1  0
 18 60  1  0
 19 20  1  0
 19 61  1  1
 20 21  1  0
 20 62  1  0
 20 63  1  0
 21 22  1  0
 21 64  1  0
 21 65  1  0
 22 23  1  6
 22 24  1  0
 23 66  1  0
 23 67  1  0
 23 68  1  0
 24 25  1  6
 24 26  1  0
 25 69  1  0
 25 70  1  0
 25 71  1  0
 26 27  1  0
 26 28  1  0
 26 72  1  1
 27 73  1  0
 28 29  1  0
 28 74  1  0
 28 75  1  0
 29 30  1  1
 29 31  1  0
 30 76  1  0
 30 77  1  0
 30 78  1  0
 31 32  1  0
 31 79  1  0
 31 80  1  0
 32 81  1  0
 32 82  1  0
M  END
>  <i_m_ct_stereo_status>  (40) 
1

>  <s_m_source_file>  (40) 
/var/tmp/pbs.5076255.sched01/tmpikn618da/06v91y69d.sdf

>  <i_m_source_file_index>  (40) 
16

>  <i_lp_mmshare_version>  (40) 
48012

>  <i_f3d_flags>  (40) 
0

>  <s_epik_input>  (40) 
W0NIM11DKFtDSDNdKShbQ0hdPTEpW0NIMl1bQ0gyXVtDQF0oW0NIM10pKFtDSDJdW0NAQEhdMltPSF0pQzFbQ0BIXShbQ0gyXVtDSDJdMylbQ0BdMihbQ0gzXSlbQ0BAXShbQ0gzXSkoW0NAQEhdM1tDQF00NVtDSDNdKVtDSDJdW0NIMl1bQ0BIXTVDKFtDSDNdKShbQ0gzXSlbQ0BIXShbT0hdKVtDSDJdW0NIMl00

>  <s_epik_cmdline>  (40) 
J2VwaWtfcHl0aG9uJywgJy1waHQnLCAnMi4wJywgJy1waCcsICc3LjAnLCAnLXRuJywgJzgnLCAnLW1hJywgJzIwMCcsICctaW1hZScsICc8aW5maWxlLm1hZT4nLCAnLW9tYWUnLCAnPG91dGZpbGUubWFlPic=

>  <r_lp_tautomer_probability>  (40) 
1

>  <r_epik_Ionization_Penalty>  (40) 
5.55285e-06

>  <r_epik_Ionization_Penalty_Charging>  (40) 
0

>  <r_epik_Ionization_Penalty_Neutral>  (40) 
5.55285e-06

>  <r_epik_State_Penalty>  (40) 
-0

>  <r_epik_Charging_Adjusted_Penalty>  (40) 
0

>  <i_epik_Tot_Q>  (40) 
0

>  <i_epik_Tot_abs_Q>  (40) 
0

>  <s_lp_Force_Field>  (40) 
OPLS3e

>  <r_lp_Energy>  (40) 
92.0732

>  <b_lp_Chiralities_Consistent>  (40) 
1

>  <s_lp_Variant>  (40) 
7:0-1

>  <s_i_glide_gridfile>  (40) 
pfpi4k_grid

>  <i_i_glide_lignum>  (40) 
16

>  <i_i_glide_rotatable_bonds>  (40) 
2

>  <r_i_docking_score>  (40) 
-2.8288

>  <r_i_glide_ligand_efficiency>  (40) 
-0.0884

>  <r_i_glide_ligand_efficiency_sa>  (40) 
-0.280653

>  <r_i_glide_ligand_efficiency_ln>  (40) 
-0.633446

>  <r_i_glide_gscore>  (40) 
-2.8288

>  <r_i_glide_lipo>  (40) 
-0.309188

>  <r_i_glide_hbond>  (40) 
-0.16

>  <r_i_glide_metal>  (40) 
-0

>  <r_i_glide_rewards>  (40) 
-0.390567

>  <r_i_glide_evdw>  (40) 
-26.4147

>  <r_i_glide_ecoul>  (40) 
-4.32206

>  <r_i_glide_erotb>  (40) 
0

>  <r_i_glide_esite>  (40) 
0

>  <r_i_glide_emodel>  (40) 
-35.4608

>  <r_i_glide_energy>  (40) 
-30.7368

>  <r_i_glide_einternal>  (40) 
1.73637

>  <r_i_glide_intrahb_reward>  (40) 
-0

>  <i_i_glide_confnum>  (40) 
2

>  <i_i_glide_posenum>  (40) 
20

>  <r_i_glide_eff_state_penalty>  (40) 
0

>  <ligand_id>  (40) 
7

>  <original_smiles>  (40) 
CC1(C)C=C2C3CCC4C5(C)CCC(O)C(C)(C)C5CCC4(C)C3(C)C(O)CC2(C)CC1

>  <smiles>  (40) 
[H]OC1([H])C([H])([H])C([H])([H])C2(C([H])([H])[H])C([H])(C([H])([H])C([H])([H])C3(C([H])([H])[H])C2([H])C([H])([H])C([H])([H])C2([H])C4=C([H])C(C([H])([H])[H])(C([H])([H])[H])C([H])([H])C([H])([H])C4(C([H])([H])[H])C([H])([H])C([H])(O[H])C23C([H])([H])[H])C1(C([H])([H])[H])C([H])([H])[H]

$$$$
7:0:1
     RDKit          3D

 82 86  0  0  1  0  0  0  0  0999 V2000
    0.5548    0.9240    1.9335 C   0  0  0  0  0  0  0  0  0  0  0  0
    0.9431    0.5118    3.3643 C   0  0  0  0  0  0  0  0  0  0  0  0
   -0.1897    0.9064    4.3285 C   0  0  0  0  0  0  0  0  0  0  0  0
    1.1232   -0.9989    3.3997 C   0  0  0  0  0  0  0  0  0  0  0  0
    2.2806   -1.6658    3.5962 C   0  0  0  0  0  0  0  0  0  0  0  0
    2.2948   -3.1962    3.5828 C   0  0  2  0  0  0  0  0  0  0  0  0
    2.4691   -3.7543    4.9987 C   0  0  0  0  0  0  0  0  0  0  0  0
    2.2673   -5.2532    5.0117 C   0  0  0  0  0  0  0  0  0  0  0  0
    3.2995   -6.0200    4.1157 C   0  0  1  0  0  0  0  0  0  0  0  0
    3.1287   -7.5977    4.3238 C   0  0  2  0  0  0  0  0  0  0  0  0
    3.1831   -7.8340    5.8644 C   0  0  0  0  0  0  0  0  0  0  0  0
    4.2904   -8.4653    3.7436 C   0  0  0  0  0  0  0  0  0  0  0  0
    4.0728   -9.9887    3.8455 C   0  0  0  0  0  0  0  0  0  0  0  0
    2.7378  -10.4206    3.2207 C   0  0  1  0  0  0  0  0  0  0  0  0
    2.5842  -11.8116    3.4067 O   0  0  0  0  0  0  0  0  0  0  0  0
    1.5067   -9.6371    3.7625 C   0  0  0  0  0  0  0  0  0  0  0  0
    0.2753  -10.0209    2.9095 C   0  0  0  0  0  0  0  0  0  0  0  0
    1.1491  -10.0821    5.2077 C   0  0  0  0  0  0  0  0  0  0  0  0
    1.7753   -8.0770    3.6724 C   0  0  2  0  0  0  0  0  0  0  0  0
    1.6734   -7.5310    2.2164 C   0  0  0  0  0  0  0  0  0  0  0  0
    1.8902   -6.0081    2.0525 C   0  0  0  0  0  0  0  0  0  0  0  0
    3.2303   -5.4508    2.6317 C   0  0  2  0  0  0  0  0  0  0  0  0
    4.3697   -6.0149    1.7346 C   0  0  0  0  0  0  0  0  0  0  0  0
    3.3095   -3.8251    2.5730 C   0  0  1  0  0  0  0  0  0  0  0  0
    2.8935   -3.3160    1.1569 C   0  0  0  0  0  0  0  0  0  0  0  0
    4.7138   -3.1948    2.9473 C   0  0  1  0  0  0  0  0  0  0  0  0
    5.7714   -3.5335    2.0724 O   0  0  0  0  0  0  0  0  0  0  0  0
    4.7392   -1.6407    2.9567 C   0  0  0  0  0  0  0  0  0  0  0  0
    3.6232   -0.9358    3.7721 C   0  0  2  0  0  0  0  0  0  0  0  0
    4.0252   -0.8780    5.2639 C   0  0  0  0  0  0  0  0  0  0  0  0
    3.4917    0.5227    3.2611 C   0  0  0  0  0  0  0  0  0  0  0  0
    2.2414    1.2317    3.7882 C   0  0  0  0  0  0  0  0  0  0  0  0
    0.4251    2.0033    1.8341 H   0  0  0  0  0  0  0  0  0  0  0  0
   -0.3828    0.4548    1.6297 H   0  0  0  0  0  0  0  0  0  0  0  0
    1.3126    0.6150    1.2119 H   0  0  0  0  0  0  0  0  0  0  0  0
   -0.3431    1.9875    4.3312 H   0  0  0  0  0  0  0  0  0  0  0  0
    0.0437    0.5979    5.3489 H   0  0  0  0  0  0  0  0  0  0  0  0
   -1.1359    0.4377    4.0484 H   0  0  0  0  0  0  0  0  0  0  0  0
    0.2124   -1.5644    3.2602 H   0  0  0  0  0  0  0  0  0  0  0  0
    1.2942   -3.4905    3.2665 H   0  0  0  0  0  0  0  0  0  0  0  0
    3.4514   -3.5579    5.4166 H   0  0  0  0  0  0  0  0  0  0  0  0
    1.7528   -3.2853    5.6726 H   0  0  0  0  0  0  0  0  0  0  0  0
    2.3260   -5.5327    6.0613 H   0  0  0  0  0  0  0  0  0  0  0  0
    1.2404   -5.4675    4.7138 H   0  0  0  0  0  0  0  0  0  0  0  0
    4.2867   -5.7669    4.5023 H   0  0  0  0  0  0  0  0  0  0  0  0
    3.5326   -8.8168    6.1591 H   0  0  0  0  0  0  0  0  0  0  0  0
    2.2102   -7.6956    6.3371 H   0  0  0  0  0  0  0  0  0  0  0  0
    3.8902   -7.1523    6.3417 H   0  0  0  0  0  0  0  0  0  0  0  0
    4.4125   -8.3109    2.6843 H   0  0  0  0  0  0  0  0  0  0  0  0
    5.2419   -8.1854    4.2001 H   0  0  0  0  0  0  0  0  0  0  0  0
    4.8776  -10.4894    3.3077 H   0  0  0  0  0  0  0  0  0  0  0  0
    4.1556  -10.3463    4.8683 H   0  0  0  0  0  0  0  0  0  0  0  0
    2.8134  -10.2651    2.1440 H   0  0  0  0  0  0  0  0  0  0  0  0
    2.4504  -11.9888    4.3256 H   0  0  0  0  0  0  0  0  0  0  0  0
   -0.5861   -9.3885    3.1330 H   0  0  0  0  0  0  0  0  0  0  0  0
   -0.0212  -11.0549    3.0878 H   0  0  0  0  0  0  0  0  0  0  0  0
    0.4949   -9.9554    1.8464 H   0  0  0  0  0  0  0  0  0  0  0  0
    0.5207   -9.3465    5.7119 H   0  0  0  0  0  0  0  0  0  0  0  0
    2.0236  -10.2657    5.8260 H   0  0  0  0  0  0  0  0  0  0  0  0
    0.5950  -11.0230    5.2218 H   0  0  0  0  0  0  0  0  0  0  0  0
    0.9548   -7.6101    4.2163 H   0  0  0  0  0  0  0  0  0  0  0  0
    2.3521   -8.0788    1.5684 H   0  0  0  0  0  0  0  0  0  0  0  0
    0.6831   -7.7297    1.8123 H   0  0  0  0  0  0  0  0  0  0  0  0
    1.8304   -5.7911    0.9854 H   0  0  0  0  0  0  0  0  0  0  0  0
    1.0360   -5.5074    2.5028 H   0  0  0  0  0  0  0  0  0  0  0  0
    4.6309   -5.3702    0.9023 H   0  0  0  0  0  0  0  0  0  0  0  0
    4.1150   -6.9362    1.2205 H   0  0  0  0  0  0  0  0  0  0  0  0
    5.2836   -6.1735    2.3078 H   0  0  0  0  0  0  0  0  0  0  0  0
    3.4990   -3.7095    0.3449 H   0  0  0  0  0  0  0  0  0  0  0  0
    2.9361   -2.2330    1.0628 H   0  0  0  0  0  0  0  0  0  0  0  0
    1.8609   -3.5668    0.9357 H   0  0  0  0  0  0  0  0  0  0  0  0
    5.0197   -3.5488    3.9296 H   0  0  0  0  0  0  0  0  0  0  0  0
    5.5347   -3.2565    1.2017 H   0  0  0  0  0  0  0  0  0  0  0  0
    5.7111   -1.2992    3.3194 H   0  0  0  0  0  0  0  0  0  0  0  0
    4.7034   -1.2845    1.9271 H   0  0  0  0  0  0  0  0  0  0  0  0
    4.7248   -0.0648    5.4605 H   0  0  0  0  0  0  0  0  0  0  0  0
    4.5265   -1.7818    5.6011 H   0  0  0  0  0  0  0  0  0  0  0  0
    3.1554   -0.7166    5.9003 H   0  0  0  0  0  0  0  0  0  0  0  0
    4.3729    1.0972    3.5412 H   0  0  0  0  0  0  0  0  0  0  0  0
    3.4599    0.5425    2.1720 H   0  0  0  0  0  0  0  0  0  0  0  0
    2.2236    2.2641    3.4359 H   0  0  0  0  0  0  0  0  0  0  0  0
    2.2995    1.2937    4.8743 H   0  0  0  0  0  0  0  0  0  0  0  0
  1  2  1  0
  1 33  1  0
  1 34  1  0
  1 35  1  0
  2 32  1  0
  2  3  1  0
  2  4  1  0
  3 36  1  0
  3 37  1  0
  3 38  1  0
  4  5  2  0
  4 39  1  0
  5 29  1  0
  5  6  1  0
  6 24  1  0
  6  7  1  0
  6 40  1  6
  7  8  1  0
  7 41  1  0
  7 42  1  0
  8  9  1  0
  8 43  1  0
  8 44  1  0
  9 22  1  0
  9 10  1  0
  9 45  1  1
 10 19  1  0
 10 11  1  1
 10 12  1  0
 11 46  1  0
 11 47  1  0
 11 48  1  0
 12 13  1  0
 12 49  1  0
 12 50  1  0
 13 14  1  0
 13 51  1  0
 13 52  1  0
 14 15  1  0
 14 16  1  0
 14 53  1  6
 15 54  1  0
 16 17  1  0
 16 18  1  0
 16 19  1  0
 17 55  1  0
 17 56  1  0
 17 57  1  0
 18 58  1  0
 18 59  1  0
 18 60  1  0
 19 20  1  0
 19 61  1  1
 20 21  1  0
 20 62  1  0
 20 63  1  0
 21 22  1  0
 21 64  1  0
 21 65  1  0
 22 23  1  6
 22 24  1  0
 23 66  1  0
 23 67  1  0
 23 68  1  0
 24 25  1  6
 24 26  1  0
 25 69  1  0
 25 70  1  0
 25 71  1  0
 26 27  1  0
 26 28  1  0
 26 72  1  1
 27 73  1  0
 28 29  1  0
 28 74  1  0
 28 75  1  0
 29 30  1  1
 29 31  1  0
 30 76  1  0
 30 77  1  0
 30 78  1  0
 31 32  1  0
 31 79  1  0
 31 80  1  0
 32 81  1  0
 32 82  1  0
M  END
>  <i_m_ct_stereo_status>  (41) 
1

>  <s_m_source_file>  (41) 
/var/tmp/pbs.5076255.sched01/tmpikn618da/06v91y69d.sdf

>  <i_m_source_file_index>  (41) 
16

>  <i_lp_mmshare_version>  (41) 
48012

>  <i_f3d_flags>  (41) 
0

>  <s_epik_input>  (41) 
W0NIM11DKFtDSDNdKShbQ0hdPTEpW0NIMl1bQ0gyXVtDQF0oW0NIM10pKFtDSDJdW0NAQEhdMltPSF0pQzFbQ0BIXShbQ0gyXVtDSDJdMylbQ0BdMihbQ0gzXSlbQ0BAXShbQ0gzXSkoW0NAQEhdM1tDQF00NVtDSDNdKVtDSDJdW0NIMl1bQ0BIXTVDKFtDSDNdKShbQ0gzXSlbQ0BIXShbT0hdKVtDSDJdW0NIMl00

>  <s_epik_cmdline>  (41) 
J2VwaWtfcHl0aG9uJywgJy1waHQnLCAnMi4wJywgJy1waCcsICc3LjAnLCAnLXRuJywgJzgnLCAnLW1hJywgJzIwMCcsICctaW1hZScsICc8aW5maWxlLm1hZT4nLCAnLW9tYWUnLCAnPG91dGZpbGUubWFlPic=

>  <r_lp_tautomer_probability>  (41) 
1

>  <r_epik_Ionization_Penalty>  (41) 
5.55285e-06

>  <r_epik_Ionization_Penalty_Charging>  (41) 
0

>  <r_epik_Ionization_Penalty_Neutral>  (41) 
5.55285e-06

>  <r_epik_State_Penalty>  (41) 
-0

>  <r_epik_Charging_Adjusted_Penalty>  (41) 
0

>  <i_epik_Tot_Q>  (41) 
0

>  <i_epik_Tot_abs_Q>  (41) 
0

>  <s_lp_Force_Field>  (41) 
OPLS3e

>  <r_lp_Energy>  (41) 
92.0732

>  <b_lp_Chiralities_Consistent>  (41) 
1

>  <s_lp_Variant>  (41) 
7:0-1

>  <s_i_glide_gridfile>  (41) 
pfpi4k_grid

>  <i_i_glide_lignum>  (41) 
16

>  <i_i_glide_rotatable_bonds>  (41) 
2

>  <r_i_docking_score>  (41) 
-2.0096

>  <r_i_glide_ligand_efficiency>  (41) 
-0.0627999

>  <r_i_glide_ligand_efficiency_sa>  (41) 
-0.199377

>  <r_i_glide_ligand_efficiency_ln>  (41) 
-0.450004

>  <r_i_glide_gscore>  (41) 
-2.0096

>  <r_i_glide_lipo>  (41) 
-0.148447

>  <r_i_glide_hbond>  (41) 
0

>  <r_i_glide_metal>  (41) 
-0

>  <r_i_glide_rewards>  (41) 
-0.390567

>  <r_i_glide_evdw>  (41) 
-28.0742

>  <r_i_glide_ecoul>  (41) 
-0.445825

>  <r_i_glide_erotb>  (41) 
0

>  <r_i_glide_esite>  (41) 
0

>  <r_i_glide_emodel>  (41) 
-32.4288

>  <r_i_glide_energy>  (41) 
-28.52

>  <r_i_glide_einternal>  (41) 
0.0296722

>  <r_i_glide_intrahb_reward>  (41) 
-0

>  <i_i_glide_confnum>  (41) 
2

>  <i_i_glide_posenum>  (41) 
9

>  <r_i_glide_eff_state_penalty>  (41) 
0

>  <ligand_id>  (41) 
7

>  <original_smiles>  (41) 
CC1(C)C=C2C3CCC4C5(C)CCC(O)C(C)(C)C5CCC4(C)C3(C)C(O)CC2(C)CC1

>  <smiles>  (41) 
[H]OC1([H])C([H])([H])C([H])([H])C2(C([H])([H])[H])C([H])(C([H])([H])C([H])([H])C3(C([H])([H])[H])C2([H])C([H])([H])C([H])([H])C2([H])C4=C([H])C(C([H])([H])[H])(C([H])([H])[H])C([H])([H])C([H])([H])C4(C([H])([H])[H])C([H])([H])C([H])(O[H])C23C([H])([H])[H])C1(C([H])([H])[H])C([H])([H])[H]

$$$$
7:0:2
     RDKit          3D

 82 86  0  0  1  0  0  0  0  0999 V2000
    0.2160    1.3388    2.1103 C   0  0  0  0  0  0  0  0  0  0  0  0
    0.2822    1.0185    3.6137 C   0  0  0  0  0  0  0  0  0  0  0  0
   -1.0485    1.4161    4.2765 C   0  0  0  0  0  0  0  0  0  0  0  0
    0.4879   -0.4785    3.7700 C   0  0  0  0  0  0  0  0  0  0  0  0
    1.5865   -1.0912    4.2573 C   0  0  0  0  0  0  0  0  0  0  0  0
    1.6366   -2.6193    4.3235 C   0  0  2  0  0  0  0  0  0  0  0  0
    1.4996   -3.1072    5.7689 C   0  0  0  0  0  0  0  0  0  0  0  0
    1.3415   -4.6117    5.8144 C   0  0  0  0  0  0  0  0  0  0  0  0
    2.5697   -5.3787    5.2158 C   0  0  1  0  0  0  0  0  0  0  0  0
    2.3977   -6.9522    5.4615 C   0  0  2  0  0  0  0  0  0  0  0  0
    2.1056   -7.1153    6.9844 C   0  0  0  0  0  0  0  0  0  0  0  0
    3.6810   -7.8034    5.2051 C   0  0  0  0  0  0  0  0  0  0  0  0
    3.4849   -9.3291    5.3344 C   0  0  0  0  0  0  0  0  0  0  0  0
    2.3365   -9.8415    4.4490 C   0  0  1  0  0  0  0  0  0  0  0  0
    2.1722  -11.2329    4.6586 O   0  0  0  0  0  0  0  0  0  0  0  0
    0.9993   -9.0705    4.6497 C   0  0  0  0  0  0  0  0  0  0  0  0
    0.0075   -9.5301    3.5503 C   0  0  0  0  0  0  0  0  0  0  0  0
    0.3377   -9.4554    6.0005 C   0  0  0  0  0  0  0  0  0  0  0  0
    1.2416   -7.5082    4.5460 C   0  0  2  0  0  0  0  0  0  0  0  0
    1.4582   -7.0299    3.0801 C   0  0  0  0  0  0  0  0  0  0  0  0
    1.6671   -5.5090    2.8900 C   0  0  0  0  0  0  0  0  0  0  0  0
    2.8235   -4.8786    3.7266 C   0  0  2  0  0  0  0  0  0  0  0  0
    4.1524   -5.4395    3.1417 C   0  0  0  0  0  0  0  0  0  0  0  0
    2.8669   -3.2554    3.6010 C   0  0  1  0  0  0  0  0  0  0  0  0
    2.7670   -2.8256    2.1033 C   0  0  0  0  0  0  0  0  0  0  0  0
    4.1326   -2.5583    4.2511 C   0  0  1  0  0  0  0  0  0  0  0  0
    5.3659   -2.8997    3.6547 O   0  0  0  0  0  0  0  0  0  0  0  0
    4.1215   -1.0063    4.1857 C   0  0  0  0  0  0  0  0  0  0  0  0
    2.8356   -0.3039    4.6908 C   0  0  2  0  0  0  0  0  0  0  0  0
    2.8820   -0.1660    6.2295 C   0  0  0  0  0  0  0  0  0  0  0  0
    2.7909    1.1266    4.0852 C   0  0  0  0  0  0  0  0  0  0  0  0
    1.4311    1.8067    4.2806 C   0  0  0  0  0  0  0  0  0  0  0  0
    0.0763    2.4073    1.9505 H   0  0  0  0  0  0  0  0  0  0  0  0
   -0.6164    0.8245    1.6279 H   0  0  0  0  0  0  0  0  0  0  0  0
    1.1271    1.0388    1.5902 H   0  0  0  0  0  0  0  0  0  0  0  0
   -1.2280    2.4899    4.1865 H   0  0  0  0  0  0  0  0  0  0  0  0
   -1.0475    1.1642    5.3390 H   0  0  0  0  0  0  0  0  0  0  0  0
   -1.8925    0.9006    3.8142 H   0  0  0  0  0  0  0  0  0  0  0  0
   -0.3503   -1.0795    3.4585 H   0  0  0  0  0  0  0  0  0  0  0  0
    0.7419   -2.9639    3.8052 H   0  0  0  0  0  0  0  0  0  0  0  0
    2.3556   -2.8563    6.3867 H   0  0  0  0  0  0  0  0  0  0  0  0
    0.6344   -2.6375    6.2363 H   0  0  0  0  0  0  0  0  0  0  0  0
    1.1687   -4.8420    6.8628 H   0  0  0  0  0  0  0  0  0  0  0  0
    0.4159   -4.8784    5.3022 H   0  0  0  0  0  0  0  0  0  0  0  0
    3.4386   -5.0718    5.8007 H   0  0  0  0  0  0  0  0  0  0  0  0
    2.4054   -8.0707    7.4002 H   0  0  0  0  0  0  0  0  0  0  0  0
    1.0486   -6.9912    7.2180 H   0  0  0  0  0  0  0  0  0  0  0  0
    2.6697   -6.3880    7.5717 H   0  0  0  0  0  0  0  0  0  0  0  0
    4.0393   -7.6894    4.1960 H   0  0  0  0  0  0  0  0  0  0  0  0
    4.4947   -7.4693    5.8501 H   0  0  0  0  0  0  0  0  0  0  0  0
    4.4042   -9.8234    5.0207 H   0  0  0  0  0  0  0  0  0  0  0  0
    3.3419   -9.6377    6.3661 H   0  0  0  0  0  0  0  0  0  0  0  0
    2.6491   -9.7246    3.4122 H   0  0  0  0  0  0  0  0  0  0  0  0
    1.9065  -11.3940    5.5560 H   0  0  0  0  0  0  0  0  0  0  0  0
   -0.9017   -8.9255    3.5543 H   0  0  0  0  0  0  0  0  0  0  0  0
   -0.2933  -10.5688    3.6966 H   0  0  0  0  0  0  0  0  0  0  0  0
    0.4476   -9.4956    2.5531 H   0  0  0  0  0  0  0  0  0  0  0  0
   -0.4082   -8.7239    6.3102 H   0  0  0  0  0  0  0  0  0  0  0  0
    1.0550   -9.5816    6.8071 H   0  0  0  0  0  0  0  0  0  0  0  0
   -0.1755  -10.4158    5.9400 H   0  0  0  0  0  0  0  0  0  0  0  0
    0.3055   -7.0483    4.8641 H   0  0  0  0  0  0  0  0  0  0  0  0
    2.2804   -7.5809    2.6312 H   0  0  0  0  0  0  0  0  0  0  0  0
    0.5906   -7.2797    2.4737 H   0  0  0  0  0  0  0  0  0  0  0  0
    1.8451   -5.3420    1.8278 H   0  0  0  0  0  0  0  0  0  0  0  0
    0.7210   -5.0189    3.1072 H   0  0  0  0  0  0  0  0  0  0  0  0
    4.5753   -4.8259    2.3546 H   0  0  0  0  0  0  0  0  0  0  0  0
    4.0460   -6.3934    2.6345 H   0  0  0  0  0  0  0  0  0  0  0  0
    4.9182   -5.5366    3.9113 H   0  0  0  0  0  0  0  0  0  0  0  0
    3.5509   -3.2329    1.4728 H   0  0  0  0  0  0  0  0  0  0  0  0
    2.8054   -1.7480    1.9666 H   0  0  0  0  0  0  0  0  0  0  0  0
    1.8179   -3.1224    1.6641 H   0  0  0  0  0  0  0  0  0  0  0  0
    4.2170   -2.8573    5.2936 H   0  0  0  0  0  0  0  0  0  0  0  0
    5.3363   -2.6422    2.7467 H   0  0  0  0  0  0  0  0  0  0  0  0
    4.9755   -0.6151    4.7419 H   0  0  0  0  0  0  0  0  0  0  0  0
    4.3122   -0.6989    3.1578 H   0  0  0  0  0  0  0  0  0  0  0  0
    3.4945    0.6810    6.5384 H   0  0  0  0  0  0  0  0  0  0  0  0
    3.3159   -1.0339    6.7188 H   0  0  0  0  0  0  0  0  0  0  0  0
    1.8855   -0.0096    6.6411 H   0  0  0  0  0  0  0  0  0  0  0  0
    3.5788    1.7495    4.5124 H   0  0  0  0  0  0  0  0  0  0  0  0
    3.0002    1.0930    3.0163 H   0  0  0  0  0  0  0  0  0  0  0  0
    1.4598    2.8213    3.8807 H   0  0  0  0  0  0  0  0  0  0  0  0
    1.2395    1.9178    5.3483 H   0  0  0  0  0  0  0  0  0  0  0  0
  1  2  1  0
  1 33  1  0
  1 34  1  0
  1 35  1  0
  2 32  1  0
  2  3  1  0
  2  4  1  0
  3 36  1  0
  3 37  1  0
  3 38  1  0
  4  5  2  0
  4 39  1  0
  5 29  1  0
  5  6  1  0
  6 24  1  0
  6  7  1  0
  6 40  1  6
  7  8  1  0
  7 41  1  0
  7 42  1  0
  8  9  1  0
  8 43  1  0
  8 44  1  0
  9 22  1  0
  9 10  1  0
  9 45  1  1
 10 19  1  0
 10 11  1  1
 10 12  1  0
 11 46  1  0
 11 47  1  0
 11 48  1  0
 12 13  1  0
 12 49  1  0
 12 50  1  0
 13 14  1  0
 13 51  1  0
 13 52  1  0
 14 15  1  0
 14 16  1  0
 14 53  1  6
 15 54  1  0
 16 17  1  0
 16 18  1  0
 16 19  1  0
 17 55  1  0
 17 56  1  0
 17 57  1  0
 18 58  1  0
 18 59  1  0
 18 60  1  0
 19 20  1  0
 19 61  1  1
 20 21  1  0
 20 62  1  0
 20 63  1  0
 21 22  1  0
 21 64  1  0
 21 65  1  0
 22 23  1  6
 22 24  1  0
 23 66  1  0
 23 67  1  0
 23 68  1  0
 24 25  1  6
 24 26  1  0
 25 69  1  0
 25 70  1  0
 25 71  1  0
 26 27  1  0
 26 28  1  0
 26 72  1  1
 27 73  1  0
 28 29  1  0
 28 74  1  0
 28 75  1  0
 29 30  1  1
 29 31  1  0
 30 76  1  0
 30 77  1  0
 30 78  1  0
 31 32  1  0
 31 79  1  0
 31 80  1  0
 32 81  1  0
 32 82  1  0
M  END
>  <i_m_ct_stereo_status>  (42) 
1

>  <s_m_source_file>  (42) 
/var/tmp/pbs.5076255.sched01/tmpikn618da/06v91y69d.sdf

>  <i_m_source_file_index>  (42) 
16

>  <i_lp_mmshare_version>  (42) 
48012

>  <i_f3d_flags>  (42) 
0

>  <s_epik_input>  (42) 
W0NIM11DKFtDSDNdKShbQ0hdPTEpW0NIMl1bQ0gyXVtDQF0oW0NIM10pKFtDSDJdW0NAQEhdMltPSF0pQzFbQ0BIXShbQ0gyXVtDSDJdMylbQ0BdMihbQ0gzXSlbQ0BAXShbQ0gzXSkoW0NAQEhdM1tDQF00NVtDSDNdKVtDSDJdW0NIMl1bQ0BIXTVDKFtDSDNdKShbQ0gzXSlbQ0BIXShbT0hdKVtDSDJdW0NIMl00

>  <s_epik_cmdline>  (42) 
J2VwaWtfcHl0aG9uJywgJy1waHQnLCAnMi4wJywgJy1waCcsICc3LjAnLCAnLXRuJywgJzgnLCAnLW1hJywgJzIwMCcsICctaW1hZScsICc8aW5maWxlLm1hZT4nLCAnLW9tYWUnLCAnPG91dGZpbGUubWFlPic=

>  <r_lp_tautomer_probability>  (42) 
1

>  <r_epik_Ionization_Penalty>  (42) 
5.55285e-06

>  <r_epik_Ionization_Penalty_Charging>  (42) 
0

>  <r_epik_Ionization_Penalty_Neutral>  (42) 
5.55285e-06

>  <r_epik_State_Penalty>  (42) 
-0

>  <r_epik_Charging_Adjusted_Penalty>  (42) 
0

>  <i_epik_Tot_Q>  (42) 
0

>  <i_epik_Tot_abs_Q>  (42) 
0

>  <s_lp_Force_Field>  (42) 
OPLS3e

>  <r_lp_Energy>  (42) 
92.0732

>  <b_lp_Chiralities_Consistent>  (42) 
1

>  <s_lp_Variant>  (42) 
7:0-1

>  <s_i_glide_gridfile>  (42) 
pfpi4k_grid

>  <i_i_glide_lignum>  (42) 
16

>  <i_i_glide_rotatable_bonds>  (42) 
2

>  <r_i_docking_score>  (42) 
-1.98659

>  <r_i_glide_ligand_efficiency>  (42) 
-0.0620809

>  <r_i_glide_ligand_efficiency_sa>  (42) 
-0.197095

>  <r_i_glide_ligand_efficiency_ln>  (42) 
-0.444851

>  <r_i_glide_gscore>  (42) 
-1.98659

>  <r_i_glide_lipo>  (42) 
-0.00908417

>  <r_i_glide_hbond>  (42) 
-0.028986

>  <r_i_glide_metal>  (42) 
-0

>  <r_i_glide_rewards>  (42) 
-0.390567

>  <r_i_glide_evdw>  (42) 
-24.8636

>  <r_i_glide_ecoul>  (42) 
-2.09849

>  <r_i_glide_erotb>  (42) 
0

>  <r_i_glide_esite>  (42) 
0

>  <r_i_glide_emodel>  (42) 
-30.8636

>  <r_i_glide_energy>  (42) 
-26.962

>  <r_i_glide_einternal>  (42) 
0.00141675

>  <r_i_glide_intrahb_reward>  (42) 
-0

>  <i_i_glide_confnum>  (42) 
1

>  <i_i_glide_posenum>  (42) 
21

>  <r_i_glide_eff_state_penalty>  (42) 
0

>  <ligand_id>  (42) 
7

>  <original_smiles>  (42) 
CC1(C)C=C2C3CCC4C5(C)CCC(O)C(C)(C)C5CCC4(C)C3(C)C(O)CC2(C)CC1

>  <smiles>  (42) 
[H]OC1([H])C([H])([H])C([H])([H])C2(C([H])([H])[H])C([H])(C([H])([H])C([H])([H])C3(C([H])([H])[H])C2([H])C([H])([H])C([H])([H])C2([H])C4=C([H])C(C([H])([H])[H])(C([H])([H])[H])C([H])([H])C([H])([H])C4(C([H])([H])[H])C([H])([H])C([H])(O[H])C23C([H])([H])[H])C1(C([H])([H])[H])C([H])([H])[H]

$$$$
8:0:0
     RDKit          3D

 28 29  0  0  1  0  0  0  0  0999 V2000
    3.3887   -0.2851   -4.2149 C   0  0  0  0  0  0  0  0  0  0  0  0
    3.2574   -1.0237   -2.9370 N   0  0  1  0  0  0  0  0  0  0  0  0
    3.0196   -2.4656   -3.1543 C   0  0  0  0  0  0  0  0  0  0  0  0
    2.6534   -3.1633   -1.8382 C   0  0  0  0  0  0  0  0  0  0  0  0
    3.5186   -2.7824   -0.6634 C   0  0  0  0  0  0  0  0  0  0  0  0
    4.3105   -1.6663   -0.8014 C   0  0  0  0  0  0  0  0  0  0  0  0
    5.2067   -1.3438    0.6305 S   0  0  0  0  0  0  0  0  0  0  0  0
    4.5314   -2.7386    1.4289 C   0  0  0  0  0  0  0  0  0  0  0  0
    4.9336   -3.0130    2.7291 N   0  0  0  0  0  0  0  0  0  0  0  0
    3.6335   -3.4098    0.6284 C   0  0  0  0  0  0  0  0  0  0  0  0
    2.8966   -4.6529    1.0636 C   0  0  0  0  0  0  0  0  0  0  0  0
    2.0614   -5.1613    0.1447 N   0  0  0  0  0  0  0  0  0  0  0  0
    3.0479   -5.1904    2.1525 O   0  0  0  0  0  0  0  0  0  0  0  0
    4.4173   -0.8238   -2.0325 C   0  0  0  0  0  0  0  0  0  0  0  0
    4.2666   -0.6558   -4.7719 H   0  0  0  0  0  0  0  0  0  0  0  0
    3.5225    0.7908   -4.0350 H   0  0  0  0  0  0  0  0  0  0  0  0
    2.5038   -0.4265   -4.8398 H   0  0  0  0  0  0  0  0  0  0  0  0
    2.2351   -2.6350   -3.8861 H   0  0  0  0  0  0  0  0  0  0  0  0
    3.9260   -2.9300   -3.5508 H   0  0  0  0  0  0  0  0  0  0  0  0
    1.5896   -2.9598   -1.6225 H   0  0  0  0  0  0  0  0  0  0  0  0
    2.7252   -4.2151   -2.0383 H   0  0  0  0  0  0  0  0  0  0  0  0
    4.5505   -3.8246    3.1987 H   0  0  0  0  0  0  0  0  0  0  0  0
    5.5985   -2.4780    3.2713 H   0  0  0  0  0  0  0  0  0  0  0  0
    1.9888   -4.7084   -0.7625 H   0  0  0  0  0  0  0  0  0  0  0  0
    1.5893   -6.0325    0.3370 H   0  0  0  0  0  0  0  0  0  0  0  0
    5.3575   -1.0625   -2.5479 H   0  0  0  0  0  0  0  0  0  0  0  0
    4.4755    0.2208   -1.7717 H   0  0  0  0  0  0  0  0  0  0  0  0
    2.4481   -0.6838   -2.4352 H   0  0  0  0  0  0  0  0  0  0  0  0
  1  2  1  0
  1 15  1  0
  1 16  1  0
  1 17  1  0
  2 14  1  0
  2  3  1  0
  2 28  1  1
  3  4  1  0
  3 18  1  0
  3 19  1  0
  4  5  1  0
  4 20  1  0
  4 21  1  0
  5 10  1  0
  5  6  2  0
  6  7  1  0
  6 14  1  0
  7  8  1  0
  8  9  1  0
  8 10  2  0
  9 22  1  0
  9 23  1  0
 10 11  1  0
 11 12  1  0
 11 13  2  0
 12 24  1  0
 12 25  1  0
 14 26  1  0
 14 27  1  0
M  CHG  1   2   1
M  END
>  <i_m_ct_stereo_status>  (43) 
1

>  <s_m_source_file>  (43) 
/var/tmp/pbs.5076255.sched01/tmpikn618da/06v91y69d.sdf

>  <i_m_source_file_index>  (43) 
17

>  <i_lp_mmshare_version>  (43) 
48012

>  <i_f3d_flags>  (43) 
0

>  <s_epik_input>  (43) 
W0NIMl0xW0NIMl1OKFtDSDNdKVtDSDJdYyhjMTIpc2MoW05IMl0pYzJDKD1PKVtOSDJd

>  <s_epik_cmdline>  (43) 
J2VwaWtfcHl0aG9uJywgJy1waHQnLCAnMi4wJywgJy1waCcsICc3LjAnLCAnLXRuJywgJzgnLCAnLW1hJywgJzIwMCcsICctaW1hZScsICc8aW5maWxlLm1hZT4nLCAnLW9tYWUnLCAnPG91dGZpbGUubWFlPic=

>  <r_epik_Ionization_Penalty>  (43) 
0.176877

>  <r_epik_Ionization_Penalty_Charging>  (43) 
0.17409

>  <r_epik_Ionization_Penalty_Neutral>  (43) 
0.0027875

>  <r_epik_State_Penalty>  (43) 
0.163508

>  <r_epik_Charging_Adjusted_Penalty>  (43) 
0.337597

>  <i_epik_Tot_Q>  (43) 
1

>  <i_epik_Tot_abs_Q>  (43) 
1

>  <s_lp_Force_Field>  (43) 
OPLS3e

>  <r_lp_Energy>  (43) 
17.0172

>  <b_lp_Chiralities_Consistent>  (43) 
1

>  <s_lp_Variant>  (43) 
8:0-1

>  <s_i_glide_gridfile>  (43) 
pfpi4k_grid

>  <i_i_glide_lignum>  (43) 
17

>  <i_i_glide_rotatable_bonds>  (43) 
1

>  <r_i_docking_score>  (43) 
-4.46794

>  <r_i_glide_ligand_efficiency>  (43) 
-0.319139

>  <r_i_glide_ligand_efficiency_sa>  (43) 
-0.769169

>  <r_i_glide_ligand_efficiency_ln>  (43) 
-1.22777

>  <r_i_glide_gscore>  (43) 
-4.46794

>  <r_i_glide_lipo>  (43) 
-0.516653

>  <r_i_glide_hbond>  (43) 
-0.0385187

>  <r_i_glide_metal>  (43) 
-0

>  <r_i_glide_rewards>  (43) 
-2.46164

>  <r_i_glide_evdw>  (43) 
-15.6491

>  <r_i_glide_ecoul>  (43) 
-3.73988

>  <r_i_glide_erotb>  (43) 
0

>  <r_i_glide_esite>  (43) 
-0.107694

>  <r_i_glide_emodel>  (43) 
-29.2353

>  <r_i_glide_energy>  (43) 
-19.3889

>  <r_i_glide_einternal>  (43) 
5.61429

>  <r_i_glide_intrahb_reward>  (43) 
-0.5

>  <i_i_glide_confnum>  (43) 
2

>  <i_i_glide_posenum>  (43) 
34

>  <r_i_glide_eff_state_penalty>  (43) 
0

>  <ligand_id>  (43) 
8

>  <original_smiles>  (43) 
CN1CCc2c(sc(N)c2C(N)=O)C1

>  <smiles>  (43) 
[H]N([H])C(=O)c1c(N([H])[H])sc2c1C([H])([H])C([H])([H])[N+]([H])(C([H])([H])[H])C2([H])[H]

$$$$
8:0:1
     RDKit          3D

 28 29  0  0  1  0  0  0  0  0999 V2000
    2.9588   -0.1084   -4.4068 C   0  0  0  0  0  0  0  0  0  0  0  0
    3.0184   -1.0113   -3.2293 N   0  0  1  0  0  0  0  0  0  0  0  0
    2.5169   -2.3788   -3.5390 C   0  0  0  0  0  0  0  0  0  0  0  0
    2.3795   -3.2164   -2.2526 C   0  0  0  0  0  0  0  0  0  0  0  0
    3.5950   -3.0983   -1.3686 C   0  0  0  0  0  0  0  0  0  0  0  0
    4.4865   -2.0797   -1.5702 C   0  0  0  0  0  0  0  0  0  0  0  0
    5.8087   -2.1284   -0.4425 S   0  0  0  0  0  0  0  0  0  0  0  0
    5.1397   -3.5408    0.3319 C   0  0  0  0  0  0  0  0  0  0  0  0
    5.8221   -4.0895    1.4174 N   0  0  0  0  0  0  0  0  0  0  0  0
    3.9589   -3.9487   -0.2699 C   0  0  0  0  0  0  0  0  0  0  0  0
    3.1272   -5.1076    0.1801 C   0  0  0  0  0  0  0  0  0  0  0  0
    3.8247   -6.1645    0.5934 N   0  0  0  0  0  0  0  0  0  0  0  0
    1.8965   -5.1401    0.1128 O   0  0  0  0  0  0  0  0  0  0  0  0
    4.3827   -1.0587   -2.6566 C   0  0  0  0  0  0  0  0  0  0  0  0
    3.5843   -0.4923   -5.2224 H   0  0  0  0  0  0  0  0  0  0  0  0
    3.3233    0.8914   -4.1511 H   0  0  0  0  0  0  0  0  0  0  0  0
    1.9375   -0.0154   -4.7829 H   0  0  0  0  0  0  0  0  0  0  0  0
    1.5549   -2.3391   -4.0453 H   0  0  0  0  0  0  0  0  0  0  0  0
    3.2055   -2.8784   -4.2253 H   0  0  0  0  0  0  0  0  0  0  0  0
    1.4934   -2.9128   -1.7023 H   0  0  0  0  0  0  0  0  0  0  0  0
    2.1777   -4.2493   -2.5329 H   0  0  0  0  0  0  0  0  0  0  0  0
    5.4304   -4.8480    1.9564 H   0  0  0  0  0  0  0  0  0  0  0  0
    6.6709   -3.7062    1.8136 H   0  0  0  0  0  0  0  0  0  0  0  0
    4.8339   -6.1097    0.5590 H   0  0  0  0  0  0  0  0  0  0  0  0
    3.3518   -7.0026    0.8961 H   0  0  0  0  0  0  0  0  0  0  0  0
    5.0427   -1.3582   -3.4653 H   0  0  0  0  0  0  0  0  0  0  0  0
    4.7084   -0.0790   -2.3059 H   0  0  0  0  0  0  0  0  0  0  0  0
    2.4142   -0.6495   -2.4965 H   0  0  0  0  0  0  0  0  0  0  0  0
  1  2  1  0
  1 15  1  0
  1 16  1  0
  1 17  1  0
  2 14  1  0
  2  3  1  0
  2 28  1  1
  3  4  1  0
  3 18  1  0
  3 19  1  0
  4  5  1  0
  4 20  1  0
  4 21  1  0
  5 10  1  0
  5  6  2  0
  6  7  1  0
  6 14  1  0
  7  8  1  0
  8  9  1  0
  8 10  2  0
  9 22  1  0
  9 23  1  0
 10 11  1  0
 11 12  1  0
 11 13  2  0
 12 24  1  0
 12 25  1  0
 14 26  1  0
 14 27  1  0
M  CHG  1   2   1
M  END
>  <i_m_ct_stereo_status>  (44) 
1

>  <s_m_source_file>  (44) 
/var/tmp/pbs.5076255.sched01/tmpikn618da/06v91y69d.sdf

>  <i_m_source_file_index>  (44) 
17

>  <i_lp_mmshare_version>  (44) 
48012

>  <i_f3d_flags>  (44) 
0

>  <s_epik_input>  (44) 
W0NIMl0xW0NIMl1OKFtDSDNdKVtDSDJdYyhjMTIpc2MoW05IMl0pYzJDKD1PKVtOSDJd

>  <s_epik_cmdline>  (44) 
J2VwaWtfcHl0aG9uJywgJy1waHQnLCAnMi4wJywgJy1waCcsICc3LjAnLCAnLXRuJywgJzgnLCAnLW1hJywgJzIwMCcsICctaW1hZScsICc8aW5maWxlLm1hZT4nLCAnLW9tYWUnLCAnPG91dGZpbGUubWFlPic=

>  <r_epik_Ionization_Penalty>  (44) 
0.176877

>  <r_epik_Ionization_Penalty_Charging>  (44) 
0.17409

>  <r_epik_Ionization_Penalty_Neutral>  (44) 
0.0027875

>  <r_epik_State_Penalty>  (44) 
0.163508

>  <r_epik_Charging_Adjusted_Penalty>  (44) 
0.337597

>  <i_epik_Tot_Q>  (44) 
1

>  <i_epik_Tot_abs_Q>  (44) 
1

>  <s_lp_Force_Field>  (44) 
OPLS3e

>  <r_lp_Energy>  (44) 
17.0172

>  <b_lp_Chiralities_Consistent>  (44) 
1

>  <s_lp_Variant>  (44) 
8:0-1

>  <s_i_glide_gridfile>  (44) 
pfpi4k_grid

>  <i_i_glide_lignum>  (44) 
17

>  <i_i_glide_rotatable_bonds>  (44) 
1

>  <r_i_docking_score>  (44) 
-4.25795

>  <r_i_glide_ligand_efficiency>  (44) 
-0.304139

>  <r_i_glide_ligand_efficiency_sa>  (44) 
-0.733019

>  <r_i_glide_ligand_efficiency_ln>  (44) 
-1.17007

>  <r_i_glide_gscore>  (44) 
-4.25795

>  <r_i_glide_lipo>  (44) 
-0.586412

>  <r_i_glide_hbond>  (44) 
-0.0908899

>  <r_i_glide_metal>  (44) 
-0

>  <r_i_glide_rewards>  (44) 
-1.96164

>  <r_i_glide_evdw>  (44) 
-18.3155

>  <r_i_glide_ecoul>  (44) 
-4.47507

>  <r_i_glide_erotb>  (44) 
0

>  <r_i_glide_esite>  (44) 
-0.0319732

>  <r_i_glide_emodel>  (44) 
-30.2173

>  <r_i_glide_energy>  (44) 
-22.7906

>  <r_i_glide_einternal>  (44) 
0.0912394

>  <r_i_glide_intrahb_reward>  (44) 
-0

>  <i_i_glide_confnum>  (44) 
1

>  <i_i_glide_posenum>  (44) 
10

>  <r_i_glide_eff_state_penalty>  (44) 
0

>  <ligand_id>  (44) 
8

>  <original_smiles>  (44) 
CN1CCc2c(sc(N)c2C(N)=O)C1

>  <smiles>  (44) 
[H]N([H])C(=O)c1c(N([H])[H])sc2c1C([H])([H])C([H])([H])[N+]([H])(C([H])([H])[H])C2([H])[H]

$$$$
8:0:2
     RDKit          3D

 28 29  0  0  1  0  0  0  0  0999 V2000
    2.8834   -0.4216   -4.5846 C   0  0  0  0  0  0  0  0  0  0  0  0
    3.1109   -1.2004   -3.3422 N   0  0  1  0  0  0  0  0  0  0  0  0
    2.4577   -2.5409   -3.3541 C   0  0  0  0  0  0  0  0  0  0  0  0
    2.5339   -3.2001   -1.9645 C   0  0  0  0  0  0  0  0  0  0  0  0
    3.9180   -3.1068   -1.3778 C   0  0  0  0  0  0  0  0  0  0  0  0
    4.8153   -2.2114   -1.8811 C   0  0  0  0  0  0  0  0  0  0  0  0
    6.3432   -2.2822   -1.0510 S   0  0  0  0  0  0  0  0  0  0  0  0
    5.7508   -3.5196    0.0189 C   0  0  0  0  0  0  0  0  0  0  0  0
    6.5766   -4.0012    1.0313 N   0  0  0  0  0  0  0  0  0  0  0  0
    4.4469   -3.8568   -0.2765 C   0  0  0  0  0  0  0  0  0  0  0  0
    3.6671   -4.8721    0.4759 C   0  0  0  0  0  0  0  0  0  0  0  0
    2.5798   -4.3867    1.0580 N   0  0  0  0  0  0  0  0  0  0  0  0
    3.9879   -6.0583    0.5653 O   0  0  0  0  0  0  0  0  0  0  0  0
    4.5621   -1.3130   -3.0421 C   0  0  0  0  0  0  0  0  0  0  0  0
    3.3414   -0.9360   -5.4395 H   0  0  0  0  0  0  0  0  0  0  0  0
    3.3445    0.5667   -4.5220 H   0  0  0  0  0  0  0  0  0  0  0  0
    1.8181   -0.2822   -4.7877 H   0  0  0  0  0  0  0  0  0  0  0  0
    1.4166   -2.4704   -3.6622 H   0  0  0  0  0  0  0  0  0  0  0  0
    2.9473   -3.1805   -4.0927 H   0  0  0  0  0  0  0  0  0  0  0  0
    1.8214   -2.7256   -1.2954 H   0  0  0  0  0  0  0  0  0  0  0  0
    2.1997   -4.2360   -2.0335 H   0  0  0  0  0  0  0  0  0  0  0  0
    6.2723   -4.7318    1.6615 H   0  0  0  0  0  0  0  0  0  0  0  0
    7.5248   -3.6882    1.1824 H   0  0  0  0  0  0  0  0  0  0  0  0
    2.3833   -3.3931    1.0054 H   0  0  0  0  0  0  0  0  0  0  0  0
    2.0091   -5.0043    1.6142 H   0  0  0  0  0  0  0  0  0  0  0  0
    5.0310   -1.7594   -3.9165 H   0  0  0  0  0  0  0  0  0  0  0  0
    5.0029   -0.3362   -2.8737 H   0  0  0  0  0  0  0  0  0  0  0  0
    2.7004   -0.6957   -2.5663 H   0  0  0  0  0  0  0  0  0  0  0  0
  1  2  1  0
  1 15  1  0
  1 16  1  0
  1 17  1  0
  2 14  1  0
  2  3  1  0
  2 28  1  1
  3  4  1  0
  3 18  1  0
  3 19  1  0
  4  5  1  0
  4 20  1  0
  4 21  1  0
  5 10  1  0
  5  6  2  0
  6  7  1  0
  6 14  1  0
  7  8  1  0
  8  9  1  0
  8 10  2  0
  9 22  1  0
  9 23  1  0
 10 11  1  0
 11 12  1  0
 11 13  2  0
 12 24  1  0
 12 25  1  0
 14 26  1  0
 14 27  1  0
M  CHG  1   2   1
M  END
>  <i_m_ct_stereo_status>  (45) 
1

>  <s_m_source_file>  (45) 
/var/tmp/pbs.5076255.sched01/tmpikn618da/06v91y69d.sdf

>  <i_m_source_file_index>  (45) 
17

>  <i_lp_mmshare_version>  (45) 
48012

>  <i_f3d_flags>  (45) 
0

>  <s_epik_input>  (45) 
W0NIMl0xW0NIMl1OKFtDSDNdKVtDSDJdYyhjMTIpc2MoW05IMl0pYzJDKD1PKVtOSDJd

>  <s_epik_cmdline>  (45) 
J2VwaWtfcHl0aG9uJywgJy1waHQnLCAnMi4wJywgJy1waCcsICc3LjAnLCAnLXRuJywgJzgnLCAnLW1hJywgJzIwMCcsICctaW1hZScsICc8aW5maWxlLm1hZT4nLCAnLW9tYWUnLCAnPG91dGZpbGUubWFlPic=

>  <r_epik_Ionization_Penalty>  (45) 
0.176877

>  <r_epik_Ionization_Penalty_Charging>  (45) 
0.17409

>  <r_epik_Ionization_Penalty_Neutral>  (45) 
0.0027875

>  <r_epik_State_Penalty>  (45) 
0.163508

>  <r_epik_Charging_Adjusted_Penalty>  (45) 
0.337597

>  <i_epik_Tot_Q>  (45) 
1

>  <i_epik_Tot_abs_Q>  (45) 
1

>  <s_lp_Force_Field>  (45) 
OPLS3e

>  <r_lp_Energy>  (45) 
17.0172

>  <b_lp_Chiralities_Consistent>  (45) 
1

>  <s_lp_Variant>  (45) 
8:0-1

>  <s_i_glide_gridfile>  (45) 
pfpi4k_grid

>  <i_i_glide_lignum>  (45) 
17

>  <i_i_glide_rotatable_bonds>  (45) 
1

>  <r_i_docking_score>  (45) 
-4.07583

>  <r_i_glide_ligand_efficiency>  (45) 
-0.291131

>  <r_i_glide_ligand_efficiency_sa>  (45) 
-0.701666

>  <r_i_glide_ligand_efficiency_ln>  (45) 
-1.12002

>  <r_i_glide_gscore>  (45) 
-4.07583

>  <r_i_glide_lipo>  (45) 
-0.595226

>  <r_i_glide_hbond>  (45) 
0

>  <r_i_glide_metal>  (45) 
-0

>  <r_i_glide_rewards>  (45) 
-1.96164

>  <r_i_glide_evdw>  (45) 
-19.5923

>  <r_i_glide_ecoul>  (45) 
-3.41612

>  <r_i_glide_erotb>  (45) 
0

>  <r_i_glide_esite>  (45) 
-0.0269316

>  <r_i_glide_emodel>  (45) 
-29.464

>  <r_i_glide_energy>  (45) 
-23.0084

>  <r_i_glide_einternal>  (45) 
1.07482

>  <r_i_glide_intrahb_reward>  (45) 
-0

>  <i_i_glide_confnum>  (45) 
1

>  <i_i_glide_posenum>  (45) 
3

>  <r_i_glide_eff_state_penalty>  (45) 
0

>  <ligand_id>  (45) 
8

>  <original_smiles>  (45) 
CN1CCc2c(sc(N)c2C(N)=O)C1

>  <smiles>  (45) 
[H]N([H])C(=O)c1c(N([H])[H])sc2c1C([H])([H])C([H])([H])[N+]([H])(C([H])([H])[H])C2([H])[H]

$$$$
8:1:0
     RDKit          3D

 27 28  0  0  1  0  0  0  0  0999 V2000
    4.7876   -1.9624    3.1563 C   0  0  0  0  0  0  0  0  0  0  0  0
    4.3867   -1.6769    1.7947 N   0  0  0  0  0  0  0  0  0  0  0  0
    5.5683   -1.3649    0.9875 C   0  0  0  0  0  0  0  0  0  0  0  0
    5.0949   -0.8732   -0.3941 C   0  0  0  0  0  0  0  0  0  0  0  0
    4.0602   -1.7741   -1.0102 C   0  0  0  0  0  0  0  0  0  0  0  0
    3.4191   -2.6760   -0.2146 C   0  0  0  0  0  0  0  0  0  0  0  0
    2.2926   -3.6457   -1.1196 S   0  0  0  0  0  0  0  0  0  0  0  0
    2.6506   -2.7648   -2.5851 C   0  0  0  0  0  0  0  0  0  0  0  0
    1.9849   -3.0576   -3.7742 N   0  0  0  0  0  0  0  0  0  0  0  0
    3.6130   -1.8122   -2.3681 C   0  0  0  0  0  0  0  0  0  0  0  0
    4.0858   -0.9604   -3.4876 C   0  0  0  0  0  0  0  0  0  0  0  0
    4.2196    0.3086   -3.1771 N   0  0  0  0  0  0  0  0  0  0  0  0
    4.2366   -1.3687   -4.6325 O   0  0  0  0  0  0  0  0  0  0  0  0
    3.6930   -2.8499    1.2435 C   0  0  0  0  0  0  0  0  0  0  0  0
    5.2797   -1.0854    3.5763 H   0  0  0  0  0  0  0  0  0  0  0  0
    5.4684   -2.8163    3.1891 H   0  0  0  0  0  0  0  0  0  0  0  0
    3.9011   -2.1780    3.7558 H   0  0  0  0  0  0  0  0  0  0  0  0
    6.1639   -0.5789    1.4579 H   0  0  0  0  0  0  0  0  0  0  0  0
    6.1984   -2.2534    0.8753 H   0  0  0  0  0  0  0  0  0  0  0  0
    4.6653    0.1199   -0.2750 H   0  0  0  0  0  0  0  0  0  0  0  0
    5.9514   -0.8216   -1.0562 H   0  0  0  0  0  0  0  0  0  0  0  0
    2.1326   -2.6071   -4.6717 H   0  0  0  0  0  0  0  0  0  0  0  0
    1.2338   -3.7340   -3.8282 H   0  0  0  0  0  0  0  0  0  0  0  0
    3.8500    0.6006   -2.2839 H   0  0  0  0  0  0  0  0  0  0  0  0
    4.5027    0.9751   -3.8887 H   0  0  0  0  0  0  0  0  0  0  0  0
    4.2997   -3.7498    1.3747 H   0  0  0  0  0  0  0  0  0  0  0  0
    2.7451   -2.9972    1.7719 H   0  0  0  0  0  0  0  0  0  0  0  0
  1  2  1  0
  1 15  1  0
  1 16  1  0
  1 17  1  0
  2 14  1  0
  2  3  1  0
  3  4  1  0
  3 18  1  0
  3 19  1  0
  4  5  1  0
  4 20  1  0
  4 21  1  0
  5 10  1  0
  5  6  2  0
  6  7  1  0
  6 14  1  0
  7  8  1  0
  8  9  1  0
  8 10  2  0
  9 22  1  0
  9 23  1  0
 10 11  1  0
 11 12  1  0
 11 13  2  0
 12 24  1  0
 12 25  1  0
 14 26  1  0
 14 27  1  0
M  END
>  <i_m_ct_stereo_status>  (46) 
1

>  <s_m_source_file>  (46) 
/var/tmp/pbs.5076255.sched01/tmpikn618da/06v91y69d.sdf

>  <i_m_source_file_index>  (46) 
18

>  <i_lp_mmshare_version>  (46) 
48012

>  <i_f3d_flags>  (46) 
0

>  <s_epik_input>  (46) 
W0NIMl0xW0NIMl1OKFtDSDNdKVtDSDJdYyhjMTIpc2MoW05IMl0pYzJDKD1PKVtOSDJd

>  <s_epik_cmdline>  (46) 
J2VwaWtfcHl0aG9uJywgJy1waHQnLCAnMi4wJywgJy1waCcsICc3LjAnLCAnLXRuJywgJzgnLCAnLW1hJywgJzIwMCcsICctaW1hZScsICc8aW5maWxlLm1hZT4nLCAnLW9tYWUnLCAnPG91dGZpbGUubWFlPic=

>  <r_epik_Ionization_Penalty>  (46) 
0.811049

>  <r_epik_Ionization_Penalty_Charging>  (46) 
0

>  <r_epik_Ionization_Penalty_Neutral>  (46) 
0.811049

>  <r_epik_State_Penalty>  (46) 
0.84268

>  <r_epik_Charging_Adjusted_Penalty>  (46) 
0.84268

>  <i_epik_Tot_Q>  (46) 
0

>  <i_epik_Tot_abs_Q>  (46) 
0

>  <s_lp_Force_Field>  (46) 
OPLS3e

>  <r_lp_Energy>  (46) 
8.71163

>  <b_lp_Chiralities_Consistent>  (46) 
1

>  <s_lp_Variant>  (46) 
8:0-2

>  <s_i_glide_gridfile>  (46) 
pfpi4k_grid

>  <i_i_glide_lignum>  (46) 
18

>  <i_i_glide_rotatable_bonds>  (46) 
1

>  <r_i_docking_score>  (46) 
-4.89988

>  <r_i_glide_ligand_efficiency>  (46) 
-0.349992

>  <r_i_glide_ligand_efficiency_sa>  (46) 
-0.843529

>  <r_i_glide_ligand_efficiency_ln>  (46) 
-1.34647

>  <r_i_glide_gscore>  (46) 
-4.89988

>  <r_i_glide_lipo>  (46) 
-0.174189

>  <r_i_glide_hbond>  (46) 
-0.864

>  <r_i_glide_metal>  (46) 
-0

>  <r_i_glide_rewards>  (46) 
-2.2606

>  <r_i_glide_evdw>  (46) 
-13.5619

>  <r_i_glide_ecoul>  (46) 
-6.12712

>  <r_i_glide_erotb>  (46) 
0

>  <r_i_glide_esite>  (46) 
-0.00392892

>  <r_i_glide_emodel>  (46) 
-27.4215

>  <r_i_glide_energy>  (46) 
-19.6891

>  <r_i_glide_einternal>  (46) 
0.347123

>  <r_i_glide_intrahb_reward>  (46) 
-0

>  <i_i_glide_confnum>  (46) 
3

>  <i_i_glide_posenum>  (46) 
4

>  <r_i_glide_eff_state_penalty>  (46) 
0

>  <ligand_id>  (46) 
8

>  <original_smiles>  (46) 
CN1CCc2c(sc(N)c2C(N)=O)C1

>  <smiles>  (46) 
[H]N([H])C(=O)c1c(N([H])[H])sc2c1C([H])([H])C([H])([H])N(C([H])([H])[H])C2([H])[H]

$$$$
8:1:1
     RDKit          3D

 27 28  0  0  1  0  0  0  0  0999 V2000
    6.1357   -5.5691    2.7483 C   0  0  0  0  0  0  0  0  0  0  0  0
    5.4734   -4.8917    1.6510 N   0  0  0  0  0  0  0  0  0  0  0  0
    5.6199   -5.6701    0.4158 C   0  0  0  0  0  0  0  0  0  0  0  0
    4.7674   -5.0439   -0.7100 C   0  0  0  0  0  0  0  0  0  0  0  0
    4.9508   -3.5603   -0.8029 C   0  0  0  0  0  0  0  0  0  0  0  0
    5.5221   -2.8907    0.2428 C   0  0  0  0  0  0  0  0  0  0  0  0
    5.5659   -1.1767   -0.0312 S   0  0  0  0  0  0  0  0  0  0  0  0
    4.8270   -1.3815   -1.6034 C   0  0  0  0  0  0  0  0  0  0  0  0
    4.6127   -0.2756   -2.4064 N   0  0  0  0  0  0  0  0  0  0  0  0
    4.5443   -2.7024   -1.8710 C   0  0  0  0  0  0  0  0  0  0  0  0
    3.8928   -3.1573   -3.1296 C   0  0  0  0  0  0  0  0  0  0  0  0
    2.5996   -2.8528   -3.2175 N   0  0  0  0  0  0  0  0  0  0  0  0
    4.4783   -3.7797   -4.0134 O   0  0  0  0  0  0  0  0  0  0  0  0
    6.0569   -3.5573    1.4721 C   0  0  0  0  0  0  0  0  0  0  0  0
    7.2019   -5.7062    2.5511 H   0  0  0  0  0  0  0  0  0  0  0  0
    5.6817   -6.5484    2.8983 H   0  0  0  0  0  0  0  0  0  0  0  0
    6.0093   -4.9975    3.6695 H   0  0  0  0  0  0  0  0  0  0  0  0
    6.6700   -5.6931    0.1215 H   0  0  0  0  0  0  0  0  0  0  0  0
    5.3013   -6.7017    0.5752 H   0  0  0  0  0  0  0  0  0  0  0  0
    5.0128   -5.5114   -1.6609 H   0  0  0  0  0  0  0  0  0  0  0  0
    3.7138   -5.2552   -0.5165 H   0  0  0  0  0  0  0  0  0  0  0  0
    4.1093   -0.3009   -3.2823 H   0  0  0  0  0  0  0  0  0  0  0  0
    4.8225    0.6679   -2.0733 H   0  0  0  0  0  0  0  0  0  0  0  0
    2.1558   -2.3682   -2.4463 H   0  0  0  0  0  0  0  0  0  0  0  0
    2.0507   -3.2155   -3.9818 H   0  0  0  0  0  0  0  0  0  0  0  0
    5.8339   -2.9542    2.3561 H   0  0  0  0  0  0  0  0  0  0  0  0
    7.1457   -3.6375    1.3952 H   0  0  0  0  0  0  0  0  0  0  0  0
  1  2  1  0
  1 15  1  0
  1 16  1  0
  1 17  1  0
  2 14  1  0
  2  3  1  0
  3  4  1  0
  3 18  1  0
  3 19  1  0
  4  5  1  0
  4 20  1  0
  4 21  1  0
  5 10  1  0
  5  6  2  0
  6  7  1  0
  6 14  1  0
  7  8  1  0
  8  9  1  0
  8 10  2  0
  9 22  1  0
  9 23  1  0
 10 11  1  0
 11 12  1  0
 11 13  2  0
 12 24  1  0
 12 25  1  0
 14 26  1  0
 14 27  1  0
M  END
>  <i_m_ct_stereo_status>  (47) 
1

>  <s_m_source_file>  (47) 
/var/tmp/pbs.5076255.sched01/tmpikn618da/06v91y69d.sdf

>  <i_m_source_file_index>  (47) 
18

>  <i_lp_mmshare_version>  (47) 
48012

>  <i_f3d_flags>  (47) 
0

>  <s_epik_input>  (47) 
W0NIMl0xW0NIMl1OKFtDSDNdKVtDSDJdYyhjMTIpc2MoW05IMl0pYzJDKD1PKVtOSDJd

>  <s_epik_cmdline>  (47) 
J2VwaWtfcHl0aG9uJywgJy1waHQnLCAnMi4wJywgJy1waCcsICc3LjAnLCAnLXRuJywgJzgnLCAnLW1hJywgJzIwMCcsICctaW1hZScsICc8aW5maWxlLm1hZT4nLCAnLW9tYWUnLCAnPG91dGZpbGUubWFlPic=

>  <r_epik_Ionization_Penalty>  (47) 
0.811049

>  <r_epik_Ionization_Penalty_Charging>  (47) 
0

>  <r_epik_Ionization_Penalty_Neutral>  (47) 
0.811049

>  <r_epik_State_Penalty>  (47) 
0.84268

>  <r_epik_Charging_Adjusted_Penalty>  (47) 
0.84268

>  <i_epik_Tot_Q>  (47) 
0

>  <i_epik_Tot_abs_Q>  (47) 
0

>  <s_lp_Force_Field>  (47) 
OPLS3e

>  <r_lp_Energy>  (47) 
8.71163

>  <b_lp_Chiralities_Consistent>  (47) 
1

>  <s_lp_Variant>  (47) 
8:0-2

>  <s_i_glide_gridfile>  (47) 
pfpi4k_grid

>  <i_i_glide_lignum>  (47) 
18

>  <i_i_glide_rotatable_bonds>  (47) 
1

>  <r_i_docking_score>  (47) 
-4.5152

>  <r_i_glide_ligand_efficiency>  (47) 
-0.322515

>  <r_i_glide_ligand_efficiency_sa>  (47) 
-0.777306

>  <r_i_glide_ligand_efficiency_ln>  (47) 
-1.24076

>  <r_i_glide_gscore>  (47) 
-4.5152

>  <r_i_glide_lipo>  (47) 
-0.293593

>  <r_i_glide_hbond>  (47) 
-0.32

>  <r_i_glide_metal>  (47) 
-0

>  <r_i_glide_rewards>  (47) 
-2.05774

>  <r_i_glide_evdw>  (47) 
-20.1595

>  <r_i_glide_ecoul>  (47) 
-5.55869

>  <r_i_glide_erotb>  (47) 
0

>  <r_i_glide_esite>  (47) 
-0.00209632

>  <r_i_glide_emodel>  (47) 
-31.8791

>  <r_i_glide_energy>  (47) 
-25.7182

>  <r_i_glide_einternal>  (47) 
2.01537

>  <r_i_glide_intrahb_reward>  (47) 
-0

>  <i_i_glide_confnum>  (47) 
4

>  <i_i_glide_posenum>  (47) 
30

>  <r_i_glide_eff_state_penalty>  (47) 
0

>  <ligand_id>  (47) 
8

>  <original_smiles>  (47) 
CN1CCc2c(sc(N)c2C(N)=O)C1

>  <smiles>  (47) 
[H]N([H])C(=O)c1c(N([H])[H])sc2c1C([H])([H])C([H])([H])N(C([H])([H])[H])C2([H])[H]

$$$$
8:1:2
     RDKit          3D

 27 28  0  0  1  0  0  0  0  0999 V2000
    3.4511   -0.2736   -4.4829 C   0  0  0  0  0  0  0  0  0  0  0  0
    3.4386   -1.0090   -3.2320 N   0  0  0  0  0  0  0  0  0  0  0  0
    3.6677   -2.4312   -3.4651 C   0  0  0  0  0  0  0  0  0  0  0  0
    3.4497   -3.2064   -2.1531 C   0  0  0  0  0  0  0  0  0  0  0  0
    4.1282   -2.5804   -0.9648 C   0  0  0  0  0  0  0  0  0  0  0  0
    4.5536   -1.2902   -1.0683 C   0  0  0  0  0  0  0  0  0  0  0  0
    5.3016   -0.7318    0.3958 S   0  0  0  0  0  0  0  0  0  0  0  0
    5.0089   -2.2678    1.1719 C   0  0  0  0  0  0  0  0  0  0  0  0
    5.4120   -2.4445    2.4900 N   0  0  0  0  0  0  0  0  0  0  0  0
    4.3642   -3.1510    0.3352 C   0  0  0  0  0  0  0  0  0  0  0  0
    3.9906   -4.5531    0.7228 C   0  0  0  0  0  0  0  0  0  0  0  0
    2.8397   -4.9818    0.2044 N   0  0  0  0  0  0  0  0  0  0  0  0
    4.6588   -5.2598    1.4683 O   0  0  0  0  0  0  0  0  0  0  0  0
    4.4434   -0.4857   -2.3170 C   0  0  0  0  0  0  0  0  0  0  0  0
    2.6648   -0.6484   -5.1405 H   0  0  0  0  0  0  0  0  0  0  0  0
    4.4120   -0.3816   -4.9877 H   0  0  0  0  0  0  0  0  0  0  0  0
    3.2611    0.7878   -4.3113 H   0  0  0  0  0  0  0  0  0  0  0  0
    2.9843   -2.8107   -4.2294 H   0  0  0  0  0  0  0  0  0  0  0  0
    4.6813   -2.5840   -3.8331 H   0  0  0  0  0  0  0  0  0  0  0  0
    2.3736   -3.2662   -1.9782 H   0  0  0  0  0  0  0  0  0  0  0  0
    3.8379   -4.2025   -2.3013 H   0  0  0  0  0  0  0  0  0  0  0  0
    5.3147   -3.3444    2.9394 H   0  0  0  0  0  0  0  0  0  0  0  0
    5.8977   -1.7478    3.0316 H   0  0  0  0  0  0  0  0  0  0  0  0
    2.3738   -4.3883   -0.4660 H   0  0  0  0  0  0  0  0  0  0  0  0
    2.5560   -5.9369    0.3530 H   0  0  0  0  0  0  0  0  0  0  0  0
    5.4161   -0.5047   -2.8091 H   0  0  0  0  0  0  0  0  0  0  0  0
    4.2197    0.5454   -2.1105 H   0  0  0  0  0  0  0  0  0  0  0  0
  1  2  1  0
  1 15  1  0
  1 16  1  0
  1 17  1  0
  2 14  1  0
  2  3  1  0
  3  4  1  0
  3 18  1  0
  3 19  1  0
  4  5  1  0
  4 20  1  0
  4 21  1  0
  5 10  1  0
  5  6  2  0
  6  7  1  0
  6 14  1  0
  7  8  1  0
  8  9  1  0
  8 10  2  0
  9 22  1  0
  9 23  1  0
 10 11  1  0
 11 12  1  0
 11 13  2  0
 12 24  1  0
 12 25  1  0
 14 26  1  0
 14 27  1  0
M  END
>  <i_m_ct_stereo_status>  (48) 
1

>  <s_m_source_file>  (48) 
/var/tmp/pbs.5076255.sched01/tmpikn618da/06v91y69d.sdf

>  <i_m_source_file_index>  (48) 
18

>  <i_lp_mmshare_version>  (48) 
48012

>  <i_f3d_flags>  (48) 
0

>  <s_epik_input>  (48) 
W0NIMl0xW0NIMl1OKFtDSDNdKVtDSDJdYyhjMTIpc2MoW05IMl0pYzJDKD1PKVtOSDJd

>  <s_epik_cmdline>  (48) 
J2VwaWtfcHl0aG9uJywgJy1waHQnLCAnMi4wJywgJy1waCcsICc3LjAnLCAnLXRuJywgJzgnLCAnLW1hJywgJzIwMCcsICctaW1hZScsICc8aW5maWxlLm1hZT4nLCAnLW9tYWUnLCAnPG91dGZpbGUubWFlPic=

>  <r_epik_Ionization_Penalty>  (48) 
0.811049

>  <r_epik_Ionization_Penalty_Charging>  (48) 
0

>  <r_epik_Ionization_Penalty_Neutral>  (48) 
0.811049

>  <r_epik_State_Penalty>  (48) 
0.84268

>  <r_epik_Charging_Adjusted_Penalty>  (48) 
0.84268

>  <i_epik_Tot_Q>  (48) 
0

>  <i_epik_Tot_abs_Q>  (48) 
0

>  <s_lp_Force_Field>  (48) 
OPLS3e

>  <r_lp_Energy>  (48) 
8.71163

>  <b_lp_Chiralities_Consistent>  (48) 
1

>  <s_lp_Variant>  (48) 
8:0-2

>  <s_i_glide_gridfile>  (48) 
pfpi4k_grid

>  <i_i_glide_lignum>  (48) 
18

>  <i_i_glide_rotatable_bonds>  (48) 
1

>  <r_i_docking_score>  (48) 
-3.73974

>  <r_i_glide_ligand_efficiency>  (48) 
-0.267124

>  <r_i_glide_ligand_efficiency_sa>  (48) 
-0.643808

>  <r_i_glide_ligand_efficiency_ln>  (48) 
-1.02767

>  <r_i_glide_gscore>  (48) 
-3.73974

>  <r_i_glide_lipo>  (48) 
-0.706367

>  <r_i_glide_hbond>  (48) 
0

>  <r_i_glide_metal>  (48) 
-0

>  <r_i_glide_rewards>  (48) 
-1.99573

>  <r_i_glide_evdw>  (48) 
-19.197

>  <r_i_glide_ecoul>  (48) 
-0.249488

>  <r_i_glide_erotb>  (48) 
0

>  <r_i_glide_esite>  (48) 
-0.0403684

>  <r_i_glide_emodel>  (48) 
-25.0753

>  <r_i_glide_energy>  (48) 
-19.4465

>  <r_i_glide_einternal>  (48) 
0.54147

>  <r_i_glide_intrahb_reward>  (48) 
-0

>  <i_i_glide_confnum>  (48) 
1

>  <i_i_glide_posenum>  (48) 
6

>  <r_i_glide_eff_state_penalty>  (48) 
0

>  <ligand_id>  (48) 
8

>  <original_smiles>  (48) 
CN1CCc2c(sc(N)c2C(N)=O)C1

>  <smiles>  (48) 
[H]N([H])C(=O)c1c(N([H])[H])sc2c1C([H])([H])C([H])([H])N(C([H])([H])[H])C2([H])[H]

$$$$
9:0:0
     RDKit          3D

 87 93  0  0  1  0  0  0  0  0999 V2000
    7.2219   -5.8726    1.7200 C   0  0  0  0  0  0  0  0  0  0  0  0
    6.2902   -5.2492    2.4674 C   0  0  0  0  0  0  0  0  0  0  0  0
    5.6079   -4.0714    1.8343 C   0  0  0  0  0  0  0  0  0  0  0  0
    5.9985   -5.6152    3.9714 C   0  0  2  0  0  0  0  0  0  0  0  0
    6.9580   -6.5697    4.3728 O   0  0  0  0  0  0  0  0  0  0  0  0
    4.4649   -5.9659    4.3740 C   0  0  2  0  0  0  0  0  0  0  0  0
    3.7095   -4.8299    3.9673 O   0  0  0  0  0  0  0  0  0  0  0  0
    4.0751   -3.4900    4.3970 C   0  0  1  0  0  0  0  0  0  0  0  0
    3.0751   -2.5554    3.7306 C   0  0  0  0  0  0  0  0  0  0  0  0
    3.3048   -1.5282    2.8761 C   0  0  0  0  0  0  0  0  0  0  0  0
    2.1344   -0.7591    2.2706 C   0  0  0  0  0  0  0  0  0  0  0  0
    4.6477   -1.0003    2.3909 C   0  0  0  0  0  0  0  0  0  0  0  0
    4.7498   -1.1093    0.9847 O   0  0  0  0  0  0  0  0  0  0  0  0
    4.2460   -3.1525    5.9112 C   0  0  0  0  0  0  0  0  0  0  0  0
    5.0296   -4.0610    6.9467 C   0  0  2  0  0  0  0  0  0  0  0  0
    4.6200   -3.5228    8.1892 O   0  0  0  0  0  0  0  0  0  0  0  0
    6.5662   -3.9603    6.9625 C   0  0  0  0  0  0  0  0  0  0  0  0
    7.1795   -2.8912    6.8860 O   0  0  0  0  0  0  0  0  0  0  0  0
    7.1548   -5.2778    7.1486 C   0  0  0  0  0  0  0  0  0  0  0  0
    8.6538   -5.4768    7.2870 C   0  0  0  0  0  0  0  0  0  0  0  0
    6.1757   -6.2014    7.1694 C   0  0  0  0  0  0  0  0  0  0  0  0
    4.7804   -5.6312    7.0170 C   0  0  2  0  0  0  0  0  0  0  0  0
    3.8456   -6.2025    5.8994 C   0  0  1  0  0  0  0  0  0  0  0  0
    2.4265   -5.4997    6.2965 C   0  0  0  0  0  0  0  0  0  0  0  0
    1.3739   -6.4022    6.9972 C   0  0  1  0  0  0  0  0  0  0  0  0
    0.1620   -5.5731    7.4575 C   0  0  0  0  0  0  0  0  0  0  0  0
    0.9287   -7.5044    6.0126 C   0  0  0  0  0  0  0  0  0  0  0  0
    2.1169   -8.4256    5.4898 C   0  0  2  0  0  0  0  0  0  0  0  0
    1.9378   -9.7468    6.2985 C   0  0  0  0  0  0  0  0  0  0  0  0
    3.5235   -7.7711    5.8490 C   0  0  2  0  0  0  0  0  0  0  0  0
    4.5743   -8.2982    4.8704 C   0  0  1  0  0  0  0  0  0  0  0  0
    4.7329   -9.7753    4.5871 C   0  0  0  0  0  0  0  0  0  0  0  0
    3.9023  -10.5546    3.8930 C   0  0  0  0  0  0  0  0  0  0  0  0
    4.2381  -12.0045    3.6144 C   0  0  0  0  0  0  0  0  0  0  0  0
    2.5529  -10.0759    3.3820 C   0  0  0  0  0  0  0  0  0  0  0  0
    2.0568   -8.6719    3.8573 C   0  0  1  0  0  0  0  0  0  0  0  0
    0.6834   -8.4989    3.2870 C   0  0  0  0  0  0  0  0  0  0  0  0
   -0.3989   -9.3605    3.3256 C   0  0  0  0  0  0  0  0  0  0  0  0
   -1.7267   -8.6693    2.5006 S   0  0  0  0  0  0  0  0  0  0  0  0
   -0.8656   -7.2657    2.1353 N   0  0  0  0  0  0  0  0  0  0  0  0
    0.3244   -7.2966    2.5797 N   0  0  0  0  0  0  0  0  0  0  0  0
    2.9361   -7.7072    3.1567 O   0  0  0  0  0  0  0  0  0  0  0  0
    4.2687   -7.3910    3.6598 C   0  0  1  0  0  0  0  0  0  0  0  0
    7.3759   -5.4946    0.7084 H   0  0  0  0  0  0  0  0  0  0  0  0
    7.8489   -6.6987    2.0402 H   0  0  0  0  0  0  0  0  0  0  0  0
    4.5256   -4.1088    1.9217 H   0  0  0  0  0  0  0  0  0  0  0  0
    5.8360   -3.9170    0.7766 H   0  0  0  0  0  0  0  0  0  0  0  0
    6.0725   -3.2581    2.3756 H   0  0  0  0  0  0  0  0  0  0  0  0
    6.3432   -4.7550    4.5083 H   0  0  0  0  0  0  0  0  0  0  0  0
    6.8344   -7.3507    3.8683 H   0  0  0  0  0  0  0  0  0  0  0  0
    5.0534   -3.2325    4.0218 H   0  0  0  0  0  0  0  0  0  0  0  0
    2.0288   -2.7712    3.9729 H   0  0  0  0  0  0  0  0  0  0  0  0
    2.2410    0.2976    2.5156 H   0  0  0  0  0  0  0  0  0  0  0  0
    1.1682   -1.1075    2.6423 H   0  0  0  0  0  0  0  0  0  0  0  0
    2.1193   -0.8450    1.1827 H   0  0  0  0  0  0  0  0  0  0  0  0
    4.7090    0.0703    2.6132 H   0  0  0  0  0  0  0  0  0  0  0  0
    5.5089   -1.4729    2.8797 H   0  0  0  0  0  0  0  0  0  0  0  0
    3.9903   -0.7078    0.5639 H   0  0  0  0  0  0  0  0  0  0  0  0
    4.7876   -2.2005    5.8853 H   0  0  0  0  0  0  0  0  0  0  0  0
    3.2673   -2.8537    6.3128 H   0  0  0  0  0  0  0  0  0  0  0  0
    3.6892   -3.5126    8.2006 H   0  0  0  0  0  0  0  0  0  0  0  0
    9.1595   -5.0834    6.4042 H   0  0  0  0  0  0  0  0  0  0  0  0
    8.9248   -6.5291    7.3971 H   0  0  0  0  0  0  0  0  0  0  0  0
    9.0285   -4.9294    8.1551 H   0  0  0  0  0  0  0  0  0  0  0  0
    6.3389   -7.2573    7.2943 H   0  0  0  0  0  0  0  0  0  0  0  0
    4.3060   -5.8608    7.9711 H   0  0  0  0  0  0  0  0  0  0  0  0
    2.5473   -4.6760    6.9910 H   0  0  0  0  0  0  0  0  0  0  0  0
    1.9263   -5.0737    5.4285 H   0  0  0  0  0  0  0  0  0  0  0  0
    1.8229   -6.8534    7.8853 H   0  0  0  0  0  0  0  0  0  0  0  0
   -0.3277   -5.0894    6.6116 H   0  0  0  0  0  0  0  0  0  0  0  0
    0.4456   -4.7891    8.1603 H   0  0  0  0  0  0  0  0  0  0  0  0
   -0.5837   -6.1963    7.9501 H   0  0  0  0  0  0  0  0  0  0  0  0
    0.1168   -8.0959    6.4427 H   0  0  0  0  0  0  0  0  0  0  0  0
    0.4707   -6.9547    5.1905 H   0  0  0  0  0  0  0  0  0  0  0  0
    2.7595  -10.4500    6.2108 H   0  0  0  0  0  0  0  0  0  0  0  0
    1.0353  -10.2782    5.9858 H   0  0  0  0  0  0  0  0  0  0  0  0
    1.8288   -9.5537    7.3659 H   0  0  0  0  0  0  0  0  0  0  0  0
    2.8873   -7.2178    5.2300 H   0  0  0  0  0  0  0  0  0  0  0  0
    5.5290   -8.0929    5.3334 H   0  0  0  0  0  0  0  0  0  0  0  0
    5.6702  -10.1995    4.9326 H   0  0  0  0  0  0  0  0  0  0  0  0
    3.4862  -12.6663    4.0448 H   0  0  0  0  0  0  0  0  0  0  0  0
    5.2060  -12.2838    4.0424 H   0  0  0  0  0  0  0  0  0  0  0  0
    4.2893  -12.1934    2.5426 H   0  0  0  0  0  0  0  0  0  0  0  0
    2.5799  -10.1080    2.2967 H   0  0  0  0  0  0  0  0  0  0  0  0
    1.8438  -10.8437    3.6903 H   0  0  0  0  0  0  0  0  0  0  0  0
   -0.4834  -10.3402    3.7815 H   0  0  0  0  0  0  0  0  0  0  0  0
    4.9613   -7.5664    2.8355 H   0  0  0  0  0  0  0  0  0  0  0  0
  1  2  2  0
  1 44  1  0
  1 45  1  0
  2  3  1  0
  2  4  1  0
  3 46  1  0
  3 47  1  0
  3 48  1  0
  4  5  1  0
  4  6  1  0
  4 49  1  1
  5 50  1  0
  6 23  1  0
  6 43  1  0
  6  7  1  6
  7  8  1  0
  8  9  1  0
  8 14  1  0
  8 51  1  6
  9 10  2  3
  9 52  1  0
 10 11  1  0
 10 12  1  0
 11 53  1  0
 11 54  1  0
 11 55  1  0
 12 13  1  0
 12 56  1  0
 12 57  1  0
 13 58  1  0
 14 15  1  0
 14 59  1  0
 14 60  1  0
 15 22  1  0
 15 16  1  1
 15 17  1  0
 16 61  1  0
 17 18  2  0
 17 19  1  0
 19 20  1  0
 19 21  2  0
 20 62  1  0
 20 63  1  0
 20 64  1  0
 21 22  1  0
 21 65  1  0
 22 23  1  0
 22 66  1  1
 23 30  1  0
 23 24  1  6
 24 25  1  0
 24 67  1  0
 24 68  1  0
 25 26  1  0
 25 27  1  0
 25 69  1  1
 26 70  1  0
 26 71  1  0
 26 72  1  0
 27 28  1  0
 27 73  1  0
 27 74  1  0
 28 36  1  0
 28 29  1  1
 28 30  1  0
 29 75  1  0
 29 76  1  0
 29 77  1  0
 30 31  1  0
 30 78  1  1
 31 43  1  0
 31 32  1  0
 31 79  1  1
 32 33  2  0
 32 80  1  0
 33 34  1  0
 33 35  1  0
 34 81  1  0
 34 82  1  0
 34 83  1  0
 35 36  1  0
 35 84  1  0
 35 85  1  0
 36 37  1  6
 36 42  1  0
 37 41  1  0
 37 38  2  0
 38 39  1  0
 38 86  1  0
 39 40  1  0
 40 41  2  0
 42 43  1  0
 43 87  1  6
M  END
>  <i_m_ct_stereo_status>  (49) 
1

>  <s_m_source_file>  (49) 
/var/tmp/pbs.5076255.sched01/tmpikn618da/06v91y69d.sdf

>  <i_m_source_file_index>  (49) 
19

>  <i_lp_mmshare_version>  (49) 
48012

>  <i_f3d_flags>  (49) 
0

>  <s_epik_input>  (49) 
Tz1DMUMoW0NIM10pPVtDSF1bQ0BIXTJbQ0BdMShbT0hdKVtDSDJdW0NASF0oL1tDSF09QyhcW0NIM10pW0NIMl1bT0hdKU9bQ0BdKFtDQEBdMjM0KShbQ0BASF0oW09IXSlDKD1bQ0gyXSlbQ0gzXSlbQ0BIXTVbQ0BIXTZbQ0BIXTRbQ0BAXShbQ0gzXSkoW0NIMl1bQ0BASF0oW0NIMl0zKVtDSDNdKVtDQEBdKE81KShbQ0gyXUMoPVtDSF02KVtDSDNdKWM3W2NIXXNubjc=

>  <s_epik_cmdline>  (49) 
J2VwaWtfcHl0aG9uJywgJy1waHQnLCAnMi4wJywgJy1waCcsICc3LjAnLCAnLXRuJywgJzgnLCAnLW1hJywgJzIwMCcsICctaW1hZScsICc8aW5maWxlLm1hZT4nLCAnLW9tYWUnLCAnPG91dGZpbGUubWFlPic=

>  <r_lp_tautomer_probability>  (49) 
1

>  <r_epik_Ionization_Penalty>  (49) 
2.48706e-06

>  <r_epik_Ionization_Penalty_Charging>  (49) 
0

>  <r_epik_Ionization_Penalty_Neutral>  (49) 
2.48706e-06

>  <r_epik_State_Penalty>  (49) 
-0

>  <r_epik_Charging_Adjusted_Penalty>  (49) 
0

>  <i_epik_Tot_Q>  (49) 
0

>  <i_epik_Tot_abs_Q>  (49) 
0

>  <s_lp_Force_Field>  (49) 
OPLS3e

>  <r_lp_Energy>  (49) 
204.712

>  <b_lp_Chiralities_Consistent>  (49) 
1

>  <s_lp_Variant>  (49) 
9:0-1

>  <s_i_glide_gridfile>  (49) 
pfpi4k_grid

>  <i_i_glide_lignum>  (49) 
19

>  <i_i_glide_rotatable_bonds>  (49) 
8

>  <r_i_docking_score>  (49) 
-2.2614

>  <r_i_glide_ligand_efficiency>  (49) 
-0.0525907

>  <r_i_glide_ligand_efficiency_sa>  (49) 
-0.184246

>  <r_i_glide_ligand_efficiency_ln>  (49) 
-0.474964

>  <r_i_glide_gscore>  (49) 
-2.2614

>  <r_i_glide_lipo>  (49) 
-0.398293

>  <r_i_glide_hbond>  (49) 
0

>  <r_i_glide_metal>  (49) 
-0

>  <r_i_glide_rewards>  (49) 
-0.0170836

>  <r_i_glide_evdw>  (49) 
-27.9005

>  <r_i_glide_ecoul>  (49) 
-3.05117

>  <r_i_glide_erotb>  (49) 
0.160354

>  <r_i_glide_esite>  (49) 
-0.153678

>  <r_i_glide_emodel>  (49) 
-31.9335

>  <r_i_glide_energy>  (49) 
-30.9517

>  <r_i_glide_einternal>  (49) 
2.72072

>  <r_i_glide_intrahb_reward>  (49) 
-0

>  <i_i_glide_confnum>  (49) 
1

>  <i_i_glide_posenum>  (49) 
30

>  <r_i_glide_eff_state_penalty>  (49) 
0

>  <ligand_id>  (49) 
9

>  <original_smiles>  (49) 
C=C(C)C(O)C12OC(C=C(C)CO)CC3(O)C(=O)C(C)=CC3C13CC(C)CC1(C)C3C3C=C(C)CC1(c1csnn1)OC32

>  <smiles>  (49) 
[H]OC([H])([H])C(=C([H])C1([H])OC2(C([H])(O[H])C(=C([H])[H])C([H])([H])[H])C3([H])OC4(c5nnsc5[H])C([H])([H])C(C([H])([H])[H])=C([H])C3([H])C3([H])C4(C([H])([H])[H])C([H])([H])C([H])(C([H])([H])[H])C([H])([H])C32C2([H])C([H])=C(C([H])([H])[H])C(=O)C2(O[H])C1([H])[H])C([H])([H])[H]

$$$$
9:0:1
     RDKit          3D

 87 93  0  0  1  0  0  0  0  0999 V2000
    2.0252   -1.8863    2.4403 C   0  0  0  0  0  0  0  0  0  0  0  0
    3.1042   -1.6556    3.2130 C   0  0  0  0  0  0  0  0  0  0  0  0
    3.8810   -0.3529    3.0476 C   0  0  0  0  0  0  0  0  0  0  0  0
    3.6429   -2.6071    4.3076 C   0  0  2  0  0  0  0  0  0  0  0  0
    5.0084   -2.8258    4.0132 O   0  0  0  0  0  0  0  0  0  0  0  0
    2.7581   -3.9192    4.6591 C   0  0  2  0  0  0  0  0  0  0  0  0
    1.4342   -3.4438    4.8903 O   0  0  0  0  0  0  0  0  0  0  0  0
    1.2521   -2.3411    5.8113 C   0  0  1  0  0  0  0  0  0  0  0  0
   -0.2469   -2.0794    5.8314 C   0  0  0  0  0  0  0  0  0  0  0  0
   -0.9084   -0.9691    5.4430 C   0  0  0  0  0  0  0  0  0  0  0  0
   -2.4274   -0.9281    5.4789 C   0  0  0  0  0  0  0  0  0  0  0  0
   -0.2573    0.3100    4.9239 C   0  0  0  0  0  0  0  0  0  0  0  0
   -0.6770    1.4215    5.6824 O   0  0  0  0  0  0  0  0  0  0  0  0
    1.7876   -2.4239    7.2867 C   0  0  0  0  0  0  0  0  0  0  0  0
    3.2268   -2.9423    7.7139 C   0  0  2  0  0  0  0  0  0  0  0  0
    3.1034   -3.1799    9.1086 O   0  0  0  0  0  0  0  0  0  0  0  0
    4.3780   -1.9377    7.5854 C   0  0  0  0  0  0  0  0  0  0  0  0
    4.2790   -0.7460    7.8895 O   0  0  0  0  0  0  0  0  0  0  0  0
    5.5666   -2.6088    7.0693 C   0  0  0  0  0  0  0  0  0  0  0  0
    6.8839   -1.8741    6.9051 C   0  0  0  0  0  0  0  0  0  0  0  0
    5.2618   -3.8795    6.7709 C   0  0  0  0  0  0  0  0  0  0  0  0
    3.8289   -4.2676    7.0860 C   0  0  2  0  0  0  0  0  0  0  0  0
    2.9617   -4.9251    5.9593 C   0  0  1  0  0  0  0  0  0  0  0  0
    1.6573   -5.3901    6.8288 C   0  0  0  0  0  0  0  0  0  0  0  0
    1.5549   -6.9087    7.1517 C   0  0  1  0  0  0  0  0  0  0  0  0
    0.3823   -7.1892    8.1113 C   0  0  0  0  0  0  0  0  0  0  0  0
    1.3762   -7.7006    5.8403 C   0  0  0  0  0  0  0  0  0  0  0  0
    2.5638   -7.4881    4.7979 C   0  0  2  0  0  0  0  0  0  0  0  0
    3.3876   -8.8033    4.9114 C   0  0  0  0  0  0  0  0  0  0  0  0
    3.4664   -6.2559    5.2355 C   0  0  2  0  0  0  0  0  0  0  0  0
    4.1796   -5.7024    4.0001 C   0  0  1  0  0  0  0  0  0  0  0  0
    4.9293   -6.6016    3.0406 C   0  0  0  0  0  0  0  0  0  0  0  0
    4.3971   -7.4766    2.1767 C   0  0  0  0  0  0  0  0  0  0  0  0
    5.2677   -8.2475    1.2021 C   0  0  0  0  0  0  0  0  0  0  0  0
    2.9178   -7.7986    2.1285 C   0  0  0  0  0  0  0  0  0  0  0  0
    2.0248   -7.2138    3.2648 C   0  0  1  0  0  0  0  0  0  0  0  0
    0.6367   -7.7689    3.0292 C   0  0  0  0  0  0  0  0  0  0  0  0
    0.2478   -9.0745    2.8828 C   0  0  0  0  0  0  0  0  0  0  0  0
   -1.4484   -9.1068    2.5823 S   0  0  0  0  0  0  0  0  0  0  0  0
   -1.6048   -7.4522    2.7463 N   0  0  0  0  0  0  0  0  0  0  0  0
   -0.4537   -6.8855    2.9433 N   0  0  0  0  0  0  0  0  0  0  0  0
    1.9614   -5.7612    2.9811 O   0  0  0  0  0  0  0  0  0  0  0  0
    3.0372   -4.8647    3.3962 C   0  0  1  0  0  0  0  0  0  0  0  0
    1.7116   -1.1625    1.6999 H   0  0  0  0  0  0  0  0  0  0  0  0
    1.4312   -2.7823    2.5212 H   0  0  0  0  0  0  0  0  0  0  0  0
    3.9219    0.1981    3.9891 H   0  0  0  0  0  0  0  0  0  0  0  0
    3.4194    0.3014    2.3059 H   0  0  0  0  0  0  0  0  0  0  0  0
    4.9034   -0.5421    2.7226 H   0  0  0  0  0  0  0  0  0  0  0  0
    3.7051   -1.9521    5.1589 H   0  0  0  0  0  0  0  0  0  0  0  0
    5.0681   -3.3510    3.2307 H   0  0  0  0  0  0  0  0  0  0  0  0
    1.6989   -1.4615    5.3810 H   0  0  0  0  0  0  0  0  0  0  0  0
   -0.8296   -2.9165    6.1864 H   0  0  0  0  0  0  0  0  0  0  0  0
   -2.7746   -0.1089    6.1064 H   0  0  0  0  0  0  0  0  0  0  0  0
   -2.8549   -1.8558    5.8597 H   0  0  0  0  0  0  0  0  0  0  0  0
   -2.8349   -0.7643    4.4801 H   0  0  0  0  0  0  0  0  0  0  0  0
    0.8301    0.3085    4.9481 H   0  0  0  0  0  0  0  0  0  0  0  0
   -0.5537    0.4556    3.8848 H   0  0  0  0  0  0  0  0  0  0  0  0
   -0.1652    2.1680    5.4087 H   0  0  0  0  0  0  0  0  0  0  0  0
    1.7108   -1.4022    7.6630 H   0  0  0  0  0  0  0  0  0  0  0  0
    1.0294   -2.9337    7.8782 H   0  0  0  0  0  0  0  0  0  0  0  0
    2.4110   -3.8035    9.2575 H   0  0  0  0  0  0  0  0  0  0  0  0
    6.7531   -1.0166    6.2467 H   0  0  0  0  0  0  0  0  0  0  0  0
    7.6538   -2.5169    6.4867 H   0  0  0  0  0  0  0  0  0  0  0  0
    7.2359   -1.5075    7.8677 H   0  0  0  0  0  0  0  0  0  0  0  0
    5.9690   -4.5930    6.3734 H   0  0  0  0  0  0  0  0  0  0  0  0
    3.9450   -5.0167    7.8751 H   0  0  0  0  0  0  0  0  0  0  0  0
    1.6150   -4.9280    7.8096 H   0  0  0  0  0  0  0  0  0  0  0  0
    0.7295   -5.1163    6.3257 H   0  0  0  0  0  0  0  0  0  0  0  0
    2.4683   -7.2382    7.6518 H   0  0  0  0  0  0  0  0  0  0  0  0
   -0.5607   -6.8643    7.6759 H   0  0  0  0  0  0  0  0  0  0  0  0
    0.4976   -6.6613    9.0591 H   0  0  0  0  0  0  0  0  0  0  0  0
    0.2966   -8.2532    8.3380 H   0  0  0  0  0  0  0  0  0  0  0  0
    1.2123   -8.7584    6.0517 H   0  0  0  0  0  0  0  0  0  0  0  0
    0.4314   -7.3376    5.4361 H   0  0  0  0  0  0  0  0  0  0  0  0
    4.3450   -8.7857    4.3993 H   0  0  0  0  0  0  0  0  0  0  0  0
    2.8285   -9.6484    4.5071 H   0  0  0  0  0  0  0  0  0  0  0  0
    3.6139   -9.0450    5.9507 H   0  0  0  0  0  0  0  0  0  0  0  0
    2.4642   -6.0559    5.0334 H   0  0  0  0  0  0  0  0  0  0  0  0
    4.9959   -5.1064    4.3805 H   0  0  0  0  0  0  0  0  0  0  0  0
    5.9962   -6.4437    3.0238 H   0  0  0  0  0  0  0  0  0  0  0  0
    5.1755   -9.3217    1.3651 H   0  0  0  0  0  0  0  0  0  0  0  0
    6.3188   -7.9831    1.3113 H   0  0  0  0  0  0  0  0  0  0  0  0
    4.9750   -8.0314    0.1754 H   0  0  0  0  0  0  0  0  0  0  0  0
    2.5336   -7.4713    1.1635 H   0  0  0  0  0  0  0  0  0  0  0  0
    2.8523   -8.8881    2.1278 H   0  0  0  0  0  0  0  0  0  0  0  0
    0.8218   -9.9833    2.9091 H   0  0  0  0  0  0  0  0  0  0  0  0
    3.3593   -4.3220    2.5093 H   0  0  0  0  0  0  0  0  0  0  0  0
  1  2  2  0
  1 44  1  0
  1 45  1  0
  2  3  1  0
  2  4  1  0
  3 46  1  0
  3 47  1  0
  3 48  1  0
  4  5  1  0
  4  6  1  0
  4 49  1  1
  5 50  1  0
  6 23  1  0
  6 43  1  0
  6  7  1  6
  7  8  1  0
  8  9  1  0
  8 14  1  0
  8 51  1  6
  9 10  2  3
  9 52  1  0
 10 11  1  0
 10 12  1  0
 11 53  1  0
 11 54  1  0
 11 55  1  0
 12 13  1  0
 12 56  1  0
 12 57  1  0
 13 58  1  0
 14 15  1  0
 14 59  1  0
 14 60  1  0
 15 22  1  0
 15 16  1  1
 15 17  1  0
 16 61  1  0
 17 18  2  0
 17 19  1  0
 19 20  1  0
 19 21  2  0
 20 62  1  0
 20 63  1  0
 20 64  1  0
 21 22  1  0
 21 65  1  0
 22 23  1  0
 22 66  1  1
 23 30  1  0
 23 24  1  1
 24 25  1  0
 24 67  1  0
 24 68  1  0
 25 26  1  0
 25 27  1  0
 25 69  1  1
 26 70  1  0
 26 71  1  0
 26 72  1  0
 27 28  1  0
 27 73  1  0
 27 74  1  0
 28 36  1  0
 28 29  1  6
 28 30  1  0
 29 75  1  0
 29 76  1  0
 29 77  1  0
 30 31  1  0
 30 78  1  1
 31 43  1  0
 31 32  1  0
 31 79  1  1
 32 33  2  0
 32 80  1  0
 33 34  1  0
 33 35  1  0
 34 81  1  0
 34 82  1  0
 34 83  1  0
 35 36  1  0
 35 84  1  0
 35 85  1  0
 36 37  1  1
 36 42  1  0
 37 41  1  0
 37 38  2  0
 38 39  1  0
 38 86  1  0
 39 40  1  0
 40 41  2  0
 42 43  1  0
 43 87  1  6
M  END
>  <i_m_ct_stereo_status>  (50) 
1

>  <s_m_source_file>  (50) 
/var/tmp/pbs.5076255.sched01/tmpikn618da/06v91y69d.sdf

>  <i_m_source_file_index>  (50) 
19

>  <i_lp_mmshare_version>  (50) 
48012

>  <i_f3d_flags>  (50) 
0

>  <s_epik_input>  (50) 
Tz1DMUMoW0NIM10pPVtDSF1bQ0BIXTJbQ0BdMShbT0hdKVtDSDJdW0NASF0oL1tDSF09QyhcW0NIM10pW0NIMl1bT0hdKU9bQ0BdKFtDQEBdMjM0KShbQ0BASF0oW09IXSlDKD1bQ0gyXSlbQ0gzXSlbQ0BIXTVbQ0BIXTZbQ0BIXTRbQ0BAXShbQ0gzXSkoW0NIMl1bQ0BASF0oW0NIMl0zKVtDSDNdKVtDQEBdKE81KShbQ0gyXUMoPVtDSF02KVtDSDNdKWM3W2NIXXNubjc=

>  <s_epik_cmdline>  (50) 
J2VwaWtfcHl0aG9uJywgJy1waHQnLCAnMi4wJywgJy1waCcsICc3LjAnLCAnLXRuJywgJzgnLCAnLW1hJywgJzIwMCcsICctaW1hZScsICc8aW5maWxlLm1hZT4nLCAnLW9tYWUnLCAnPG91dGZpbGUubWFlPic=

>  <r_lp_tautomer_probability>  (50) 
1

>  <r_epik_Ionization_Penalty>  (50) 
2.48706e-06

>  <r_epik_Ionization_Penalty_Charging>  (50) 
0

>  <r_epik_Ionization_Penalty_Neutral>  (50) 
2.48706e-06

>  <r_epik_State_Penalty>  (50) 
-0

>  <r_epik_Charging_Adjusted_Penalty>  (50) 
0

>  <i_epik_Tot_Q>  (50) 
0

>  <i_epik_Tot_abs_Q>  (50) 
0

>  <s_lp_Force_Field>  (50) 
OPLS3e

>  <r_lp_Energy>  (50) 
204.712

>  <b_lp_Chiralities_Consistent>  (50) 
1

>  <s_lp_Variant>  (50) 
9:0-1

>  <s_i_glide_gridfile>  (50) 
pfpi4k_grid

>  <i_i_glide_lignum>  (50) 
19

>  <i_i_glide_rotatable_bonds>  (50) 
8

>  <r_i_docking_score>  (50) 
-2.15342

>  <r_i_glide_ligand_efficiency>  (50) 
-0.0500796

>  <r_i_glide_ligand_efficiency_sa>  (50) 
-0.175449

>  <r_i_glide_ligand_efficiency_ln>  (50) 
-0.452285

>  <r_i_glide_gscore>  (50) 
-2.15342

>  <r_i_glide_lipo>  (50) 
-0.280047

>  <r_i_glide_hbond>  (50) 
0

>  <r_i_glide_metal>  (50) 
-0

>  <r_i_glide_rewards>  (50) 
0

>  <r_i_glide_evdw>  (50) 
-27.6943

>  <r_i_glide_ecoul>  (50) 
-3.15081

>  <r_i_glide_erotb>  (50) 
0.160354

>  <r_i_glide_esite>  (50) 
-0.176391

>  <r_i_glide_emodel>  (50) 
-34.6659

>  <r_i_glide_energy>  (50) 
-30.8451

>  <r_i_glide_einternal>  (50) 
1.25295

>  <r_i_glide_intrahb_reward>  (50) 
-0

>  <i_i_glide_confnum>  (50) 
1

>  <i_i_glide_posenum>  (50) 
26

>  <r_i_glide_eff_state_penalty>  (50) 
0

>  <ligand_id>  (50) 
9

>  <original_smiles>  (50) 
C=C(C)C(O)C12OC(C=C(C)CO)CC3(O)C(=O)C(C)=CC3C13CC(C)CC1(C)C3C3C=C(C)CC1(c1csnn1)OC32

>  <smiles>  (50) 
[H]OC([H])([H])C(=C([H])C1([H])OC2(C([H])(O[H])C(=C([H])[H])C([H])([H])[H])C3([H])OC4(c5nnsc5[H])C([H])([H])C(C([H])([H])[H])=C([H])C3([H])C3([H])C4(C([H])([H])[H])C([H])([H])C([H])(C([H])([H])[H])C([H])([H])C32C2([H])C([H])=C(C([H])([H])[H])C(=O)C2(O[H])C1([H])[H])C([H])([H])[H]

$$$$
9:0:2
     RDKit          3D

 87 93  0  0  1  0  0  0  0  0999 V2000
    3.0897   -0.4300    3.3234 C   0  0  0  0  0  0  0  0  0  0  0  0
    3.3564   -1.7336    3.1200 C   0  0  0  0  0  0  0  0  0  0  0  0
    3.2305   -2.2631    1.7046 C   0  0  0  0  0  0  0  0  0  0  0  0
    3.8281   -2.6705    4.2614 C   0  0  2  0  0  0  0  0  0  0  0  0
    5.1781   -2.9526    3.9882 O   0  0  0  0  0  0  0  0  0  0  0  0
    2.9031   -3.9489    4.6300 C   0  0  2  0  0  0  0  0  0  0  0  0
    1.5966   -3.3990    4.8194 O   0  0  0  0  0  0  0  0  0  0  0  0
    1.4232   -2.2898    5.7484 C   0  0  1  0  0  0  0  0  0  0  0  0
   -0.0695   -1.9718    5.7475 C   0  0  0  0  0  0  0  0  0  0  0  0
   -0.7133   -0.8835    5.2639 C   0  0  0  0  0  0  0  0  0  0  0  0
   -2.2200   -0.7952    5.3318 C   0  0  0  0  0  0  0  0  0  0  0  0
   -0.0761    0.3400    4.6183 C   0  0  0  0  0  0  0  0  0  0  0  0
   -0.5647    0.5488    3.3066 O   0  0  0  0  0  0  0  0  0  0  0  0
    1.9467   -2.3693    7.2301 C   0  0  0  0  0  0  0  0  0  0  0  0
    3.3633   -2.9262    7.6829 C   0  0  2  0  0  0  0  0  0  0  0  0
    3.2263   -3.1360    9.0858 O   0  0  0  0  0  0  0  0  0  0  0  0
    4.5430   -1.9718    7.5432 C   0  0  0  0  0  0  0  0  0  0  0  0
    4.4875   -0.7635    7.8247 O   0  0  0  0  0  0  0  0  0  0  0  0
    5.7160   -2.6871    7.0585 C   0  0  0  0  0  0  0  0  0  0  0  0
    7.0656   -2.0074    6.8934 C   0  0  0  0  0  0  0  0  0  0  0  0
    5.3706   -3.9539    6.7798 C   0  0  0  0  0  0  0  0  0  0  0  0
    3.9240   -4.2824    7.0902 C   0  0  2  0  0  0  0  0  0  0  0  0
    3.0451   -4.9314    5.9657 C   0  0  1  0  0  0  0  0  0  0  0  0
    1.7141   -5.3263    6.8320 C   0  0  0  0  0  0  0  0  0  0  0  0
    1.5536   -6.8374    7.1888 C   0  0  1  0  0  0  0  0  0  0  0  0
    0.3632   -7.0547    8.1399 C   0  0  0  0  0  0  0  0  0  0  0  0
    1.3554   -7.6591    5.8994 C   0  0  0  0  0  0  0  0  0  0  0  0
    2.5606   -7.5140    4.8667 C   0  0  2  0  0  0  0  0  0  0  0  0
    3.3359   -8.8505    5.0068 C   0  0  0  0  0  0  0  0  0  0  0  0
    3.5022   -6.3105    5.2960 C   0  0  2  0  0  0  0  0  0  0  0  0
    4.2576   -5.8245    4.0703 C   0  0  1  0  0  0  0  0  0  0  0  0
    4.9802   -6.7666    3.1301 C   0  0  0  0  0  0  0  0  0  0  0  0
    4.4255   -7.6191    2.2666 C   0  0  0  0  0  0  0  0  0  0  0  0
    5.2681   -8.4369    1.3010 C   0  0  0  0  0  0  0  0  0  0  0  0
    2.9360   -7.8869    2.2001 C   0  0  0  0  0  0  0  0  0  0  0  0
    2.0397   -7.2515    3.3191 C   0  0  1  0  0  0  0  0  0  0  0  0
    0.6381   -7.7713    3.0753 C   0  0  0  0  0  0  0  0  0  0  0  0
    0.2300   -9.0290    2.8154 C   0  0  0  0  0  0  0  0  0  0  0  0
   -1.4725   -9.0566    2.5750 S   0  0  0  0  0  0  0  0  0  0  0  0
   -1.6214   -7.4146    2.8855 N   0  0  0  0  0  0  0  0  0  0  0  0
   -0.4568   -6.8709    3.1027 N   0  0  0  0  0  0  0  0  0  0  0  0
    2.0472   -5.8101    3.0196 O   0  0  0  0  0  0  0  0  0  0  0  0
    3.1705   -4.9637    3.4133 C   0  0  1  0  0  0  0  0  0  0  0  0
    2.7441    0.1941    2.5108 H   0  0  0  0  0  0  0  0  0  0  0  0
    3.2168    0.0333    4.2897 H   0  0  0  0  0  0  0  0  0  0  0  0
    4.1785   -2.6962    1.4046 H   0  0  0  0  0  0  0  0  0  0  0  0
    3.0161   -1.4568    0.9978 H   0  0  0  0  0  0  0  0  0  0  0  0
    2.4363   -3.0032    1.6349 H   0  0  0  0  0  0  0  0  0  0  0  0
    3.9083   -2.0045    5.1054 H   0  0  0  0  0  0  0  0  0  0  0  0
    5.2125   -3.4953    3.2163 H   0  0  0  0  0  0  0  0  0  0  0  0
    1.9018   -1.4130    5.3502 H   0  0  0  0  0  0  0  0  0  0  0  0
   -0.6660   -2.7570    6.1901 H   0  0  0  0  0  0  0  0  0  0  0  0
   -2.5192    0.1084    5.8674 H   0  0  0  0  0  0  0  0  0  0  0  0
   -2.6650   -1.6770    5.7980 H   0  0  0  0  0  0  0  0  0  0  0  0
   -2.6000   -0.7213    4.3149 H   0  0  0  0  0  0  0  0  0  0  0  0
   -0.2775    1.2196    5.2287 H   0  0  0  0  0  0  0  0  0  0  0  0
    0.9937    0.2549    4.5537 H   0  0  0  0  0  0  0  0  0  0  0  0
   -0.1442    1.3098    2.9241 H   0  0  0  0  0  0  0  0  0  0  0  0
    1.9118   -1.3385    7.5864 H   0  0  0  0  0  0  0  0  0  0  0  0
    1.1707   -2.8369    7.8308 H   0  0  0  0  0  0  0  0  0  0  0  0
    2.5096   -3.7337    9.2370 H   0  0  0  0  0  0  0  0  0  0  0  0
    6.9717   -1.1547    6.2189 H   0  0  0  0  0  0  0  0  0  0  0  0
    7.7922   -2.7066    6.5078 H   0  0  0  0  0  0  0  0  0  0  0  0
    7.4264   -1.6398    7.8529 H   0  0  0  0  0  0  0  0  0  0  0  0
    6.0597   -4.6969    6.4034 H   0  0  0  0  0  0  0  0  0  0  0  0
    4.0102   -5.0232    7.8973 H   0  0  0  0  0  0  0  0  0  0  0  0
    1.6854   -4.8503    7.8031 H   0  0  0  0  0  0  0  0  0  0  0  0
    0.8064   -5.0206    6.3075 H   0  0  0  0  0  0  0  0  0  0  0  0
    2.4499   -7.1894    7.7039 H   0  0  0  0  0  0  0  0  0  0  0  0
   -0.5598   -6.7062    7.6835 H   0  0  0  0  0  0  0  0  0  0  0  0
    0.4915   -6.5102    9.0778 H   0  0  0  0  0  0  0  0  0  0  0  0
    0.2399   -8.1110    8.3876 H   0  0  0  0  0  0  0  0  0  0  0  0
    1.1617   -8.7045    6.1304 H   0  0  0  0  0  0  0  0  0  0  0  0
    0.4283   -7.2695    5.4777 H   0  0  0  0  0  0  0  0  0  0  0  0
    4.2983   -8.8754    4.5028 H   0  0  0  0  0  0  0  0  0  0  0  0
    2.7504   -9.6801    4.6119 H   0  0  0  0  0  0  0  0  0  0  0  0
    3.5457   -9.0754    6.0523 H   0  0  0  0  0  0  0  0  0  0  0  0
    2.5165   -6.0705    5.0732 H   0  0  0  0  0  0  0  0  0  0  0  0
    5.0823   -5.2353    4.4341 H   0  0  0  0  0  0  0  0  0  0  0  0
    6.0488   -6.6313    3.1079 H   0  0  0  0  0  0  0  0  0  0  0  0
    5.1367   -9.5032    1.4847 H   0  0  0  0  0  0  0  0  0  0  0  0
    6.3263   -8.2115    1.4126 H   0  0  0  0  0  0  0  0  0  0  0  0
    4.9825   -8.2345    0.2681 H   0  0  0  0  0  0  0  0  0  0  0  0
    2.5707   -7.5644    1.2233 H   0  0  0  0  0  0  0  0  0  0  0  0
    2.8413   -8.9711    2.2161 H   0  0  0  0  0  0  0  0  0  0  0  0
    0.8025   -9.9568    2.6998 H   0  0  0  0  0  0  0  0  0  0  0  0
    3.6119   -4.5545    2.5108 H   0  0  0  0  0  0  0  0  0  0  0  0
  1  2  2  0
  1 44  1  0
  1 45  1  0
  2  3  1  0
  2  4  1  0
  3 46  1  0
  3 47  1  0
  3 48  1  0
  4  5  1  0
  4  6  1  0
  4 49  1  1
  5 50  1  0
  6 23  1  0
  6 43  1  0
  6  7  1  6
  7  8  1  0
  8  9  1  0
  8 14  1  0
  8 51  1  6
  9 10  2  3
  9 52  1  0
 10 11  1  0
 10 12  1  0
 11 53  1  0
 11 54  1  0
 11 55  1  0
 12 13  1  0
 12 56  1  0
 12 57  1  0
 13 58  1  0
 14 15  1  0
 14 59  1  0
 14 60  1  0
 15 22  1  0
 15 16  1  1
 15 17  1  0
 16 61  1  0
 17 18  2  0
 17 19  1  0
 19 20  1  0
 19 21  2  0
 20 62  1  0
 20 63  1  0
 20 64  1  0
 21 22  1  0
 21 65  1  0
 22 23  1  0
 22 66  1  1
 23 30  1  0
 23 24  1  1
 24 25  1  0
 24 67  1  0
 24 68  1  0
 25 26  1  0
 25 27  1  0
 25 69  1  1
 26 70  1  0
 26 71  1  0
 26 72  1  0
 27 28  1  0
 27 73  1  0
 27 74  1  0
 28 36  1  0
 28 29  1  6
 28 30  1  0
 29 75  1  0
 29 76  1  0
 29 77  1  0
 30 31  1  0
 30 78  1  1
 31 43  1  0
 31 32  1  0
 31 79  1  1
 32 33  2  0
 32 80  1  0
 33 34  1  0
 33 35  1  0
 34 81  1  0
 34 82  1  0
 34 83  1  0
 35 36  1  0
 35 84  1  0
 35 85  1  0
 36 37  1  1
 36 42  1  0
 37 41  1  0
 37 38  2  0
 38 39  1  0
 38 86  1  0
 39 40  1  0
 40 41  2  0
 42 43  1  0
 43 87  1  6
M  END
>  <i_m_ct_stereo_status>  (51) 
1

>  <s_m_source_file>  (51) 
/var/tmp/pbs.5076255.sched01/tmpikn618da/06v91y69d.sdf

>  <i_m_source_file_index>  (51) 
19

>  <i_lp_mmshare_version>  (51) 
48012

>  <i_f3d_flags>  (51) 
0

>  <s_epik_input>  (51) 
Tz1DMUMoW0NIM10pPVtDSF1bQ0BIXTJbQ0BdMShbT0hdKVtDSDJdW0NASF0oL1tDSF09QyhcW0NIM10pW0NIMl1bT0hdKU9bQ0BdKFtDQEBdMjM0KShbQ0BASF0oW09IXSlDKD1bQ0gyXSlbQ0gzXSlbQ0BIXTVbQ0BIXTZbQ0BIXTRbQ0BAXShbQ0gzXSkoW0NIMl1bQ0BASF0oW0NIMl0zKVtDSDNdKVtDQEBdKE81KShbQ0gyXUMoPVtDSF02KVtDSDNdKWM3W2NIXXNubjc=

>  <s_epik_cmdline>  (51) 
J2VwaWtfcHl0aG9uJywgJy1waHQnLCAnMi4wJywgJy1waCcsICc3LjAnLCAnLXRuJywgJzgnLCAnLW1hJywgJzIwMCcsICctaW1hZScsICc8aW5maWxlLm1hZT4nLCAnLW9tYWUnLCAnPG91dGZpbGUubWFlPic=

>  <r_lp_tautomer_probability>  (51) 
1

>  <r_epik_Ionization_Penalty>  (51) 
2.48706e-06

>  <r_epik_Ionization_Penalty_Charging>  (51) 
0

>  <r_epik_Ionization_Penalty_Neutral>  (51) 
2.48706e-06

>  <r_epik_State_Penalty>  (51) 
-0

>  <r_epik_Charging_Adjusted_Penalty>  (51) 
0

>  <i_epik_Tot_Q>  (51) 
0

>  <i_epik_Tot_abs_Q>  (51) 
0

>  <s_lp_Force_Field>  (51) 
OPLS3e

>  <r_lp_Energy>  (51) 
204.712

>  <b_lp_Chiralities_Consistent>  (51) 
1

>  <s_lp_Variant>  (51) 
9:0-1

>  <s_i_glide_gridfile>  (51) 
pfpi4k_grid

>  <i_i_glide_lignum>  (51) 
19

>  <i_i_glide_rotatable_bonds>  (51) 
8

>  <r_i_docking_score>  (51) 
-1.74287

>  <r_i_glide_ligand_efficiency>  (51) 
-0.040532

>  <r_i_glide_ligand_efficiency_sa>  (51) 
-0.142

>  <r_i_glide_ligand_efficiency_ln>  (51) 
-0.366058

>  <r_i_glide_gscore>  (51) 
-1.74287

>  <r_i_glide_lipo>  (51) 
-0.235109

>  <r_i_glide_hbond>  (51) 
0

>  <r_i_glide_metal>  (51) 
-0

>  <r_i_glide_rewards>  (51) 
0

>  <r_i_glide_evdw>  (51) 
-27.7884

>  <r_i_glide_ecoul>  (51) 
-0.68635

>  <r_i_glide_erotb>  (51) 
0.160354

>  <r_i_glide_esite>  (51) 
-0.175749

>  <r_i_glide_emodel>  (51) 
-30.3333

>  <r_i_glide_energy>  (51) 
-28.4747

>  <r_i_glide_einternal>  (51) 
2.29854

>  <r_i_glide_intrahb_reward>  (51) 
-0

>  <i_i_glide_confnum>  (51) 
1

>  <i_i_glide_posenum>  (51) 
2

>  <r_i_glide_eff_state_penalty>  (51) 
0

>  <ligand_id>  (51) 
9

>  <original_smiles>  (51) 
C=C(C)C(O)C12OC(C=C(C)CO)CC3(O)C(=O)C(C)=CC3C13CC(C)CC1(C)C3C3C=C(C)CC1(c1csnn1)OC32

>  <smiles>  (51) 
[H]OC([H])([H])C(=C([H])C1([H])OC2(C([H])(O[H])C(=C([H])[H])C([H])([H])[H])C3([H])OC4(c5nnsc5[H])C([H])([H])C(C([H])([H])[H])=C([H])C3([H])C3([H])C4(C([H])([H])[H])C([H])([H])C([H])(C([H])([H])[H])C([H])([H])C32C2([H])C([H])=C(C([H])([H])[H])C(=O)C2(O[H])C1([H])[H])C([H])([H])[H]

$$$$
10:0:0
     RDKit          3D

 26 29  0  0  1  0  0  0  0  0999 V2000
    1.8114    0.4827    1.6491 C   0  0  0  0  0  0  0  0  0  0  0  0
    1.0684    1.6114    1.8248 C   0  0  0  0  0  0  0  0  0  0  0  0
   -0.1800    1.3971    2.9457 S   0  0  0  0  0  0  0  0  0  0  0  0
    0.5586   -0.1136    3.4444 C   0  0  0  0  0  0  0  0  0  0  0  0
    0.1592   -0.8820    4.5332 N   0  0  0  0  0  0  0  0  0  0  0  0
    0.1929   -2.2189    4.5748 C   0  0  0  0  0  0  0  0  0  0  0  0
   -0.2656   -2.7411    5.7011 N   0  0  0  0  0  0  0  0  0  0  0  0
   -0.5909   -1.6444    6.4810 N   0  0  0  0  0  0  0  0  0  0  0  0
   -0.3333   -0.5385    5.7594 C   0  0  0  0  0  0  0  0  0  0  0  0
   -0.5850    0.8347    6.3079 C   0  0  0  0  0  0  0  0  0  0  0  0
    0.1206    1.9616    5.8211 C   0  0  0  0  0  0  0  0  0  0  0  0
   -0.2088    3.2182    6.2396 C   0  0  0  0  0  0  0  0  0  0  0  0
   -1.1395    3.3194    7.2253 N   0  0  0  0  0  0  0  0  0  0  0  0
   -1.5519    4.4732    7.8343 N   0  0  0  0  0  0  0  0  0  0  0  0
   -2.4131    4.0658    8.7396 C   0  0  0  0  0  0  0  0  0  0  0  0
   -2.6066    2.6731    8.7488 C   0  0  0  0  0  0  0  0  0  0  0  0
   -1.7838    2.1885    7.7557 C   0  0  0  0  0  0  0  0  0  0  0  0
   -1.5237    0.9671    7.2676 N   0  0  0  0  0  0  0  0  0  0  0  0
    1.5309   -0.4947    2.6128 N   0  0  0  0  0  0  0  0  0  0  0  0
    2.5426    0.2420    0.8842 H   0  0  0  0  0  0  0  0  0  0  0  0
    1.1319    2.5304    1.2896 H   0  0  0  0  0  0  0  0  0  0  0  0
    0.5268   -2.8288    3.7431 H   0  0  0  0  0  0  0  0  0  0  0  0
    0.9169    1.8729    5.0921 H   0  0  0  0  0  0  0  0  0  0  0  0
    0.2262    4.1354    5.8642 H   0  0  0  0  0  0  0  0  0  0  0  0
   -2.8933    4.7880    9.3781 H   0  0  0  0  0  0  0  0  0  0  0  0
   -3.2652    2.1433    9.4077 H   0  0  0  0  0  0  0  0  0  0  0  0
  1 19  1  0
  1  2  2  0
  1 20  1  0
  2  3  1  0
  2 21  1  0
  3  4  1  0
  4  5  1  0
  4 19  2  0
  5  9  1  0
  5  6  1  0
  6  7  2  0
  6 22  1  0
  7  8  1  0
  8  9  2  0
  9 10  1  0
 10 18  2  0
 10 11  1  0
 11 12  2  0
 11 23  1  0
 12 13  1  0
 12 24  1  0
 13 17  1  0
 13 14  1  0
 14 15  2  0
 15 16  1  0
 15 25  1  0
 16 17  2  0
 16 26  1  0
 17 18  1  0
M  END
>  <i_m_ct_stereo_status>  (52) 
1

>  <s_m_source_file>  (52) 
/var/tmp/pbs.5076255.sched01/tmpikn618da/06v91y69d.sdf

>  <i_m_source_file_index>  (52) 
20

>  <i_lp_mmshare_version>  (52) 
48012

>  <i_f3d_flags>  (52) 
0

>  <s_epik_input>  (52) 
bjFbY0hdW2NIXXNjMS1uMltjSF1ubmMyLWMoW2NIXVtjSF0zKW5jKG4zNClbY0hdW2NIXW40

>  <s_epik_cmdline>  (52) 
J2VwaWtfcHl0aG9uJywgJy1waHQnLCAnMi4wJywgJy1waCcsICc3LjAnLCAnLXRuJywgJzgnLCAnLW1hJywgJzIwMCcsICctaW1hZScsICc8aW5maWxlLm1hZT4nLCAnLW9tYWUnLCAnPG91dGZpbGUubWFlPic=

>  <r_lp_tautomer_probability>  (52) 
1

>  <r_epik_Ionization_Penalty>  (52) 
2.16322e-07

>  <r_epik_Ionization_Penalty_Charging>  (52) 
0

>  <r_epik_Ionization_Penalty_Neutral>  (52) 
2.16322e-07

>  <r_epik_State_Penalty>  (52) 
-0

>  <r_epik_Charging_Adjusted_Penalty>  (52) 
0

>  <i_epik_Tot_Q>  (52) 
0

>  <i_epik_Tot_abs_Q>  (52) 
0

>  <s_lp_Force_Field>  (52) 
OPLS3e

>  <r_lp_Energy>  (52) 
21.7565

>  <b_lp_Chiralities_Consistent>  (52) 
1

>  <s_lp_Variant>  (52) 
10:0-1

>  <s_i_glide_gridfile>  (52) 
pfpi4k_grid

>  <i_i_glide_lignum>  (52) 
20

>  <i_i_glide_rotatable_bonds>  (52) 
2

>  <r_i_docking_score>  (52) 
-3.53179

>  <r_i_glide_ligand_efficiency>  (52) 
-0.185884

>  <r_i_glide_ligand_efficiency_sa>  (52) 
-0.496012

>  <r_i_glide_ligand_efficiency_ln>  (52) 
-0.895384

>  <r_i_glide_gscore>  (52) 
-3.53179

>  <r_i_glide_lipo>  (52) 
-0.0219211

>  <r_i_glide_hbond>  (52) 
-0.16

>  <r_i_glide_metal>  (52) 
-0

>  <r_i_glide_rewards>  (52) 
-1.65593

>  <r_i_glide_evdw>  (52) 
-19.7717

>  <r_i_glide_ecoul>  (52) 
-6.94884

>  <r_i_glide_erotb>  (52) 
0.492741

>  <r_i_glide_esite>  (52) 
-0.155764

>  <r_i_glide_emodel>  (52) 
-29.4758

>  <r_i_glide_energy>  (52) 
-26.7206

>  <r_i_glide_einternal>  (52) 
3.74556

>  <r_i_glide_intrahb_reward>  (52) 
-0

>  <i_i_glide_confnum>  (52) 
5

>  <i_i_glide_posenum>  (52) 
40

>  <r_i_glide_eff_state_penalty>  (52) 
0

>  <ligand_id>  (52) 
10

>  <original_smiles>  (52) 
c1csc(-n2cnnc2-c2ccn3nccc3n2)n1

>  <smiles>  (52) 
[H]c1nc(-n2c([H])nnc2-c2nc3c([H])c([H])nn3c([H])c2[H])sc1[H]

$$$$
10:0:1
     RDKit          3D

 26 29  0  0  1  0  0  0  0  0999 V2000
    2.9050   -1.2012    1.5446 C   0  0  0  0  0  0  0  0  0  0  0  0
    2.6026    0.1383    1.7420 C   0  0  0  0  0  0  0  0  0  0  0  0
    1.7796    0.3245    3.2462 S   0  0  0  0  0  0  0  0  0  0  0  0
    1.5224   -1.4253    3.3218 C   0  0  0  0  0  0  0  0  0  0  0  0
    0.7512   -2.0914    4.2864 N   0  0  0  0  0  0  0  0  0  0  0  0
    0.8531   -3.4076    4.5911 C   0  0  0  0  0  0  0  0  0  0  0  0
    0.0799   -3.8103    5.5870 N   0  0  0  0  0  0  0  0  0  0  0  0
   -0.6113   -2.6736    5.9646 N   0  0  0  0  0  0  0  0  0  0  0  0
   -0.2066   -1.6691    5.1700 C   0  0  0  0  0  0  0  0  0  0  0  0
   -0.8090   -0.3080    5.2702 C   0  0  0  0  0  0  0  0  0  0  0  0
   -1.0217    0.4993    4.1148 C   0  0  0  0  0  0  0  0  0  0  0  0
   -1.4217    1.8112    4.2492 C   0  0  0  0  0  0  0  0  0  0  0  0
   -1.7912    2.2228    5.4849 N   0  0  0  0  0  0  0  0  0  0  0  0
   -2.3298    3.4336    5.7987 N   0  0  0  0  0  0  0  0  0  0  0  0
   -2.5716    3.3336    7.0834 C   0  0  0  0  0  0  0  0  0  0  0  0
   -2.2018    2.0872    7.6454 C   0  0  0  0  0  0  0  0  0  0  0  0
   -1.6823    1.3655    6.5981 C   0  0  0  0  0  0  0  0  0  0  0  0
   -1.1692    0.1213    6.4995 N   0  0  0  0  0  0  0  0  0  0  0  0
    2.2624   -2.0711    2.4159 N   0  0  0  0  0  0  0  0  0  0  0  0
    3.5717   -1.5925    0.7875 H   0  0  0  0  0  0  0  0  0  0  0  0
    2.8699    1.0127    1.2246 H   0  0  0  0  0  0  0  0  0  0  0  0
    1.5301   -4.0833    4.0792 H   0  0  0  0  0  0  0  0  0  0  0  0
   -0.7904    0.1566    3.1316 H   0  0  0  0  0  0  0  0  0  0  0  0
   -1.4832    2.5155    3.4216 H   0  0  0  0  0  0  0  0  0  0  0  0
   -3.0106    4.1735    7.6027 H   0  0  0  0  0  0  0  0  0  0  0  0
   -2.3103    1.8160    8.6822 H   0  0  0  0  0  0  0  0  0  0  0  0
  1 19  1  0
  1  2  2  0
  1 20  1  0
  2  3  1  0
  2 21  1  0
  3  4  1  0
  4  5  1  0
  4 19  2  0
  5  9  1  0
  5  6  1  0
  6  7  2  0
  6 22  1  0
  7  8  1  0
  8  9  2  0
  9 10  1  0
 10 18  2  0
 10 11  1  0
 11 12  2  0
 11 23  1  0
 12 13  1  0
 12 24  1  0
 13 17  1  0
 13 14  1  0
 14 15  2  0
 15 16  1  0
 15 25  1  0
 16 17  2  0
 16 26  1  0
 17 18  1  0
M  END
>  <i_m_ct_stereo_status>  (53) 
1

>  <s_m_source_file>  (53) 
/var/tmp/pbs.5076255.sched01/tmpikn618da/06v91y69d.sdf

>  <i_m_source_file_index>  (53) 
20

>  <i_lp_mmshare_version>  (53) 
48012

>  <i_f3d_flags>  (53) 
0

>  <s_epik_input>  (53) 
bjFbY0hdW2NIXXNjMS1uMltjSF1ubmMyLWMoW2NIXVtjSF0zKW5jKG4zNClbY0hdW2NIXW40

>  <s_epik_cmdline>  (53) 
J2VwaWtfcHl0aG9uJywgJy1waHQnLCAnMi4wJywgJy1waCcsICc3LjAnLCAnLXRuJywgJzgnLCAnLW1hJywgJzIwMCcsICctaW1hZScsICc8aW5maWxlLm1hZT4nLCAnLW9tYWUnLCAnPG91dGZpbGUubWFlPic=

>  <r_lp_tautomer_probability>  (53) 
1

>  <r_epik_Ionization_Penalty>  (53) 
2.16322e-07

>  <r_epik_Ionization_Penalty_Charging>  (53) 
0

>  <r_epik_Ionization_Penalty_Neutral>  (53) 
2.16322e-07

>  <r_epik_State_Penalty>  (53) 
-0

>  <r_epik_Charging_Adjusted_Penalty>  (53) 
0

>  <i_epik_Tot_Q>  (53) 
0

>  <i_epik_Tot_abs_Q>  (53) 
0

>  <s_lp_Force_Field>  (53) 
OPLS3e

>  <r_lp_Energy>  (53) 
21.7565

>  <b_lp_Chiralities_Consistent>  (53) 
1

>  <s_lp_Variant>  (53) 
10:0-1

>  <s_i_glide_gridfile>  (53) 
pfpi4k_grid

>  <i_i_glide_lignum>  (53) 
20

>  <i_i_glide_rotatable_bonds>  (53) 
2

>  <r_i_docking_score>  (53) 
-3.3745

>  <r_i_glide_ligand_efficiency>  (53) 
-0.177605

>  <r_i_glide_ligand_efficiency_sa>  (53) 
-0.473922

>  <r_i_glide_ligand_efficiency_ln>  (53) 
-0.855508

>  <r_i_glide_gscore>  (53) 
-3.3745

>  <r_i_glide_lipo>  (53) 
-0.123071

>  <r_i_glide_hbond>  (53) 
-0.130949

>  <r_i_glide_metal>  (53) 
-0

>  <r_i_glide_rewards>  (53) 
-1.62655

>  <r_i_glide_evdw>  (53) 
-21.9224

>  <r_i_glide_ecoul>  (53) 
-5.22531

>  <r_i_glide_erotb>  (53) 
0.492741

>  <r_i_glide_esite>  (53) 
-0.106755

>  <r_i_glide_emodel>  (53) 
-30.0286

>  <r_i_glide_energy>  (53) 
-27.1477

>  <r_i_glide_einternal>  (53) 
3.57789

>  <r_i_glide_intrahb_reward>  (53) 
-0

>  <i_i_glide_confnum>  (53) 
3

>  <i_i_glide_posenum>  (53) 
25

>  <r_i_glide_eff_state_penalty>  (53) 
0

>  <ligand_id>  (53) 
10

>  <original_smiles>  (53) 
c1csc(-n2cnnc2-c2ccn3nccc3n2)n1

>  <smiles>  (53) 
[H]c1nc(-n2c([H])nnc2-c2nc3c([H])c([H])nn3c([H])c2[H])sc1[H]

$$$$
10:0:2
     RDKit          3D

 26 29  0  0  1  0  0  0  0  0999 V2000
    2.2557    0.3895    1.9566 C   0  0  0  0  0  0  0  0  0  0  0  0
    0.9219    0.1756    2.0452 C   0  0  0  0  0  0  0  0  0  0  0  0
    0.0917    1.5763    2.5077 S   0  0  0  0  0  0  0  0  0  0  0  0
    1.6158    2.4057    2.8017 C   0  0  0  0  0  0  0  0  0  0  0  0
    1.7622    3.7303    3.2980 N   0  0  0  0  0  0  0  0  0  0  0  0
    2.7254    4.5956    2.9185 C   0  0  0  0  0  0  0  0  0  0  0  0
    2.6864    5.7753    3.5092 N   0  0  0  0  0  0  0  0  0  0  0  0
    1.5988    5.6933    4.3614 N   0  0  0  0  0  0  0  0  0  0  0  0
    1.0805    4.4625    4.2303 C   0  0  0  0  0  0  0  0  0  0  0  0
   -0.0973    4.0360    5.0650 C   0  0  0  0  0  0  0  0  0  0  0  0
   -1.2056    3.3555    4.4807 C   0  0  0  0  0  0  0  0  0  0  0  0
   -2.1835    2.8095    5.2589 C   0  0  0  0  0  0  0  0  0  0  0  0
   -2.1873    3.1449    6.5408 N   0  0  0  0  0  0  0  0  0  0  0  0
   -3.1540    2.8278    7.4687 N   0  0  0  0  0  0  0  0  0  0  0  0
   -2.7597    3.4313    8.5516 C   0  0  0  0  0  0  0  0  0  0  0  0
   -1.5348    4.1410    8.3890 C   0  0  0  0  0  0  0  0  0  0  0  0
   -1.1690    3.9538    7.1202 C   0  0  0  0  0  0  0  0  0  0  0  0
   -0.0970    4.3589    6.3433 N   0  0  0  0  0  0  0  0  0  0  0  0
    2.6467    1.6597    2.4212 N   0  0  0  0  0  0  0  0  0  0  0  0
    2.9989   -0.2972    1.5810 H   0  0  0  0  0  0  0  0  0  0  0  0
    0.2879   -0.6612    1.7629 H   0  0  0  0  0  0  0  0  0  0  0  0
    3.4904    4.3452    2.1903 H   0  0  0  0  0  0  0  0  0  0  0  0
   -1.3389    3.2542    3.4221 H   0  0  0  0  0  0  0  0  0  0  0  0
   -2.9610    2.1913    4.8526 H   0  0  0  0  0  0  0  0  0  0  0  0
   -3.3528    3.3460    9.4476 H   0  0  0  0  0  0  0  0  0  0  0  0
   -1.0252    4.6983    9.1678 H   0  0  0  0  0  0  0  0  0  0  0  0
  1 19  1  0
  1  2  2  0
  1 20  1  0
  2  3  1  0
  2 21  1  0
  3  4  1  0
  4  5  1  0
  4 19  2  0
  5  9  1  0
  5  6  1  0
  6  7  2  0
  6 22  1  0
  7  8  1  0
  8  9  2  0
  9 10  1  0
 10 18  2  0
 10 11  1  0
 11 12  2  0
 11 23  1  0
 12 13  1  0
 12 24  1  0
 13 17  1  0
 13 14  1  0
 14 15  2  0
 15 16  1  0
 15 25  1  0
 16 17  2  0
 16 26  1  0
 17 18  1  0
M  END
>  <i_m_ct_stereo_status>  (54) 
1

>  <s_m_source_file>  (54) 
/var/tmp/pbs.5076255.sched01/tmpikn618da/06v91y69d.sdf

>  <i_m_source_file_index>  (54) 
20

>  <i_lp_mmshare_version>  (54) 
48012

>  <i_f3d_flags>  (54) 
0

>  <s_epik_input>  (54) 
bjFbY0hdW2NIXXNjMS1uMltjSF1ubmMyLWMoW2NIXVtjSF0zKW5jKG4zNClbY0hdW2NIXW40

>  <s_epik_cmdline>  (54) 
J2VwaWtfcHl0aG9uJywgJy1waHQnLCAnMi4wJywgJy1waCcsICc3LjAnLCAnLXRuJywgJzgnLCAnLW1hJywgJzIwMCcsICctaW1hZScsICc8aW5maWxlLm1hZT4nLCAnLW9tYWUnLCAnPG91dGZpbGUubWFlPic=

>  <r_lp_tautomer_probability>  (54) 
1

>  <r_epik_Ionization_Penalty>  (54) 
2.16322e-07

>  <r_epik_Ionization_Penalty_Charging>  (54) 
0

>  <r_epik_Ionization_Penalty_Neutral>  (54) 
2.16322e-07

>  <r_epik_State_Penalty>  (54) 
-0

>  <r_epik_Charging_Adjusted_Penalty>  (54) 
0

>  <i_epik_Tot_Q>  (54) 
0

>  <i_epik_Tot_abs_Q>  (54) 
0

>  <s_lp_Force_Field>  (54) 
OPLS3e

>  <r_lp_Energy>  (54) 
21.7565

>  <b_lp_Chiralities_Consistent>  (54) 
1

>  <s_lp_Variant>  (54) 
10:0-1

>  <s_i_glide_gridfile>  (54) 
pfpi4k_grid

>  <i_i_glide_lignum>  (54) 
20

>  <i_i_glide_rotatable_bonds>  (54) 
2

>  <r_i_docking_score>  (54) 
-3.21783

>  <r_i_glide_ligand_efficiency>  (54) 
-0.16936

>  <r_i_glide_ligand_efficiency_sa>  (54) 
-0.451919

>  <r_i_glide_ligand_efficiency_ln>  (54) 
-0.815789

>  <r_i_glide_gscore>  (54) 
-3.21783

>  <r_i_glide_lipo>  (54) 
-0.0714069

>  <r_i_glide_hbond>  (54) 
0

>  <r_i_glide_metal>  (54) 
-0

>  <r_i_glide_rewards>  (54) 
-1.71248

>  <r_i_glide_evdw>  (54) 
-25.1572

>  <r_i_glide_ecoul>  (54) 
-3.2214

>  <r_i_glide_erotb>  (54) 
0.492741

>  <r_i_glide_esite>  (54) 
-0.185612

>  <r_i_glide_emodel>  (54) 
-30.0042

>  <r_i_glide_energy>  (54) 
-28.3786

>  <r_i_glide_einternal>  (54) 
3.91656

>  <r_i_glide_intrahb_reward>  (54) 
-0

>  <i_i_glide_confnum>  (54) 
2

>  <i_i_glide_posenum>  (54) 
4

>  <r_i_glide_eff_state_penalty>  (54) 
0

>  <ligand_id>  (54) 
10

>  <original_smiles>  (54) 
c1csc(-n2cnnc2-c2ccn3nccc3n2)n1

>  <smiles>  (54) 
[H]c1nc(-n2c([H])nnc2-c2nc3c([H])c([H])nn3c([H])c2[H])sc1[H]

$$$$
11:0:0
     RDKit          3D

 45 48  0  0  1  0  0  0  0  0999 V2000
    4.7675   -1.0511   -1.6035 C   0  0  0  0  0  0  0  0  0  0  0  0
    4.7780   -2.5889   -1.5896 C   0  0  2  0  0  0  0  0  0  0  0  0
    3.3354   -3.1320   -1.6759 C   0  0  0  0  0  0  0  0  0  0  0  0
    2.8262   -3.7878   -0.3927 C   0  0  0  0  0  0  0  0  0  0  0  0
    3.8290   -4.8353    0.0845 C   0  0  2  0  0  0  0  0  0  0  0  0
    3.2108   -5.7159    1.0022 O   0  0  0  0  0  0  0  0  0  0  0  0
    4.1402   -6.3354    1.8673 C   0  0  2  0  0  0  0  0  0  0  0  0
    3.6244   -7.7581    2.1276 C   0  0  0  0  0  0  0  0  0  0  0  0
    4.1664   -5.5205    3.1682 C   0  0  0  0  0  0  0  0  0  0  0  0
    4.1181   -4.0000    2.9522 C   0  0  0  0  0  0  0  0  0  0  0  0
    5.1701   -3.4690    1.9640 C   0  0  2  0  0  0  0  0  0  0  0  0
    5.1700   -1.9281    1.8078 C   0  0  1  0  0  0  0  0  0  0  0  0
    5.0362   -1.1409    3.1238 C   0  0  0  0  0  0  0  0  0  0  0  0
    6.4193   -1.4540    1.0244 C   0  0  0  0  0  0  0  0  0  0  0  0
    6.8983   -2.4575   -0.0427 C   0  0  0  0  0  0  0  0  0  0  0  0
    5.7534   -3.3289   -0.5882 C   0  0  1  0  0  0  0  0  0  0  0  0
    5.1449   -4.1943    0.5727 C   0  0  2  0  0  0  0  0  0  0  0  0
    6.0738   -5.2683    0.7288 O   0  0  0  0  0  0  0  0  0  0  0  0
    5.4293   -6.5473    1.2850 O   0  0  0  0  0  0  0  0  0  0  0  0
    4.3122   -0.6196   -0.7136 H   0  0  0  0  0  0  0  0  0  0  0  0
    4.2001   -0.6800   -2.4580 H   0  0  0  0  0  0  0  0  0  0  0  0
    5.7720   -0.6503   -1.7192 H   0  0  0  0  0  0  0  0  0  0  0  0
    5.1996   -2.8128   -2.5743 H   0  0  0  0  0  0  0  0  0  0  0  0
    2.6404   -2.3367   -1.9409 H   0  0  0  0  0  0  0  0  0  0  0  0
    3.2817   -3.8572   -2.4892 H   0  0  0  0  0  0  0  0  0  0  0  0
    2.6428   -3.0390    0.3803 H   0  0  0  0  0  0  0  0  0  0  0  0
    1.8661   -4.2630   -0.5962 H   0  0  0  0  0  0  0  0  0  0  0  0
    4.1023   -5.4704   -0.7505 H   0  0  0  0  0  0  0  0  0  0  0  0
    3.6319   -8.3458    1.2064 H   0  0  0  0  0  0  0  0  0  0  0  0
    2.6029   -7.7621    2.5122 H   0  0  0  0  0  0  0  0  0  0  0  0
    4.2536   -8.2813    2.8533 H   0  0  0  0  0  0  0  0  0  0  0  0
    3.2863   -5.7786    3.7614 H   0  0  0  0  0  0  0  0  0  0  0  0
    5.0294   -5.8082    3.7700 H   0  0  0  0  0  0  0  0  0  0  0  0
    3.1244   -3.7032    2.6178 H   0  0  0  0  0  0  0  0  0  0  0  0
    4.2558   -3.5402    3.9289 H   0  0  0  0  0  0  0  0  0  0  0  0
    6.1314   -3.7072    2.4189 H   0  0  0  0  0  0  0  0  0  0  0  0
    4.2927   -1.6742    1.2262 H   0  0  0  0  0  0  0  0  0  0  0  0
    5.8118   -1.4232    3.8335 H   0  0  0  0  0  0  0  0  0  0  0  0
    4.0625   -1.2968    3.5950 H   0  0  0  0  0  0  0  0  0  0  0  0
    5.1255   -0.0689    2.9405 H   0  0  0  0  0  0  0  0  0  0  0  0
    6.2011   -0.4858    0.5799 H   0  0  0  0  0  0  0  0  0  0  0  0
    7.2540   -1.2505    1.6849 H   0  0  0  0  0  0  0  0  0  0  0  0
    7.4340   -1.9457   -0.8400 H   0  0  0  0  0  0  0  0  0  0  0  0
    7.6315   -3.1233    0.4162 H   0  0  0  0  0  0  0  0  0  0  0  0
    6.2292   -4.0616   -1.2396 H   0  0  0  0  0  0  0  0  0  0  0  0
  1  2  1  0
  1 20  1  0
  1 21  1  0
  1 22  1  0
  2 16  1  0
  2  3  1  0
  2 23  1  6
  3  4  1  0
  3 24  1  0
  3 25  1  0
  4  5  1  0
  4 26  1  0
  4 27  1  0
  5 17  1  0
  5  6  1  0
  5 28  1  6
  6  7  1  0
  7 19  1  0
  7  8  1  1
  7  9  1  0
  8 29  1  0
  8 30  1  0
  8 31  1  0
  9 10  1  0
  9 32  1  0
  9 33  1  0
 10 11  1  0
 10 34  1  0
 10 35  1  0
 11 17  1  0
 11 12  1  0
 11 36  1  1
 12 13  1  0
 12 14  1  0
 12 37  1  6
 13 38  1  0
 13 39  1  0
 13 40  1  0
 14 15  1  0
 14 41  1  0
 14 42  1  0
 15 16  1  0
 15 43  1  0
 15 44  1  0
 16 17  1  0
 16 45  1  6
 17 18  1  1
 18 19  1  0
M  END
>  <i_m_ct_stereo_status>  (55) 
1

>  <s_m_source_file>  (55) 
/var/tmp/pbs.5076255.sched01/tmpikn618da/06v91y69d.sdf

>  <i_m_source_file_index>  (55) 
21

>  <i_lp_mmshare_version>  (55) 
48012

>  <i_f3d_flags>  (55) 
0

>  <s_epik_input>  (55) 
W0NAQF0xMjNbQ0BASF00W0NIMl1bQ0gyXVtDQEBIXShbQ0gzXSlbQ0BIXTJbQ0gyXVtDSDJdW0NASF0oW0NIM10pW0NASF0xW0NIMl1bQ0gyXVtDQF0oTzQpKFtDSDNdKU9PMw==

>  <s_epik_cmdline>  (55) 
J2VwaWtfcHl0aG9uJywgJy1waHQnLCAnMi4wJywgJy1waCcsICc3LjAnLCAnLXRuJywgJzgnLCAnLW1hJywgJzIwMCcsICctaW1hZScsICc8aW5maWxlLm1hZT4nLCAnLW9tYWUnLCAnPG91dGZpbGUubWFlPic=

>  <r_lp_tautomer_probability>  (55) 
1

>  <r_epik_Ionization_Penalty>  (55) 
3.45998e-14

>  <r_epik_Ionization_Penalty_Charging>  (55) 
0

>  <r_epik_Ionization_Penalty_Neutral>  (55) 
3.45998e-14

>  <r_epik_State_Penalty>  (55) 
-0

>  <r_epik_Charging_Adjusted_Penalty>  (55) 
0

>  <i_epik_Tot_Q>  (55) 
0

>  <i_epik_Tot_abs_Q>  (55) 
0

>  <s_lp_Force_Field>  (55) 
OPLS3e

>  <r_lp_Energy>  (55) 
50.758

>  <b_lp_Chiralities_Consistent>  (55) 
1

>  <s_lp_Variant>  (55) 
11:0-1

>  <s_i_glide_gridfile>  (55) 
pfpi4k_grid

>  <i_i_glide_lignum>  (55) 
21

>  <i_i_glide_rotatable_bonds>  (55) 
0

>  <r_i_docking_score>  (55) 
-3.26271

>  <r_i_glide_ligand_efficiency>  (55) 
-0.171721

>  <r_i_glide_ligand_efficiency_sa>  (55) 
-0.458222

>  <r_i_glide_ligand_efficiency_ln>  (55) 
-0.827167

>  <r_i_glide_gscore>  (55) 
-3.26271

>  <r_i_glide_lipo>  (55) 
-0.464326

>  <r_i_glide_hbond>  (55) 
0

>  <r_i_glide_metal>  (55) 
-0

>  <r_i_glide_rewards>  (55) 
-1.63886

>  <r_i_glide_evdw>  (55) 
-21.5811

>  <r_i_glide_ecoul>  (55) 
-0.536472

>  <r_i_glide_erotb>  (55) 
0

>  <r_i_glide_esite>  (55) 
0

>  <r_i_glide_emodel>  (55) 
-25.9333

>  <r_i_glide_energy>  (55) 
-22.1176

>  <r_i_glide_einternal>  (55) 
0

>  <r_i_glide_intrahb_reward>  (55) 
-0

>  <i_i_glide_confnum>  (55) 
2

>  <i_i_glide_posenum>  (55) 
20

>  <r_i_glide_eff_state_penalty>  (55) 
0

>  <ligand_id>  (55) 
11

>  <original_smiles>  (55) 
CC1CCC2OC3(C)CCC4C(C)CCC1C24OO3

>  <smiles>  (55) 
[H]C([H])([H])C12OOC34C([H])(O1)C([H])([H])C([H])([H])C([H])(C([H])([H])[H])C3([H])C([H])([H])C([H])([H])C([H])(C([H])([H])[H])C4([H])C([H])([H])C2([H])[H]

$$$$
11:0:1
     RDKit          3D

 45 48  0  0  1  0  0  0  0  0999 V2000
    4.2972   -1.4755   -2.9885 C   0  0  0  0  0  0  0  0  0  0  0  0
    4.1857   -2.9157   -2.4628 C   0  0  2  0  0  0  0  0  0  0  0  0
    2.7082   -3.3448   -2.4234 C   0  0  0  0  0  0  0  0  0  0  0  0
    2.1760   -3.4990   -1.0052 C   0  0  0  0  0  0  0  0  0  0  0  0
    3.0482   -4.4041   -0.1702 C   0  0  2  0  0  0  0  0  0  0  0  0
    2.3109   -4.7542    0.9979 O   0  0  0  0  0  0  0  0  0  0  0  0
    3.1529   -5.0764    2.0895 C   0  0  2  0  0  0  0  0  0  0  0  0
    2.4894   -6.2428    2.8233 C   0  0  0  0  0  0  0  0  0  0  0  0
    3.2263   -3.8423    3.0109 C   0  0  0  0  0  0  0  0  0  0  0  0
    3.3279   -2.5200    2.2539 C   0  0  0  0  0  0  0  0  0  0  0  0
    4.4298   -2.5114    1.1871 C   0  0  2  0  0  0  0  0  0  0  0  0
    4.5760   -1.1256    0.5093 C   0  0  1  0  0  0  0  0  0  0  0  0
    4.4862    0.0821    1.4480 C   0  0  0  0  0  0  0  0  0  0  0  0
    5.8817   -1.0746   -0.3083 C   0  0  0  0  0  0  0  0  0  0  0  0
    6.2886   -2.4193   -0.9459 C   0  0  0  0  0  0  0  0  0  0  0  0
    5.0770   -3.3296   -1.2175 C   0  0  1  0  0  0  0  0  0  0  0  0
    4.3819   -3.6896    0.1398 C   0  0  2  0  0  0  0  0  0  0  0  0
    5.2044   -4.6722    0.7659 O   0  0  0  0  0  0  0  0  0  0  0  0
    4.4265   -5.5993    1.6862 O   0  0  0  0  0  0  0  0  0  0  0  0
    3.8462   -0.7152   -2.3530 H   0  0  0  0  0  0  0  0  0  0  0  0
    3.8261   -1.3882   -3.9701 H   0  0  0  0  0  0  0  0  0  0  0  0
    5.3401   -1.2334   -3.1180 H   0  0  0  0  0  0  0  0  0  0  0  0
    4.6005   -3.5010   -3.2807 H   0  0  0  0  0  0  0  0  0  0  0  0
    2.0910   -2.5789   -2.9056 H   0  0  0  0  0  0  0  0  0  0  0  0
    2.5210   -4.2147   -3.0270 H   0  0  0  0  0  0  0  0  0  0  0  0
    2.2055   -2.5416   -0.4847 H   0  0  0  0  0  0  0  0  0  0  0  0
    1.1602   -3.8737   -1.1138 H   0  0  0  0  0  0  0  0  0  0  0  0
    3.2611   -5.3282   -0.6956 H   0  0  0  0  0  0  0  0  0  0  0  0
    2.4543   -7.1160    2.1722 H   0  0  0  0  0  0  0  0  0  0  0  0
    1.4698   -6.0087    3.1334 H   0  0  0  0  0  0  0  0  0  0  0  0
    3.0623   -6.5094    3.7141 H   0  0  0  0  0  0  0  0  0  0  0  0
    2.3194   -3.7869    3.6161 H   0  0  0  0  0  0  0  0  0  0  0  0
    4.0544   -3.9577    3.7119 H   0  0  0  0  0  0  0  0  0  0  0  0
    2.3742   -2.2687    1.7912 H   0  0  0  0  0  0  0  0  0  0  0  0
    3.5009   -1.7502    3.0056 H   0  0  0  0  0  0  0  0  0  0  0  0
    5.3584   -2.6212    1.7491 H   0  0  0  0  0  0  0  0  0  0  0  0
    3.7433   -1.0284   -0.1792 H   0  0  0  0  0  0  0  0  0  0  0  0
    5.2779    0.0373    2.1936 H   0  0  0  0  0  0  0  0  0  0  0  0
    3.5099    0.1820    1.9265 H   0  0  0  0  0  0  0  0  0  0  0  0
    4.6481    0.9779    0.8660 H   0  0  0  0  0  0  0  0  0  0  0  0
    5.7625   -0.3013   -1.0731 H   0  0  0  0  0  0  0  0  0  0  0  0
    6.6977   -0.7150    0.3282 H   0  0  0  0  0  0  0  0  0  0  0  0
    6.8593   -2.2594   -1.8597 H   0  0  0  0  0  0  0  0  0  0  0  0
    6.9617   -2.9532   -0.2677 H   0  0  0  0  0  0  0  0  0  0  0  0
    5.4854   -4.2866   -1.5355 H   0  0  0  0  0  0  0  0  0  0  0  0
  1  2  1  0
  1 20  1  0
  1 21  1  0
  1 22  1  0
  2 16  1  0
  2  3  1  0
  2 23  1  6
  3  4  1  0
  3 24  1  0
  3 25  1  0
  4  5  1  0
  4 26  1  0
  4 27  1  0
  5 17  1  0
  5  6  1  0
  5 28  1  6
  6  7  1  0
  7 19  1  0
  7  8  1  1
  7  9  1  0
  8 29  1  0
  8 30  1  0
  8 31  1  0
  9 10  1  0
  9 32  1  0
  9 33  1  0
 10 11  1  0
 10 34  1  0
 10 35  1  0
 11 17  1  0
 11 12  1  0
 11 36  1  1
 12 13  1  0
 12 14  1  0
 12 37  1  6
 13 38  1  0
 13 39  1  0
 13 40  1  0
 14 15  1  0
 14 41  1  0
 14 42  1  0
 15 16  1  0
 15 43  1  0
 15 44  1  0
 16 17  1  0
 16 45  1  6
 17 18  1  1
 18 19  1  0
M  END
>  <i_m_ct_stereo_status>  (56) 
1

>  <s_m_source_file>  (56) 
/var/tmp/pbs.5076255.sched01/tmpikn618da/06v91y69d.sdf

>  <i_m_source_file_index>  (56) 
21

>  <i_lp_mmshare_version>  (56) 
48012

>  <i_f3d_flags>  (56) 
0

>  <s_epik_input>  (56) 
W0NAQF0xMjNbQ0BASF00W0NIMl1bQ0gyXVtDQEBIXShbQ0gzXSlbQ0BIXTJbQ0gyXVtDSDJdW0NASF0oW0NIM10pW0NASF0xW0NIMl1bQ0gyXVtDQF0oTzQpKFtDSDNdKU9PMw==

>  <s_epik_cmdline>  (56) 
J2VwaWtfcHl0aG9uJywgJy1waHQnLCAnMi4wJywgJy1waCcsICc3LjAnLCAnLXRuJywgJzgnLCAnLW1hJywgJzIwMCcsICctaW1hZScsICc8aW5maWxlLm1hZT4nLCAnLW9tYWUnLCAnPG91dGZpbGUubWFlPic=

>  <r_lp_tautomer_probability>  (56) 
1

>  <r_epik_Ionization_Penalty>  (56) 
3.45998e-14

>  <r_epik_Ionization_Penalty_Charging>  (56) 
0

>  <r_epik_Ionization_Penalty_Neutral>  (56) 
3.45998e-14

>  <r_epik_State_Penalty>  (56) 
-0

>  <r_epik_Charging_Adjusted_Penalty>  (56) 
0

>  <i_epik_Tot_Q>  (56) 
0

>  <i_epik_Tot_abs_Q>  (56) 
0

>  <s_lp_Force_Field>  (56) 
OPLS3e

>  <r_lp_Energy>  (56) 
50.758

>  <b_lp_Chiralities_Consistent>  (56) 
1

>  <s_lp_Variant>  (56) 
11:0-1

>  <s_i_glide_gridfile>  (56) 
pfpi4k_grid

>  <i_i_glide_lignum>  (56) 
21

>  <i_i_glide_rotatable_bonds>  (56) 
0

>  <r_i_docking_score>  (56) 
-2.81626

>  <r_i_glide_ligand_efficiency>  (56) 
-0.148224

>  <r_i_glide_ligand_efficiency_sa>  (56) 
-0.395522

>  <r_i_glide_ligand_efficiency_ln>  (56) 
-0.713982

>  <r_i_glide_gscore>  (56) 
-2.81626

>  <r_i_glide_lipo>  (56) 
-0.254611

>  <r_i_glide_hbond>  (56) 
-0.005517

>  <r_i_glide_metal>  (56) 
-0

>  <r_i_glide_rewards>  (56) 
-1.59409

>  <r_i_glide_evdw>  (56) 
-15.1494

>  <r_i_glide_ecoul>  (56) 
-1.3638

>  <r_i_glide_erotb>  (56) 
0

>  <r_i_glide_esite>  (56) 
0

>  <r_i_glide_emodel>  (56) 
-19.4624

>  <r_i_glide_energy>  (56) 
-16.5132

>  <r_i_glide_einternal>  (56) 
0

>  <r_i_glide_intrahb_reward>  (56) 
-0

>  <i_i_glide_confnum>  (56) 
1

>  <i_i_glide_posenum>  (56) 
1

>  <r_i_glide_eff_state_penalty>  (56) 
0

>  <ligand_id>  (56) 
11

>  <original_smiles>  (56) 
CC1CCC2OC3(C)CCC4C(C)CCC1C24OO3

>  <smiles>  (56) 
[H]C([H])([H])C12OOC34C([H])(O1)C([H])([H])C([H])([H])C([H])(C([H])([H])[H])C3([H])C([H])([H])C([H])([H])C([H])(C([H])([H])[H])C4([H])C([H])([H])C2([H])[H]

$$$$
12:0:0
     RDKit          3D

 44 49  0  0  1  0  0  0  0  0999 V2000
    3.2865   -1.9973    4.6843 C   0  0  0  0  0  0  0  0  0  0  0  0
    2.4913   -2.2281    5.8439 O   0  0  0  0  0  0  0  0  0  0  0  0
    1.6038   -1.1817    6.2661 C   0  0  1  0  0  0  0  0  0  0  0  0
    2.5589   -0.1267    6.8725 C   0  0  0  0  0  0  0  0  0  0  0  0
    2.0636    0.7931    8.0005 C   0  0  0  0  0  0  0  0  0  0  0  0
    0.9568    1.7737    7.6462 C   0  0  0  0  0  0  0  0  0  0  0  0
    0.5426    2.5585    8.4957 O   0  0  0  0  0  0  0  0  0  0  0  0
    0.3558    1.7786    6.2436 C   0  0  1  0  0  0  0  0  0  0  0  0
    1.4067    1.7098    5.2265 O   0  0  0  0  0  0  0  0  0  0  0  0
    1.0552    1.0897    4.0384 C   0  0  0  0  0  0  0  0  0  0  0  0
    0.5658    2.0103    3.0729 C   0  0  0  0  0  0  0  0  0  0  0  0
    1.4117    2.9135    2.4881 O   0  0  0  0  0  0  0  0  0  0  0  0
   -0.8327    2.2034    2.9383 C   0  0  0  0  0  0  0  0  0  0  0  0
   -1.7189    1.6035    3.8641 C   0  0  0  0  0  0  0  0  0  0  0  0
   -1.0939    0.5786    4.5991 C   0  0  0  0  0  0  0  0  0  0  0  0
    0.1479    0.0387    4.2228 C   0  0  0  0  0  0  0  0  0  0  0  0
    0.3947   -1.0994    5.2414 C   0  0  1  0  0  0  0  0  0  0  0  0
    0.0018   -2.5410    4.8940 C   0  0  0  0  0  0  0  0  0  0  0  0
    0.0318   -3.0946    6.3424 C   0  0  0  0  0  0  0  0  0  0  0  0
    0.4276   -1.7833    7.0324 C   0  0  1  0  0  0  0  0  0  0  0  0
    0.4264   -1.8913    8.4389 O   0  0  0  0  0  0  0  0  0  0  0  0
   -0.5302   -0.7461    6.3811 C   0  0  1  0  0  0  0  0  0  0  0  0
   -0.8216    0.7297    6.1060 C   0  0  1  0  0  0  0  0  0  0  0  0
   -2.0778    1.1963    6.8844 C   0  0  0  0  0  0  0  0  0  0  0  0
    3.8077   -2.9232    4.4329 H   0  0  0  0  0  0  0  0  0  0  0  0
    4.0589   -1.2464    4.8475 H   0  0  0  0  0  0  0  0  0  0  0  0
    2.7032   -1.7203    3.8054 H   0  0  0  0  0  0  0  0  0  0  0  0
    3.3794   -0.6769    7.3342 H   0  0  0  0  0  0  0  0  0  0  0  0
    3.0770    0.4350    6.0974 H   0  0  0  0  0  0  0  0  0  0  0  0
    1.7319    0.1922    8.8434 H   0  0  0  0  0  0  0  0  0  0  0  0
    2.9126    1.3751    8.3629 H   0  0  0  0  0  0  0  0  0  0  0  0
   -0.0980    2.7620    6.1183 H   0  0  0  0  0  0  0  0  0  0  0  0
    0.9542    3.4862    1.8648 H   0  0  0  0  0  0  0  0  0  0  0  0
   -1.1970    2.9445    2.2434 H   0  0  0  0  0  0  0  0  0  0  0  0
   -2.7442    1.9185    4.0044 H   0  0  0  0  0  0  0  0  0  0  0  0
   -0.9873   -2.6174    4.4512 H   0  0  0  0  0  0  0  0  0  0  0  0
    0.7087   -3.0350    4.2260 H   0  0  0  0  0  0  0  0  0  0  0  0
   -0.9398   -3.4679    6.6692 H   0  0  0  0  0  0  0  0  0  0  0  0
    0.7613   -3.8914    6.4803 H   0  0  0  0  0  0  0  0  0  0  0  0
    1.0569   -2.5668    8.6498 H   0  0  0  0  0  0  0  0  0  0  0  0
   -1.4902   -1.2566    6.3186 H   0  0  0  0  0  0  0  0  0  0  0  0
   -1.9083    1.1491    7.9575 H   0  0  0  0  0  0  0  0  0  0  0  0
   -2.9584    0.5918    6.6652 H   0  0  0  0  0  0  0  0  0  0  0  0
   -2.3362    2.2310    6.6654 H   0  0  0  0  0  0  0  0  0  0  0  0
  1  2  1  0
  1 25  1  0
  1 26  1  0
  1 27  1  0
  3  2  1  6
  3 17  1  0
  3 20  1  0
  3  4  1  0
  4  5  1  0
  4 28  1  0
  4 29  1  0
  5  6  1  0
  5 30  1  0
  5 31  1  0
  6  7  2  0
  6  8  1  0
  8 23  1  0
  8  9  1  0
  8 32  1  6
  9 10  1  0
 10 16  2  0
 10 11  1  0
 11 12  1  0
 11 13  2  0
 12 33  1  0
 13 14  1  0
 13 34  1  0
 14 15  2  0
 14 35  1  0
 15 23  1  0
 15 16  1  0
 16 17  1  0
 17 22  1  0
 17 18  1  6
 18 19  1  0
 18 36  1  0
 18 37  1  0
 19 20  1  0
 19 38  1  0
 19 39  1  0
 20 21  1  1
 20 22  1  0
 21 40  1  0
 22 23  1  0
 22 41  1  6
 23 24  1  1
 24 42  1  0
 24 43  1  0
 24 44  1  0
M  END
>  <i_m_ct_stereo_status>  (57) 
1

>  <s_m_source_file>  (57) 
/var/tmp/pbs.5076255.sched01/tmpikn618da/06v91y69d.sdf

>  <i_m_source_file_index>  (57) 
22

>  <i_lp_mmshare_version>  (57) 
48012

>  <i_f3d_flags>  (57) 
0

>  <s_epik_input>  (57) 
W0NIM11PW0NAQF0xKFtDQEBdMjM0KVtDQF0oW09IXSkoW0NIMl1bQ0gyXTMpW0NASF00W0NAQF01KFtDSDNdKVtDQEBIXShDKD1PKVtDSDJdW0NIMl0xKU9jNmMyYzVbY0hdW2NIXWM2W09IXQ==

>  <s_epik_cmdline>  (57) 
J2VwaWtfcHl0aG9uJywgJy1waHQnLCAnMi4wJywgJy1waCcsICc3LjAnLCAnLXRuJywgJzgnLCAnLW1hJywgJzIwMCcsICctaW1hZScsICc8aW5maWxlLm1hZT4nLCAnLW9tYWUnLCAnPG91dGZpbGUubWFlPic=

>  <r_lp_tautomer_probability>  (57) 
1

>  <r_epik_Ionization_Penalty>  (57) 
0.000296142

>  <r_epik_Ionization_Penalty_Charging>  (57) 
0

>  <r_epik_Ionization_Penalty_Neutral>  (57) 
0.000296142

>  <r_epik_State_Penalty>  (57) 
-0

>  <r_epik_Charging_Adjusted_Penalty>  (57) 
0

>  <i_epik_Tot_Q>  (57) 
0

>  <i_epik_Tot_abs_Q>  (57) 
0

>  <s_lp_Force_Field>  (57) 
OPLS3e

>  <r_lp_Energy>  (57) 
219.004

>  <b_lp_Chiralities_Consistent>  (57) 
1

>  <s_lp_Variant>  (57) 
12:0-1

>  <s_i_glide_gridfile>  (57) 
pfpi4k_grid

>  <i_i_glide_lignum>  (57) 
22

>  <i_i_glide_rotatable_bonds>  (57) 
3

>  <r_i_docking_score>  (57) 
-2.696

>  <r_i_glide_ligand_efficiency>  (57) 
-0.112333

>  <r_i_glide_ligand_efficiency_sa>  (57) 
-0.324025

>  <r_i_glide_ligand_efficiency_ln>  (57) 
-0.645276

>  <r_i_glide_gscore>  (57) 
-2.696

>  <r_i_glide_lipo>  (57) 
-0.0116168

>  <r_i_glide_hbond>  (57) 
0

>  <r_i_glide_metal>  (57) 
-0

>  <r_i_glide_rewards>  (57) 
-1.17028

>  <r_i_glide_evdw>  (57) 
-13.2895

>  <r_i_glide_ecoul>  (57) 
-5.66352

>  <r_i_glide_erotb>  (57) 
0

>  <r_i_glide_esite>  (57) 
-9.90286e-05

>  <r_i_glide_emodel>  (57) 
-21.6818

>  <r_i_glide_energy>  (57) 
-18.953

>  <r_i_glide_einternal>  (57) 
1.2642

>  <r_i_glide_intrahb_reward>  (57) 
-0

>  <i_i_glide_confnum>  (57) 
2

>  <i_i_glide_posenum>  (57) 
12

>  <r_i_glide_eff_state_penalty>  (57) 
0

>  <ligand_id>  (57) 
12

>  <original_smiles>  (57) 
COC12CCC(=O)C3Oc4c(O)ccc5c4C14CCC2(O)C4C53C

>  <smiles>  (57) 
[H]Oc1c([H])c([H])c2c3c1OC1([H])C(=O)C([H])([H])C([H])([H])C4(OC([H])([H])[H])C5(O[H])C([H])([H])C([H])([H])C34C5([H])C21C([H])([H])[H]

$$$$
12:0:1
     RDKit          3D

 44 49  0  0  1  0  0  0  0  0999 V2000
    2.7919    1.9286    3.2595 C   0  0  0  0  0  0  0  0  0  0  0  0
    2.5313    1.3169    4.5188 O   0  0  0  0  0  0  0  0  0  0  0  0
    1.4262    1.7927    5.2869 C   0  0  1  0  0  0  0  0  0  0  0  0
    1.9675    3.0986    5.9120 C   0  0  0  0  0  0  0  0  0  0  0  0
    1.4206    3.5787    7.2657 C   0  0  0  0  0  0  0  0  0  0  0  0
   -0.0506    3.9699    7.3093 C   0  0  0  0  0  0  0  0  0  0  0  0
   -0.5342    4.3939    8.3534 O   0  0  0  0  0  0  0  0  0  0  0  0
   -0.9191    3.8410    6.0556 C   0  0  1  0  0  0  0  0  0  0  0  0
   -0.2197    4.3724    4.8900 O   0  0  0  0  0  0  0  0  0  0  0  0
   -0.5275    3.7738    3.6819 C   0  0  0  0  0  0  0  0  0  0  0  0
   -1.5730    4.4611    3.0004 C   0  0  0  0  0  0  0  0  0  0  0  0
   -1.3931    5.7165    2.4886 O   0  0  0  0  0  0  0  0  0  0  0  0
   -2.8976    3.9568    3.0844 C   0  0  0  0  0  0  0  0  0  0  0  0
   -3.1986    2.9418    4.0179 C   0  0  0  0  0  0  0  0  0  0  0  0
   -2.0546    2.2772    4.4597 C   0  0  0  0  0  0  0  0  0  0  0  0
   -0.8257    2.4057    3.7907 C   0  0  0  0  0  0  0  0  0  0  0  0
    0.0925    1.4127    4.5203 C   0  0  1  0  0  0  0  0  0  0  0  0
    0.2540   -0.0130    3.9695 C   0  0  0  0  0  0  0  0  0  0  0  0
    0.8746   -0.6237    5.2495 C   0  0  0  0  0  0  0  0  0  0  0  0
    0.8443    0.6519    6.1058 C   0  0  1  0  0  0  0  0  0  0  0  0
    1.2444    0.4099    7.4266 O   0  0  0  0  0  0  0  0  0  0  0  0
   -0.5863    1.1999    5.8573 C   0  0  1  0  0  0  0  0  0  0  0  0
   -1.5355    2.3946    5.9108 C   0  0  1  0  0  0  0  0  0  0  0  0
   -2.6393    2.1659    6.9855 C   0  0  0  0  0  0  0  0  0  0  0  0
    3.5721    1.3463    2.7687 H   0  0  0  0  0  0  0  0  0  0  0  0
    3.1549    2.9509    3.3488 H   0  0  0  0  0  0  0  0  0  0  0  0
    1.9464    1.9220    2.5741 H   0  0  0  0  0  0  0  0  0  0  0  0
    3.0298    2.9363    6.1036 H   0  0  0  0  0  0  0  0  0  0  0  0
    1.9942    3.9017    5.1791 H   0  0  0  0  0  0  0  0  0  0  0  0
    1.5927    2.8212    8.0263 H   0  0  0  0  0  0  0  0  0  0  0  0
    2.0027    4.4442    7.5845 H   0  0  0  0  0  0  0  0  0  0  0  0
   -1.7587    4.5132    6.2189 H   0  0  0  0  0  0  0  0  0  0  0  0
   -0.5845    5.7141    1.9719 H   0  0  0  0  0  0  0  0  0  0  0  0
   -3.6971    4.5306    2.6475 H   0  0  0  0  0  0  0  0  0  0  0  0
   -4.1857    2.8791    4.4482 H   0  0  0  0  0  0  0  0  0  0  0  0
   -0.6922   -0.4863    3.6988 H   0  0  0  0  0  0  0  0  0  0  0  0
    0.9146   -0.0694    3.1071 H   0  0  0  0  0  0  0  0  0  0  0  0
    0.2653   -1.4282    5.6656 H   0  0  0  0  0  0  0  0  0  0  0  0
    1.8856   -1.0012    5.1027 H   0  0  0  0  0  0  0  0  0  0  0  0
    1.2371    1.2500    7.8648 H   0  0  0  0  0  0  0  0  0  0  0  0
   -1.2195    0.3195    5.8686 H   0  0  0  0  0  0  0  0  0  0  0  0
   -2.2043    2.0994    7.9819 H   0  0  0  0  0  0  0  0  0  0  0  0
   -3.1998    1.2365    6.8819 H   0  0  0  0  0  0  0  0  0  0  0  0
   -3.3642    2.9782    7.0247 H   0  0  0  0  0  0  0  0  0  0  0  0
  1  2  1  0
  1 25  1  0
  1 26  1  0
  1 27  1  0
  3  2  1  6
  3 17  1  0
  3 20  1  0
  3  4  1  0
  4  5  1  0
  4 28  1  0
  4 29  1  0
  5  6  1  0
  5 30  1  0
  5 31  1  0
  6  7  2  0
  6  8  1  0
  8 23  1  0
  8  9  1  0
  8 32  1  1
  9 10  1  0
 10 16  2  0
 10 11  1  0
 11 12  1  0
 11 13  2  0
 12 33  1  0
 13 14  1  0
 13 34  1  0
 14 15  2  0
 14 35  1  0
 15 23  1  0
 15 16  1  0
 16 17  1  0
 17 22  1  0
 17 18  1  6
 18 19  1  0
 18 36  1  0
 18 37  1  0
 19 20  1  0
 19 38  1  0
 19 39  1  0
 20 21  1  1
 20 22  1  0
 21 40  1  0
 22 23  1  0
 22 41  1  6
 23 24  1  1
 24 42  1  0
 24 43  1  0
 24 44  1  0
M  END
>  <i_m_ct_stereo_status>  (58) 
1

>  <s_m_source_file>  (58) 
/var/tmp/pbs.5076255.sched01/tmpikn618da/06v91y69d.sdf

>  <i_m_source_file_index>  (58) 
22

>  <i_lp_mmshare_version>  (58) 
48012

>  <i_f3d_flags>  (58) 
0

>  <s_epik_input>  (58) 
W0NIM11PW0NAQF0xKFtDQEBdMjM0KVtDQF0oW09IXSkoW0NIMl1bQ0gyXTMpW0NASF00W0NAQF01KFtDSDNdKVtDQEBIXShDKD1PKVtDSDJdW0NIMl0xKU9jNmMyYzVbY0hdW2NIXWM2W09IXQ==

>  <s_epik_cmdline>  (58) 
J2VwaWtfcHl0aG9uJywgJy1waHQnLCAnMi4wJywgJy1waCcsICc3LjAnLCAnLXRuJywgJzgnLCAnLW1hJywgJzIwMCcsICctaW1hZScsICc8aW5maWxlLm1hZT4nLCAnLW9tYWUnLCAnPG91dGZpbGUubWFlPic=

>  <r_lp_tautomer_probability>  (58) 
1

>  <r_epik_Ionization_Penalty>  (58) 
0.000296142

>  <r_epik_Ionization_Penalty_Charging>  (58) 
0

>  <r_epik_Ionization_Penalty_Neutral>  (58) 
0.000296142

>  <r_epik_State_Penalty>  (58) 
-0

>  <r_epik_Charging_Adjusted_Penalty>  (58) 
0

>  <i_epik_Tot_Q>  (58) 
0

>  <i_epik_Tot_abs_Q>  (58) 
0

>  <s_lp_Force_Field>  (58) 
OPLS3e

>  <r_lp_Energy>  (58) 
219.004

>  <b_lp_Chiralities_Consistent>  (58) 
1

>  <s_lp_Variant>  (58) 
12:0-1

>  <s_i_glide_gridfile>  (58) 
pfpi4k_grid

>  <i_i_glide_lignum>  (58) 
22

>  <i_i_glide_rotatable_bonds>  (58) 
3

>  <r_i_docking_score>  (58) 
-2.45849

>  <r_i_glide_ligand_efficiency>  (58) 
-0.102437

>  <r_i_glide_ligand_efficiency_sa>  (58) 
-0.29548

>  <r_i_glide_ligand_efficiency_ln>  (58) 
-0.58843

>  <r_i_glide_gscore>  (58) 
-2.45849

>  <r_i_glide_lipo>  (58) 
-0.0471053

>  <r_i_glide_hbond>  (58) 
0

>  <r_i_glide_metal>  (58) 
-0

>  <r_i_glide_rewards>  (58) 
-1.17028

>  <r_i_glide_evdw>  (58) 
-8.86203

>  <r_i_glide_ecoul>  (58) 
-5.31909

>  <r_i_glide_erotb>  (58) 
0

>  <r_i_glide_esite>  (58) 
-0.000143711

>  <r_i_glide_emodel>  (58) 
-15.2128

>  <r_i_glide_energy>  (58) 
-14.1811

>  <r_i_glide_einternal>  (58) 
1.76325

>  <r_i_glide_intrahb_reward>  (58) 
-0

>  <i_i_glide_confnum>  (58) 
2

>  <i_i_glide_posenum>  (58) 
7

>  <r_i_glide_eff_state_penalty>  (58) 
0

>  <ligand_id>  (58) 
12

>  <original_smiles>  (58) 
COC12CCC(=O)C3Oc4c(O)ccc5c4C14CCC2(O)C4C53C

>  <smiles>  (58) 
[H]Oc1c([H])c([H])c2c3c1OC1([H])C(=O)C([H])([H])C([H])([H])C4(OC([H])([H])[H])C5(O[H])C([H])([H])C([H])([H])C34C5([H])C21C([H])([H])[H]

$$$$
12:0:2
     RDKit          3D

 44 49  0  0  1  0  0  0  0  0999 V2000
    2.8791    1.8903    2.7626 C   0  0  0  0  0  0  0  0  0  0  0  0
    2.7771    1.2907    4.0584 O   0  0  0  0  0  0  0  0  0  0  0  0
    1.7002    1.6977    4.9145 C   0  0  1  0  0  0  0  0  0  0  0  0
    2.2506    2.9905    5.5792 C   0  0  0  0  0  0  0  0  0  0  0  0
    1.7640    3.3811    6.9878 C   0  0  0  0  0  0  0  0  0  0  0  0
    0.2922    3.7357    7.1393 C   0  0  0  0  0  0  0  0  0  0  0  0
   -0.1462    4.0948    8.2312 O   0  0  0  0  0  0  0  0  0  0  0  0
   -0.6344    3.6497    5.9375 C   0  0  1  0  0  0  0  0  0  0  0  0
   -0.0123    4.2696    4.7739 O   0  0  0  0  0  0  0  0  0  0  0  0
   -0.3856    3.7341    3.5528 C   0  0  0  0  0  0  0  0  0  0  0  0
   -1.4936    4.4362    2.9857 C   0  0  0  0  0  0  0  0  0  0  0  0
   -1.3905    5.7065    2.4900 O   0  0  0  0  0  0  0  0  0  0  0  0
   -2.7949    3.9057    3.1150 C   0  0  0  0  0  0  0  0  0  0  0  0
   -3.0010    2.8498    4.0139 C   0  0  0  0  0  0  0  0  0  0  0  0
   -1.8222    2.1541    4.3220 C   0  0  0  0  0  0  0  0  0  0  0  0
   -0.6414    2.3526    3.5938 C   0  0  0  0  0  0  0  0  0  0  0  0
    0.3372    1.3266    4.2000 C   0  0  1  0  0  0  0  0  0  0  0  0
    0.4891   -0.0791    3.5801 C   0  0  0  0  0  0  0  0  0  0  0  0
    1.2074   -0.7282    4.7908 C   0  0  0  0  0  0  0  0  0  0  0  0
    1.1969    0.5038    5.7107 C   0  0  1  0  0  0  0  0  0  0  0  0
    1.6746    0.2302    7.0025 O   0  0  0  0  0  0  0  0  0  0  0  0
   -0.2567    1.0310    5.5639 C   0  0  1  0  0  0  0  0  0  0  0  0
   -1.2222    2.2002    5.7396 C   0  0  1  0  0  0  0  0  0  0  0  0
   -2.2725    1.8753    6.8400 C   0  0  0  0  0  0  0  0  0  0  0  0
    3.6517    1.3400    2.2292 H   0  0  0  0  0  0  0  0  0  0  0  0
    3.1380    2.9476    2.8058 H   0  0  0  0  0  0  0  0  0  0  0  0
    1.9866    1.8024    2.1427 H   0  0  0  0  0  0  0  0  0  0  0  0
    3.3213    2.8458    5.7110 H   0  0  0  0  0  0  0  0  0  0  0  0
    2.2241    3.8320    4.8902 H   0  0  0  0  0  0  0  0  0  0  0  0
    1.9892    2.5824    7.6925 H   0  0  0  0  0  0  0  0  0  0  0  0
    2.3413    4.2445    7.3282 H   0  0  0  0  0  0  0  0  0  0  0  0
   -1.4884    4.2917    6.1668 H   0  0  0  0  0  0  0  0  0  0  0  0
   -0.6058    5.7689    1.9519 H   0  0  0  0  0  0  0  0  0  0  0  0
   -3.6324    4.4598    2.7145 H   0  0  0  0  0  0  0  0  0  0  0  0
   -3.9812    2.6384    4.4067 H   0  0  0  0  0  0  0  0  0  0  0  0
   -0.4655   -0.5573    3.3571 H   0  0  0  0  0  0  0  0  0  0  0  0
    1.0956   -0.1246    2.6769 H   0  0  0  0  0  0  0  0  0  0  0  0
    0.6494   -1.5698    5.1987 H   0  0  0  0  0  0  0  0  0  0  0  0
    2.2154   -1.0691    4.5589 H   0  0  0  0  0  0  0  0  0  0  0  0
    2.4973   -0.2221    6.8925 H   0  0  0  0  0  0  0  0  0  0  0  0
   -0.8732    0.1294    5.5691 H   0  0  0  0  0  0  0  0  0  0  0  0
   -1.7910    1.7560    7.8063 H   0  0  0  0  0  0  0  0  0  0  0  0
   -2.8221    0.9575    6.6446 H   0  0  0  0  0  0  0  0  0  0  0  0
   -3.0081    2.6748    6.9599 H   0  0  0  0  0  0  0  0  0  0  0  0
  1  2  1  0
  1 25  1  0
  1 26  1  0
  1 27  1  0
  3  2  1  6
  3 17  1  0
  3 20  1  0
  3  4  1  0
  4  5  1  0
  4 28  1  0
  4 29  1  0
  5  6  1  0
  5 30  1  0
  5 31  1  0
  6  7  2  0
  6  8  1  0
  8 23  1  0
  8  9  1  0
  8 32  1  1
  9 10  1  0
 10 16  2  0
 10 11  1  0
 11 12  1  0
 11 13  2  0
 12 33  1  0
 13 14  1  0
 13 34  1  0
 14 15  2  0
 14 35  1  0
 15 23  1  0
 15 16  1  0
 16 17  1  0
 17 22  1  0
 17 18  1  6
 18 19  1  0
 18 36  1  0
 18 37  1  0
 19 20  1  0
 19 38  1  0
 19 39  1  0
 20 21  1  1
 20 22  1  0
 21 40  1  0
 22 23  1  0
 22 41  1  6
 23 24  1  1
 24 42  1  0
 24 43  1  0
 24 44  1  0
M  END
>  <i_m_ct_stereo_status>  (59) 
1

>  <s_m_source_file>  (59) 
/var/tmp/pbs.5076255.sched01/tmpikn618da/06v91y69d.sdf

>  <i_m_source_file_index>  (59) 
22

>  <i_lp_mmshare_version>  (59) 
48012

>  <i_f3d_flags>  (59) 
0

>  <s_epik_input>  (59) 
W0NIM11PW0NAQF0xKFtDQEBdMjM0KVtDQF0oW09IXSkoW0NIMl1bQ0gyXTMpW0NASF00W0NAQF01KFtDSDNdKVtDQEBIXShDKD1PKVtDSDJdW0NIMl0xKU9jNmMyYzVbY0hdW2NIXWM2W09IXQ==

>  <s_epik_cmdline>  (59) 
J2VwaWtfcHl0aG9uJywgJy1waHQnLCAnMi4wJywgJy1waCcsICc3LjAnLCAnLXRuJywgJzgnLCAnLW1hJywgJzIwMCcsICctaW1hZScsICc8aW5maWxlLm1hZT4nLCAnLW9tYWUnLCAnPG91dGZpbGUubWFlPic=

>  <r_lp_tautomer_probability>  (59) 
1

>  <r_epik_Ionization_Penalty>  (59) 
0.000296142

>  <r_epik_Ionization_Penalty_Charging>  (59) 
0

>  <r_epik_Ionization_Penalty_Neutral>  (59) 
0.000296142

>  <r_epik_State_Penalty>  (59) 
-0

>  <r_epik_Charging_Adjusted_Penalty>  (59) 
0

>  <i_epik_Tot_Q>  (59) 
0

>  <i_epik_Tot_abs_Q>  (59) 
0

>  <s_lp_Force_Field>  (59) 
OPLS3e

>  <r_lp_Energy>  (59) 
219.004

>  <b_lp_Chiralities_Consistent>  (59) 
1

>  <s_lp_Variant>  (59) 
12:0-1

>  <s_i_glide_gridfile>  (59) 
pfpi4k_grid

>  <i_i_glide_lignum>  (59) 
22

>  <i_i_glide_rotatable_bonds>  (59) 
3

>  <r_i_docking_score>  (59) 
-2.36476

>  <r_i_glide_ligand_efficiency>  (59) 
-0.0985316

>  <r_i_glide_ligand_efficiency_sa>  (59) 
-0.284214

>  <r_i_glide_ligand_efficiency_ln>  (59) 
-0.565995

>  <r_i_glide_gscore>  (59) 
-2.36476

>  <r_i_glide_lipo>  (59) 
0

>  <r_i_glide_hbond>  (59) 
0

>  <r_i_glide_metal>  (59) 
-0

>  <r_i_glide_rewards>  (59) 
-1.17028

>  <r_i_glide_evdw>  (59) 
-7.4612

>  <r_i_glide_ecoul>  (59) 
-5.47613

>  <r_i_glide_erotb>  (59) 
0

>  <r_i_glide_esite>  (59) 
0

>  <r_i_glide_emodel>  (59) 
-12.6432

>  <r_i_glide_energy>  (59) 
-12.9373

>  <r_i_glide_einternal>  (59) 
3.6745

>  <r_i_glide_intrahb_reward>  (59) 
-0

>  <i_i_glide_confnum>  (59) 
2

>  <i_i_glide_posenum>  (59) 
4

>  <r_i_glide_eff_state_penalty>  (59) 
0

>  <ligand_id>  (59) 
12

>  <original_smiles>  (59) 
COC12CCC(=O)C3Oc4c(O)ccc5c4C14CCC2(O)C4C53C

>  <smiles>  (59) 
[H]Oc1c([H])c([H])c2c3c1OC1([H])C(=O)C([H])([H])C([H])([H])C4(OC([H])([H])[H])C5(O[H])C([H])([H])C([H])([H])C34C5([H])C21C([H])([H])[H]

$$$$
14:0:0
     RDKit          3D

 47 51  0  0  1  0  0  0  0  0999 V2000
    5.0438   -4.2238   -2.4891 C   0  0  0  0  0  0  0  0  0  0  0  0
    5.2869   -3.5355   -1.1705 C   0  0  0  0  0  0  0  0  0  0  0  0
    6.2307   -2.6218   -0.9150 C   0  0  0  0  0  0  0  0  0  0  0  0
    6.1438   -2.0943    0.4941 C   0  0  2  0  0  0  0  0  0  0  0  0
    7.2610   -1.0738    0.7098 C   0  0  0  0  0  0  0  0  0  0  0  0
    6.4009   -3.2593    1.3245 O   0  0  0  0  0  0  0  0  0  0  0  0
    5.3395   -4.2284    1.2259 C   0  0  2  0  0  0  0  0  0  0  0  0
    5.6525   -5.6708    0.9802 C   0  0  0  0  0  0  0  0  0  0  0  0
    6.7817   -6.1448    1.0767 O   0  0  0  0  0  0  0  0  0  0  0  0
    4.4077   -6.4893    0.5826 C   0  0  0  0  0  0  0  0  0  0  0  0
    3.0403   -5.6717    0.4583 C   0  0  1  0  0  0  0  0  0  0  0  0
    2.1533   -5.8945    1.6953 C   0  0  0  0  0  0  0  0  0  0  0  0
    3.1274   -4.1828   -0.0450 C   0  0  1  0  0  0  0  0  0  0  0  0
    3.5437   -2.8071    0.6846 C   0  0  2  0  0  0  0  0  0  0  0  0
    2.6928   -2.7584    1.9676 C   0  0  0  0  0  0  0  0  0  0  0  0
    2.4092   -1.4425    2.5484 N   0  0  1  0  0  0  0  0  0  0  0  0
    1.5010   -1.5292    3.7046 C   0  0  0  0  0  0  0  0  0  0  0  0
    3.6745   -0.7745    2.8797 C   0  0  0  0  0  0  0  0  0  0  0  0
    4.3495   -0.4067    1.5713 C   0  0  0  0  0  0  0  0  0  0  0  0
    4.5988   -1.5980    0.6000 C   0  0  1  0  0  0  0  0  0  0  0  0
    4.4729   -3.8406    0.0680 C   0  0  2  0  0  0  0  0  0  0  0  0
    5.0150   -5.3007   -2.3465 H   0  0  0  0  0  0  0  0  0  0  0  0
    5.8548   -3.9857   -3.1661 H   0  0  0  0  0  0  0  0  0  0  0  0
    4.1164   -3.8923   -2.9442 H   0  0  0  0  0  0  0  0  0  0  0  0
    6.9394   -2.2759   -1.6284 H   0  0  0  0  0  0  0  0  0  0  0  0
    7.1077   -0.1988    0.0902 H   0  0  0  0  0  0  0  0  0  0  0  0
    8.2318   -1.5116    0.4695 H   0  0  0  0  0  0  0  0  0  0  0  0
    7.3058   -0.7639    1.7547 H   0  0  0  0  0  0  0  0  0  0  0  0
    4.7823   -4.2099    2.1500 H   0  0  0  0  0  0  0  0  0  0  0  0
    4.6228   -6.9809   -0.3687 H   0  0  0  0  0  0  0  0  0  0  0  0
    4.2834   -7.2941    1.3134 H   0  0  0  0  0  0  0  0  0  0  0  0
    2.4843   -6.2019   -0.3199 H   0  0  0  0  0  0  0  0  0  0  0  0
    2.6181   -5.5137    2.6052 H   0  0  0  0  0  0  0  0  0  0  0  0
    1.9841   -6.9653    1.8496 H   0  0  0  0  0  0  0  0  0  0  0  0
    1.1655   -5.4482    1.5777 H   0  0  0  0  0  0  0  0  0  0  0  0
    2.6838   -4.0599   -1.0223 H   0  0  0  0  0  0  0  0  0  0  0  0
    1.7298   -3.1968    1.7286 H   0  0  0  0  0  0  0  0  0  0  0  0
    3.1402   -3.3731    2.7367 H   0  0  0  0  0  0  0  0  0  0  0  0
    1.9498   -2.1140    4.5054 H   0  0  0  0  0  0  0  0  0  0  0  0
    0.5661   -2.0118    3.4267 H   0  0  0  0  0  0  0  0  0  0  0  0
    1.2627   -0.5468    4.0998 H   0  0  0  0  0  0  0  0  0  0  0  0
    3.4855    0.1297    3.4496 H   0  0  0  0  0  0  0  0  0  0  0  0
    4.3100   -1.4101    3.4940 H   0  0  0  0  0  0  0  0  0  0  0  0
    3.7424    0.3643    1.0689 H   0  0  0  0  0  0  0  0  0  0  0  0
    5.2826    0.0897    1.8313 H   0  0  0  0  0  0  0  0  0  0  0  0
    4.4029   -1.1121   -0.3552 H   0  0  0  0  0  0  0  0  0  0  0  0
    1.9560   -0.8749    1.8371 H   0  0  0  0  0  0  0  0  0  0  0  0
  1  2  1  0
  1 22  1  0
  1 23  1  0
  1 24  1  0
 21  2  1  6
  2  3  2  0
  3  4  1  0
  3 25  1  0
  4 20  1  0
  4  5  1  6
  4  6  1  0
  5 26  1  0
  5 27  1  0
  5 28  1  0
  6  7  1  0
  7 21  1  0
  7  8  1  0
  7 29  1  1
  8  9  2  0
  8 10  1  0
 10 11  1  0
 10 30  1  0
 10 31  1  0
 11 12  1  0
 11 13  1  0
 11 32  1  6
 12 33  1  0
 12 34  1  0
 12 35  1  0
 13 21  1  0
 13 14  1  0
 13 36  1  6
 14 20  1  0
 14 15  1  6
 14 21  1  0
 15 16  1  0
 15 37  1  0
 15 38  1  0
 16 17  1  0
 16 18  1  0
 16 47  1  6
 17 39  1  0
 17 40  1  0
 17 41  1  0
 18 19  1  0
 18 42  1  0
 18 43  1  0
 19 20  1  0
 19 44  1  0
 19 45  1  0
 20 46  1  6
M  CHG  1  16   1
M  END
>  <i_m_ct_stereo_status>  (60) 
1

>  <s_m_source_file>  (60) 
/var/tmp/pbs.5076255.sched01/tmpikn618da/06v91y69d.sdf

>  <i_m_source_file_index>  (60) 
24

>  <i_lp_mmshare_version>  (60) 
48012

>  <i_f3d_flags>  (60) 
0

>  <s_epik_input>  (60) 
W0NIMl0xTihbQ0gzXSlbQ0gyXVtDSDJdW0NASF0yW0NAXShbQ0gzXSkoW0NIXT1DM1tDSDNdKU9bQ0BASF0oW0NAQF0zNFtDQEBdMTI1KUMoPU8pW0NIMl1bQ0BASF0oW0NIM10pW0NASF00NQ==

>  <s_epik_cmdline>  (60) 
J2VwaWtfcHl0aG9uJywgJy1waHQnLCAnMi4wJywgJy1waCcsICc3LjAnLCAnLXRuJywgJzgnLCAnLW1hJywgJzIwMCcsICctaW1hZScsICc8aW5maWxlLm1hZT4nLCAnLW9tYWUnLCAnPG91dGZpbGUubWFlPic=

>  <r_lp_tautomer_probability>  (60) 
1

>  <r_epik_Ionization_Penalty>  (60) 
0.00185594

>  <r_epik_Ionization_Penalty_Charging>  (60) 
0.00185594

>  <r_epik_Ionization_Penalty_Neutral>  (60) 
1.71201e-11

>  <r_epik_State_Penalty>  (60) 
0.00126139

>  <r_epik_Charging_Adjusted_Penalty>  (60) 
0.00311733

>  <i_epik_Tot_Q>  (60) 
1

>  <i_epik_Tot_abs_Q>  (60) 
1

>  <s_lp_Force_Field>  (60) 
OPLS3e

>  <r_lp_Energy>  (60) 
166.133

>  <b_lp_Chiralities_Consistent>  (60) 
1

>  <s_lp_Variant>  (60) 
14:0-1

>  <s_i_glide_gridfile>  (60) 
pfpi4k_grid

>  <i_i_glide_lignum>  (60) 
24

>  <i_i_glide_rotatable_bonds>  (60) 
0

>  <r_i_docking_score>  (60) 
-3.46481

>  <r_i_glide_ligand_efficiency>  (60) 
-0.164991

>  <r_i_glide_ligand_efficiency_sa>  (60) 
-0.455197

>  <r_i_glide_ligand_efficiency_ln>  (60) 
-0.856667

>  <r_i_glide_gscore>  (60) 
-3.46481

>  <r_i_glide_lipo>  (60) 
-0.474301

>  <r_i_glide_hbond>  (60) 
0

>  <r_i_glide_metal>  (60) 
-0

>  <r_i_glide_rewards>  (60) 
-1.56112

>  <r_i_glide_evdw>  (60) 
-17.2226

>  <r_i_glide_ecoul>  (60) 
-3.69366

>  <r_i_glide_erotb>  (60) 
0

>  <r_i_glide_esite>  (60) 
-0.0142032

>  <r_i_glide_emodel>  (60) 
-25.8885

>  <r_i_glide_energy>  (60) 
-20.9163

>  <r_i_glide_einternal>  (60) 
0

>  <r_i_glide_intrahb_reward>  (60) 
-0

>  <i_i_glide_confnum>  (60) 
1

>  <i_i_glide_posenum>  (60) 
13

>  <r_i_glide_eff_state_penalty>  (60) 
0

>  <ligand_id>  (60) 
14

>  <original_smiles>  (60) 
CC1=CC2(C)OC3C(=O)CC(C)C4C5(CN(C)CCC25)C134

>  <smiles>  (60) 
[H]C1=C(C([H])([H])[H])C23C4([H])OC1(C([H])([H])[H])C1([H])C([H])([H])C([H])([H])[N+]([H])(C([H])([H])[H])C([H])([H])C12C3([H])C([H])(C([H])([H])[H])C([H])([H])C4=O

$$$$
14:0:1
     RDKit          3D

 47 51  0  0  1  0  0  0  0  0999 V2000
    4.7521   -4.2248   -1.8375 C   0  0  0  0  0  0  0  0  0  0  0  0
    4.8226   -3.4470   -0.5520 C   0  0  0  0  0  0  0  0  0  0  0  0
    5.4962   -2.3072   -0.3650 C   0  0  0  0  0  0  0  0  0  0  0  0
    5.3094   -1.7622    1.0305 C   0  0  2  0  0  0  0  0  0  0  0  0
    6.1486   -0.4922    1.1686 C   0  0  0  0  0  0  0  0  0  0  0  0
    5.8711   -2.7891    1.8900 O   0  0  0  0  0  0  0  0  0  0  0  0
    5.0922   -4.0010    1.8576 C   0  0  2  0  0  0  0  0  0  0  0  0
    5.7606   -5.3267    1.6434 C   0  0  0  0  0  0  0  0  0  0  0  0
    6.9687   -5.4981    1.7102 O   0  0  0  0  0  0  0  0  0  0  0  0
    4.7450   -6.4486    1.3173 C   0  0  0  0  0  0  0  0  0  0  0  0
    3.2132   -6.0048    1.2102 C   0  0  1  0  0  0  0  0  0  0  0  0
    2.4425   -6.3853    2.4854 C   0  0  0  0  0  0  0  0  0  0  0  0
    2.9094   -4.5606    0.6598 C   0  0  1  0  0  0  0  0  0  0  0  0
    2.9838   -3.0956    1.3338 C   0  0  2  0  0  0  0  0  0  0  0  0
    2.1862   -3.2128    2.6467 C   0  0  0  0  0  0  0  0  0  0  0  0
    1.6089   -1.9854    3.2033 N   0  0  1  0  0  0  0  0  0  0  0  0
    0.7800   -2.2486    4.3894 C   0  0  0  0  0  0  0  0  0  0  0  0
    2.6709   -1.0091    3.4610 C   0  0  0  0  0  0  0  0  0  0  0  0
    3.1909   -0.5344    2.1186 C   0  0  0  0  0  0  0  0  0  0  0  0
    3.6973   -1.6648    1.1724 C   0  0  1  0  0  0  0  0  0  0  0  0
    4.1314   -3.8915    0.7178 C   0  0  2  0  0  0  0  0  0  0  0  0
    4.9839   -5.2750   -1.6618 H   0  0  0  0  0  0  0  0  0  0  0  0
    5.4572   -3.8323   -2.5591 H   0  0  0  0  0  0  0  0  0  0  0  0
    3.7605   -4.1252   -2.2718 H   0  0  0  0  0  0  0  0  0  0  0  0
    6.0707   -1.8176   -1.1144 H   0  0  0  0  0  0  0  0  0  0  0  0
    5.7930    0.3067    0.5172 H   0  0  0  0  0  0  0  0  0  0  0  0
    7.1862   -0.6962    0.8924 H   0  0  0  0  0  0  0  0  0  0  0  0
    6.1641   -0.1416    2.2024 H   0  0  0  0  0  0  0  0  0  0  0  0
    4.5777   -4.0924    2.8013 H   0  0  0  0  0  0  0  0  0  0  0  0
    5.0595   -6.9082    0.3788 H   0  0  0  0  0  0  0  0  0  0  0  0
    4.8466   -7.2263    2.0784 H   0  0  0  0  0  0  0  0  0  0  0  0
    2.7967   -6.6852    0.4686 H   0  0  0  0  0  0  0  0  0  0  0  0
    2.8243   -5.8702    3.3669 H   0  0  0  0  0  0  0  0  0  0  0  0
    2.5450   -7.4558    2.6838 H   0  0  0  0  0  0  0  0  0  0  0  0
    1.3720   -6.1912    2.3877 H   0  0  0  0  0  0  0  0  0  0  0  0
    2.4336   -4.5922   -0.3092 H   0  0  0  0  0  0  0  0  0  0  0  0
    1.3571   -3.8939    2.4785 H   0  0  0  0  0  0  0  0  0  0  0  0
    2.7963   -3.6618    3.4183 H   0  0  0  0  0  0  0  0  0  0  0  0
    1.3809   -2.6716    5.1920 H   0  0  0  0  0  0  0  0  0  0  0  0
   -0.0126   -2.9587    4.1654 H   0  0  0  0  0  0  0  0  0  0  0  0
    0.3141   -1.3435    4.7633 H   0  0  0  0  0  0  0  0  0  0  0  0
    2.2771   -0.1616    4.0111 H   0  0  0  0  0  0  0  0  0  0  0  0
    3.4627   -1.4424    4.0753 H   0  0  0  0  0  0  0  0  0  0  0  0
    2.3924    0.0322    1.6158 H   0  0  0  0  0  0  0  0  0  0  0  0
    3.9685    0.2055    2.3164 H   0  0  0  0  0  0  0  0  0  0  0  0
    3.3633   -1.2774    0.2122 H   0  0  0  0  0  0  0  0  0  0  0  0
    1.0115   -1.5697    2.4963 H   0  0  0  0  0  0  0  0  0  0  0  0
  1  2  1  0
  1 22  1  0
  1 23  1  0
  1 24  1  0
 21  2  1  6
  2  3  2  0
  3  4  1  0
  3 25  1  0
  4 20  1  0
  4  5  1  6
  4  6  1  0
  5 26  1  0
  5 27  1  0
  5 28  1  0
  6  7  1  0
  7 21  1  0
  7  8  1  0
  7 29  1  1
  8  9  2  0
  8 10  1  0
 10 11  1  0
 10 30  1  0
 10 31  1  0
 11 12  1  0
 11 13  1  0
 11 32  1  6
 12 33  1  0
 12 34  1  0
 12 35  1  0
 13 21  1  0
 13 14  1  0
 13 36  1  6
 14 20  1  0
 14 15  1  6
 14 21  1  0
 15 16  1  0
 15 37  1  0
 15 38  1  0
 16 17  1  0
 16 18  1  0
 16 47  1  6
 17 39  1  0
 17 40  1  0
 17 41  1  0
 18 19  1  0
 18 42  1  0
 18 43  1  0
 19 20  1  0
 19 44  1  0
 19 45  1  0
 20 46  1  6
M  CHG  1  16   1
M  END
>  <i_m_ct_stereo_status>  (61) 
1

>  <s_m_source_file>  (61) 
/var/tmp/pbs.5076255.sched01/tmpikn618da/06v91y69d.sdf

>  <i_m_source_file_index>  (61) 
24

>  <i_lp_mmshare_version>  (61) 
48012

>  <i_f3d_flags>  (61) 
0

>  <s_epik_input>  (61) 
W0NIMl0xTihbQ0gzXSlbQ0gyXVtDSDJdW0NASF0yW0NAXShbQ0gzXSkoW0NIXT1DM1tDSDNdKU9bQ0BASF0oW0NAQF0zNFtDQEBdMTI1KUMoPU8pW0NIMl1bQ0BASF0oW0NIM10pW0NASF00NQ==

>  <s_epik_cmdline>  (61) 
J2VwaWtfcHl0aG9uJywgJy1waHQnLCAnMi4wJywgJy1waCcsICc3LjAnLCAnLXRuJywgJzgnLCAnLW1hJywgJzIwMCcsICctaW1hZScsICc8aW5maWxlLm1hZT4nLCAnLW9tYWUnLCAnPG91dGZpbGUubWFlPic=

>  <r_lp_tautomer_probability>  (61) 
1

>  <r_epik_Ionization_Penalty>  (61) 
0.00185594

>  <r_epik_Ionization_Penalty_Charging>  (61) 
0.00185594

>  <r_epik_Ionization_Penalty_Neutral>  (61) 
1.71201e-11

>  <r_epik_State_Penalty>  (61) 
0.00126139

>  <r_epik_Charging_Adjusted_Penalty>  (61) 
0.00311733

>  <i_epik_Tot_Q>  (61) 
1

>  <i_epik_Tot_abs_Q>  (61) 
1

>  <s_lp_Force_Field>  (61) 
OPLS3e

>  <r_lp_Energy>  (61) 
166.133

>  <b_lp_Chiralities_Consistent>  (61) 
1

>  <s_lp_Variant>  (61) 
14:0-1

>  <s_i_glide_gridfile>  (61) 
pfpi4k_grid

>  <i_i_glide_lignum>  (61) 
24

>  <i_i_glide_rotatable_bonds>  (61) 
0

>  <r_i_docking_score>  (61) 
-3.17987

>  <r_i_glide_ligand_efficiency>  (61) 
-0.151422

>  <r_i_glide_ligand_efficiency_sa>  (61) 
-0.417762

>  <r_i_glide_ligand_efficiency_ln>  (61) 
-0.786215

>  <r_i_glide_gscore>  (61) 
-3.17987

>  <r_i_glide_lipo>  (61) 
-0.335634

>  <r_i_glide_hbond>  (61) 
0

>  <r_i_glide_metal>  (61) 
-0

>  <r_i_glide_rewards>  (61) 
-1.51837

>  <r_i_glide_evdw>  (61) 
-14.9491

>  <r_i_glide_ecoul>  (61) 
-3.85606

>  <r_i_glide_erotb>  (61) 
0

>  <r_i_glide_esite>  (61) 
0

>  <r_i_glide_emodel>  (61) 
-23.3806

>  <r_i_glide_energy>  (61) 
-18.8051

>  <r_i_glide_einternal>  (61) 
0

>  <r_i_glide_intrahb_reward>  (61) 
-0

>  <i_i_glide_confnum>  (61) 
1

>  <i_i_glide_posenum>  (61) 
23

>  <r_i_glide_eff_state_penalty>  (61) 
0

>  <ligand_id>  (61) 
14

>  <original_smiles>  (61) 
CC1=CC2(C)OC3C(=O)CC(C)C4C5(CN(C)CCC25)C134

>  <smiles>  (61) 
[H]C1=C(C([H])([H])[H])C23C4([H])OC1(C([H])([H])[H])C1([H])C([H])([H])C([H])([H])[N+]([H])(C([H])([H])[H])C([H])([H])C12C3([H])C([H])(C([H])([H])[H])C([H])([H])C4=O

$$$$
14:0:2
     RDKit          3D

 47 51  0  0  1  0  0  0  0  0999 V2000
   -2.1752    2.9629    4.4834 C   0  0  0  0  0  0  0  0  0  0  0  0
   -1.1389    1.8613    4.6004 C   0  0  0  0  0  0  0  0  0  0  0  0
   -1.3394    0.6412    5.0954 C   0  0  0  0  0  0  0  0  0  0  0  0
   -0.1016   -0.2302    5.0238 C   0  0  2  0  0  0  0  0  0  0  0  0
   -0.4053   -1.6070    5.6339 C   0  0  0  0  0  0  0  0  0  0  0  0
    0.8639    0.4714    5.8627 O   0  0  0  0  0  0  0  0  0  0  0  0
    1.2532    1.7426    5.2988 C   0  0  2  0  0  0  0  0  0  0  0  0
    1.2425    2.9795    6.1584 C   0  0  0  0  0  0  0  0  0  0  0  0
    1.1336    2.9601    7.3757 O   0  0  0  0  0  0  0  0  0  0  0  0
    1.3582    4.2760    5.3192 C   0  0  0  0  0  0  0  0  0  0  0  0
    1.4058    4.0950    3.7351 C   0  0  1  0  0  0  0  0  0  0  0  0
    2.8520    4.2363    3.2169 C   0  0  0  0  0  0  0  0  0  0  0  0
    0.5901    2.8927    3.1234 C   0  0  1  0  0  0  0  0  0  0  0  0
    0.8973    1.2931    3.0216 C   0  0  2  0  0  0  0  0  0  0  0  0
    2.3193    1.2009    2.4205 C   0  0  0  0  0  0  0  0  0  0  0  0
    2.6645   -0.0506    1.7137 N   0  0  1  0  0  0  0  0  0  0  0  0
    4.0258    0.0132    1.1353 C   0  0  0  0  0  0  0  0  0  0  0  0
    2.5192   -1.1917    2.6321 C   0  0  0  0  0  0  0  0  0  0  0  0
    1.0410   -1.3843    2.8949 C   0  0  0  0  0  0  0  0  0  0  0  0
    0.2944   -0.1352    3.4523 C   0  0  1  0  0  0  0  0  0  0  0  0
    0.3031    2.0505    4.1894 C   0  0  2  0  0  0  0  0  0  0  0  0
   -1.8104    3.8953    4.9105 H   0  0  0  0  0  0  0  0  0  0  0  0
   -3.0763    2.6748    5.0183 H   0  0  0  0  0  0  0  0  0  0  0  0
   -2.4456    3.1283    3.4408 H   0  0  0  0  0  0  0  0  0  0  0  0
   -2.2777    0.2784    5.4722 H   0  0  0  0  0  0  0  0  0  0  0  0
   -1.1546   -2.1545    5.0582 H   0  0  0  0  0  0  0  0  0  0  0  0
   -0.7925   -1.4844    6.6466 H   0  0  0  0  0  0  0  0  0  0  0  0
    0.4941   -2.2215    5.7190 H   0  0  0  0  0  0  0  0  0  0  0  0
    2.2739    1.6547    4.9459 H   0  0  0  0  0  0  0  0  0  0  0  0
    0.5131    4.9099    5.5858 H   0  0  0  0  0  0  0  0  0  0  0  0
    2.2507    4.8079    5.6540 H   0  0  0  0  0  0  0  0  0  0  0  0
    0.9090    4.9858    3.3439 H   0  0  0  0  0  0  0  0  0  0  0  0
    3.5070    3.4630    3.6171 H   0  0  0  0  0  0  0  0  0  0  0  0
    3.2771    5.1958    3.5276 H   0  0  0  0  0  0  0  0  0  0  0  0
    2.8980    4.2152    2.1262 H   0  0  0  0  0  0  0  0  0  0  0  0
   -0.2548    3.2234    2.5279 H   0  0  0  0  0  0  0  0  0  0  0  0
    2.4346    2.0076    1.6938 H   0  0  0  0  0  0  0  0  0  0  0  0
    3.0697    1.3462    3.1933 H   0  0  0  0  0  0  0  0  0  0  0  0
    4.7762    0.1126    1.9211 H   0  0  0  0  0  0  0  0  0  0  0  0
    4.1209    0.8788    0.4783 H   0  0  0  0  0  0  0  0  0  0  0  0
    4.2465   -0.8859    0.5567 H   0  0  0  0  0  0  0  0  0  0  0  0
    2.9174   -2.0961    2.1649 H   0  0  0  0  0  0  0  0  0  0  0  0
    3.0760   -1.0352    3.5581 H   0  0  0  0  0  0  0  0  0  0  0  0
    0.6117   -1.6732    1.9291 H   0  0  0  0  0  0  0  0  0  0  0  0
    0.9104   -2.2544    3.5303 H   0  0  0  0  0  0  0  0  0  0  0  0
   -0.6531   -0.1988    2.9153 H   0  0  0  0  0  0  0  0  0  0  0  0
    2.0025   -0.1903    0.9521 H   0  0  0  0  0  0  0  0  0  0  0  0
  1  2  1  0
  1 22  1  0
  1 23  1  0
  1 24  1  0
 21  2  1  1
  2  3  2  0
  3  4  1  0
  3 25  1  0
  4 20  1  0
  4  5  1  1
  4  6  1  0
  5 26  1  0
  5 27  1  0
  5 28  1  0
  6  7  1  0
  7 21  1  0
  7  8  1  0
  7 29  1  6
  8  9  2  0
  8 10  1  0
 10 11  1  0
 10 30  1  0
 10 31  1  0
 11 12  1  0
 11 13  1  0
 11 32  1  6
 12 33  1  0
 12 34  1  0
 12 35  1  0
 13 21  1  0
 13 14  1  0
 13 36  1  6
 14 20  1  0
 14 15  1  6
 14 21  1  0
 15 16  1  0
 15 37  1  0
 15 38  1  0
 16 17  1  0
 16 18  1  0
 16 47  1  6
 17 39  1  0
 17 40  1  0
 17 41  1  0
 18 19  1  0
 18 42  1  0
 18 43  1  0
 19 20  1  0
 19 44  1  0
 19 45  1  0
 20 46  1  6
M  CHG  1  16   1
M  END
>  <i_m_ct_stereo_status>  (62) 
1

>  <s_m_source_file>  (62) 
/var/tmp/pbs.5076255.sched01/tmpikn618da/06v91y69d.sdf

>  <i_m_source_file_index>  (62) 
24

>  <i_lp_mmshare_version>  (62) 
48012

>  <i_f3d_flags>  (62) 
0

>  <s_epik_input>  (62) 
W0NIMl0xTihbQ0gzXSlbQ0gyXVtDSDJdW0NASF0yW0NAXShbQ0gzXSkoW0NIXT1DM1tDSDNdKU9bQ0BASF0oW0NAQF0zNFtDQEBdMTI1KUMoPU8pW0NIMl1bQ0BASF0oW0NIM10pW0NASF00NQ==

>  <s_epik_cmdline>  (62) 
J2VwaWtfcHl0aG9uJywgJy1waHQnLCAnMi4wJywgJy1waCcsICc3LjAnLCAnLXRuJywgJzgnLCAnLW1hJywgJzIwMCcsICctaW1hZScsICc8aW5maWxlLm1hZT4nLCAnLW9tYWUnLCAnPG91dGZpbGUubWFlPic=

>  <r_lp_tautomer_probability>  (62) 
1

>  <r_epik_Ionization_Penalty>  (62) 
0.00185594

>  <r_epik_Ionization_Penalty_Charging>  (62) 
0.00185594

>  <r_epik_Ionization_Penalty_Neutral>  (62) 
1.71201e-11

>  <r_epik_State_Penalty>  (62) 
0.00126139

>  <r_epik_Charging_Adjusted_Penalty>  (62) 
0.00311733

>  <i_epik_Tot_Q>  (62) 
1

>  <i_epik_Tot_abs_Q>  (62) 
1

>  <s_lp_Force_Field>  (62) 
OPLS3e

>  <r_lp_Energy>  (62) 
166.133

>  <b_lp_Chiralities_Consistent>  (62) 
1

>  <s_lp_Variant>  (62) 
14:0-1

>  <s_i_glide_gridfile>  (62) 
pfpi4k_grid

>  <i_i_glide_lignum>  (62) 
24

>  <i_i_glide_rotatable_bonds>  (62) 
0

>  <r_i_docking_score>  (62) 
-3.06604

>  <r_i_glide_ligand_efficiency>  (62) 
-0.146002

>  <r_i_glide_ligand_efficiency_sa>  (62) 
-0.402808

>  <r_i_glide_ligand_efficiency_ln>  (62) 
-0.758072

>  <r_i_glide_gscore>  (62) 
-3.06604

>  <r_i_glide_lipo>  (62) 
-0.0760543

>  <r_i_glide_hbond>  (62) 
-0.0695049

>  <r_i_glide_metal>  (62) 
-0

>  <r_i_glide_rewards>  (62) 
-1.4427

>  <r_i_glide_evdw>  (62) 
-16.1491

>  <r_i_glide_ecoul>  (62) 
-4.26046

>  <r_i_glide_erotb>  (62) 
0

>  <r_i_glide_esite>  (62) 
-0.0312606

>  <r_i_glide_emodel>  (62) 
-24.8242

>  <r_i_glide_energy>  (62) 
-20.4096

>  <r_i_glide_einternal>  (62) 
0

>  <r_i_glide_intrahb_reward>  (62) 
-0

>  <i_i_glide_confnum>  (62) 
2

>  <i_i_glide_posenum>  (62) 
3

>  <r_i_glide_eff_state_penalty>  (62) 
0

>  <ligand_id>  (62) 
14

>  <original_smiles>  (62) 
CC1=CC2(C)OC3C(=O)CC(C)C4C5(CN(C)CCC25)C134

>  <smiles>  (62) 
[H]C1=C(C([H])([H])[H])C23C4([H])OC1(C([H])([H])[H])C1([H])C([H])([H])C([H])([H])[N+]([H])(C([H])([H])[H])C([H])([H])C12C3([H])C([H])(C([H])([H])[H])C([H])([H])C4=O

$$$$
15:1:0
     RDKit          3D

 81 85  0  0  1  0  0  0  0  0999 V2000
   -0.8910   -8.3575    2.5685 C   0  0  0  0  0  0  0  0  0  0  0  0
   -0.2578   -9.2217    3.6653 C   0  0  2  0  0  0  0  0  0  0  0  0
   -0.5991   -8.6168    5.0344 C   0  0  0  0  0  0  0  0  0  0  0  0
    0.4263   -7.5494    5.4827 C   0  0  0  0  0  0  0  0  0  0  0  0
    1.9051   -8.0469    5.5653 C   0  0  2  0  0  0  0  0  0  0  0  0
    2.0715   -9.1316    6.7108 C   0  0  0  0  0  0  0  0  0  0  0  0
    2.8844   -8.9879    7.6594 O   0  0  0  0  0  0  0  0  0  0  0  0
    1.2975  -10.2366    6.5368 O   0  0  0  0  0  0  0  0  0  0  0  0
    2.7956   -6.8380    6.0015 C   0  0  0  0  0  0  0  0  0  0  0  0
    3.2350   -5.8454    4.9225 C   0  0  0  0  0  0  0  0  0  0  0  0
    3.8809   -6.5280    3.6866 C   0  0  1  0  0  0  0  0  0  0  0  0
    5.0738   -7.4446    4.1143 C   0  0  0  0  0  0  0  0  0  0  0  0
    2.7276   -7.4237    3.1736 C   0  0  0  0  0  0  0  0  0  0  0  0
    2.1395   -7.1313    1.9955 C   0  0  0  0  0  0  0  0  0  0  0  0
    2.3973   -5.9053    1.1535 C   0  0  0  0  0  0  0  0  0  0  0  0
    3.2725   -4.7897    1.8027 C   0  0  2  0  0  0  0  0  0  0  0  0
    3.6905   -3.6879    0.7106 C   0  0  1  0  0  0  0  0  0  0  0  0
    2.3990   -3.3519   -0.0585 C   0  0  0  0  0  0  0  0  0  0  0  0
    4.2047   -2.3486    1.3092 C   0  0  0  0  0  0  0  0  0  0  0  0
    4.3904   -1.2153    0.2865 C   0  0  0  0  0  0  0  0  0  0  0  0
    4.7098   -1.6985   -1.1543 C   0  0  1  0  0  0  0  0  0  0  0  0
    5.4153   -0.6610   -1.8184 O   0  0  0  0  0  0  0  0  0  0  0  0
    5.3949   -3.1109   -1.2555 C   0  0  0  0  0  0  0  0  0  0  0  0
    5.1664   -3.5961   -2.7042 C   0  0  0  0  0  0  0  0  0  0  0  0
    6.9320   -2.9282   -1.0615 C   0  0  0  0  0  0  0  0  0  0  0  0
    4.7730   -4.2149   -0.2813 C   0  0  1  0  0  0  0  0  0  0  0  0
    5.8339   -5.0864    0.4553 C   0  0  0  0  0  0  0  0  0  0  0  0
    5.3384   -6.0849    1.5290 C   0  0  0  0  0  0  0  0  0  0  0  0
    4.4298   -5.4499    2.6210 C   0  0  2  0  0  0  0  0  0  0  0  0
    5.2569   -4.4061    3.4224 C   0  0  0  0  0  0  0  0  0  0  0  0
    2.2849   -8.6002    4.1226 C   0  0  2  0  0  0  0  0  0  0  0  0
    1.2460   -9.6191    3.4809 C   0  0  1  0  0  0  0  0  0  0  0  0
    1.4869  -11.1302    3.8451 C   0  0  0  0  0  0  0  0  0  0  0  0
   -0.5327   -7.3288    2.6034 H   0  0  0  0  0  0  0  0  0  0  0  0
   -1.9855   -8.3342    2.6599 H   0  0  0  0  0  0  0  0  0  0  0  0
   -0.6770   -8.7646    1.5883 H   0  0  0  0  0  0  0  0  0  0  0  0
   -0.8138  -10.1499    3.5943 H   0  0  0  0  0  0  0  0  0  0  0  0
   -1.5973   -8.1956    5.0087 H   0  0  0  0  0  0  0  0  0  0  0  0
   -0.7470   -9.4110    5.7617 H   0  0  0  0  0  0  0  0  0  0  0  0
    0.3629   -6.7228    4.7710 H   0  0  0  0  0  0  0  0  0  0  0  0
    0.1041   -7.1426    6.4418 H   0  0  0  0  0  0  0  0  0  0  0  0
    1.3870  -10.9381    7.1984 H   0  0  0  0  0  0  0  0  0  0  0  0
    2.2781   -6.2851    6.7840 H   0  0  0  0  0  0  0  0  0  0  0  0
    3.7201   -7.1409    6.4821 H   0  0  0  0  0  0  0  0  0  0  0  0
    2.3785   -5.2335    4.6234 H   0  0  0  0  0  0  0  0  0  0  0  0
    3.9245   -5.1590    5.4280 H   0  0  0  0  0  0  0  0  0  0  0  0
    5.9704   -6.8943    4.3875 H   0  0  0  0  0  0  0  0  0  0  0  0
    5.3538   -8.1237    3.3110 H   0  0  0  0  0  0  0  0  0  0  0  0
    4.8671   -8.0864    4.9635 H   0  0  0  0  0  0  0  0  0  0  0  0
    1.3744   -7.7559    1.5763 H   0  0  0  0  0  0  0  0  0  0  0  0
    2.8029   -6.2431    0.2063 H   0  0  0  0  0  0  0  0  0  0  0  0
    1.4055   -5.5169    0.9332 H   0  0  0  0  0  0  0  0  0  0  0  0
    2.6281   -4.2813    2.5242 H   0  0  0  0  0  0  0  0  0  0  0  0
    2.3413   -2.4099   -0.5668 H   0  0  0  0  0  0  0  0  0  0  0  0
    1.6802   -3.1751    0.7112 H   0  0  0  0  0  0  0  0  0  0  0  0
    2.0739   -4.1105   -0.7778 H   0  0  0  0  0  0  0  0  0  0  0  0
    3.5840   -2.0060    2.1462 H   0  0  0  0  0  0  0  0  0  0  0  0
    5.1959   -2.4979    1.6992 H   0  0  0  0  0  0  0  0  0  0  0  0
    3.4877   -0.6214    0.2420 H   0  0  0  0  0  0  0  0  0  0  0  0
    5.1676   -0.5363    0.6445 H   0  0  0  0  0  0  0  0  0  0  0  0
    3.7783   -1.7424   -1.7255 H   0  0  0  0  0  0  0  0  0  0  0  0
    4.9825    0.1728   -1.6347 H   0  0  0  0  0  0  0  0  0  0  0  0
    5.6142   -4.5692   -2.8564 H   0  0  0  0  0  0  0  0  0  0  0  0
    5.5884   -2.9153   -3.4478 H   0  0  0  0  0  0  0  0  0  0  0  0
    4.1060   -3.7226   -2.9217 H   0  0  0  0  0  0  0  0  0  0  0  0
    7.4832   -3.8533   -1.1741 H   0  0  0  0  0  0  0  0  0  0  0  0
    7.1603   -2.5153   -0.0747 H   0  0  0  0  0  0  0  0  0  0  0  0
    7.3591   -2.2579   -1.8030 H   0  0  0  0  0  0  0  0  0  0  0  0
    4.2362   -4.9275   -0.9195 H   0  0  0  0  0  0  0  0  0  0  0  0
    6.3427   -5.6692   -0.2937 H   0  0  0  0  0  0  0  0  0  0  0  0
    6.6011   -4.4604    0.9154 H   0  0  0  0  0  0  0  0  0  0  0  0
    4.8295   -6.9140    1.0355 H   0  0  0  0  0  0  0  0  0  0  0  0
    6.2290   -6.5244    1.9760 H   0  0  0  0  0  0  0  0  0  0  0  0
    6.0771   -3.9710    2.8672 H   0  0  0  0  0  0  0  0  0  0  0  0
    5.7513   -4.8152    4.3000 H   0  0  0  0  0  0  0  0  0  0  0  0
    4.6357   -3.5830    3.7819 H   0  0  0  0  0  0  0  0  0  0  0  0
    3.1864   -9.1905    4.2347 H   0  0  0  0  0  0  0  0  0  0  0  0
    1.4242   -9.6434    2.4090 H   0  0  0  0  0  0  0  0  0  0  0  0
    1.1549  -11.4234    4.8450 H   0  0  0  0  0  0  0  0  0  0  0  0
    2.5556  -11.3698    3.7330 H   0  0  0  0  0  0  0  0  0  0  0  0
    0.9391  -11.7733    3.1270 H   0  0  0  0  0  0  0  0  0  0  0  0
  1  2  1  0
  1 34  1  0
  1 35  1  0
  1 36  1  0
  2 32  1  0
  2  3  1  0
  2 37  1  1
  3  4  1  0
  3 38  1  0
  3 39  1  0
  4  5  1  0
  4 40  1  0
  4 41  1  0
  5 31  1  0
  5  6  1  1
  5  9  1  0
  6  7  2  0
  6  8  1  0
  8 42  1  0
  9 10  1  0
  9 43  1  0
  9 44  1  0
 10 11  1  0
 10 45  1  0
 10 46  1  0
 11 29  1  0
 11 12  1  1
 11 13  1  0
 12 47  1  0
 12 48  1  0
 12 49  1  0
 13 14  2  0
 13 31  1  0
 14 15  1  0
 14 50  1  0
 15 16  1  0
 15 51  1  0
 15 52  1  0
 16 29  1  0
 16 17  1  0
 16 53  1  1
 17 26  1  0
 17 18  1  6
 17 19  1  0
 18 54  1  0
 18 55  1  0
 18 56  1  0
 19 20  1  0
 19 57  1  0
 19 58  1  0
 20 21  1  0
 20 59  1  0
 20 60  1  0
 21 22  1  0
 21 23  1  0
 21 61  1  6
 22 62  1  0
 23 24  1  0
 23 25  1  0
 23 26  1  0
 24 63  1  0
 24 64  1  0
 24 65  1  0
 25 66  1  0
 25 67  1  0
 25 68  1  0
 26 27  1  0
 26 69  1  6
 27 28  1  0
 27 70  1  0
 27 71  1  0
 28 29  1  0
 28 72  1  0
 28 73  1  0
 29 30  1  1
 30 74  1  0
 30 75  1  0
 30 76  1  0
 31 32  1  0
 31 77  1  1
 32 33  1  0
 32 78  1  6
 33 79  1  0
 33 80  1  0
 33 81  1  0
M  END
>  <i_m_ct_stereo_status>  (63) 
1

>  <s_m_source_file>  (63) 
/var/tmp/pbs.5076255.sched01/tmpikn618da/06v91y69d.sdf

>  <i_m_source_file_index>  (63) 
26

>  <i_lp_mmshare_version>  (63) 
48012

>  <i_f3d_flags>  (63) 
0

>  <s_epik_input>  (63) 
W0NIMl0xW0NIMl1bQ0BASF0oW0NIM10pW0NASF0oW0NIM10pW0NASF0oW0NAXTEyQyg9TylbT0hdKUM9M1tDQF0oW0NIM10pKFtDSDJdW0NIMl0yKVtDQF00KFtDSDNdKVtDQEhdKFtDSDJdW0NIXTMpW0NAXTUoW0NIM10pW0NASF0oW0NIMl1bQ0gyXTQpQyhbQ0gzXSkoW0NIM10pW0NASF0oW09IXSlbQ0gyXVtDSDJdNQ==

>  <s_epik_cmdline>  (63) 
J2VwaWtfcHl0aG9uJywgJy1waHQnLCAnMi4wJywgJy1waCcsICc3LjAnLCAnLXRuJywgJzgnLCAnLW1hJywgJzIwMCcsICctaW1hZScsICc8aW5maWxlLm1hZT4nLCAnLW9tYWUnLCAnPG91dGZpbGUubWFlPic=

>  <r_epik_Ionization_Penalty>  (63) 
2.5279

>  <r_epik_Ionization_Penalty_Charging>  (63) 
0

>  <r_epik_Ionization_Penalty_Neutral>  (63) 
2.5279

>  <r_epik_State_Penalty>  (63) 
2.69484

>  <r_epik_Charging_Adjusted_Penalty>  (63) 
2.69484

>  <i_epik_Tot_Q>  (63) 
0

>  <i_epik_Tot_abs_Q>  (63) 
0

>  <s_lp_Force_Field>  (63) 
OPLS3e

>  <r_lp_Energy>  (63) 
106.535

>  <b_lp_Chiralities_Consistent>  (63) 
1

>  <s_lp_Variant>  (63) 
15:0-2

>  <s_i_glide_gridfile>  (63) 
pfpi4k_grid

>  <i_i_glide_lignum>  (63) 
26

>  <i_i_glide_rotatable_bonds>  (63) 
3

>  <r_i_docking_score>  (63) 
-3.92128

>  <r_i_glide_ligand_efficiency>  (63) 
-0.118827

>  <r_i_glide_ligand_efficiency_sa>  (63) 
-0.381141

>  <r_i_glide_ligand_efficiency_ln>  (63) 
-0.872072

>  <r_i_glide_gscore>  (63) 
-3.92128

>  <r_i_glide_lipo>  (63) 
-0.524758

>  <r_i_glide_hbond>  (63) 
-0.235184

>  <r_i_glide_metal>  (63) 
-0

>  <r_i_glide_rewards>  (63) 
-0.295225

>  <r_i_glide_evdw>  (63) 
-23.4267

>  <r_i_glide_ecoul>  (63) 
-11.6082

>  <r_i_glide_erotb>  (63) 
0.0963637

>  <r_i_glide_esite>  (63) 
-0.0499054

>  <r_i_glide_emodel>  (63) 
-37.7614

>  <r_i_glide_energy>  (63) 
-35.0349

>  <r_i_glide_einternal>  (63) 
6.87371

>  <r_i_glide_intrahb_reward>  (63) 
-0

>  <i_i_glide_confnum>  (63) 
3

>  <i_i_glide_posenum>  (63) 
40

>  <r_i_glide_eff_state_penalty>  (63) 
0

>  <ligand_id>  (63) 
15

>  <original_smiles>  (63) 
CC1CCC2(C(=O)O)CCC3(C)C(=CCC4C5(C)CCC(O)C(C)(C)C5CCC43C)C2C1C

>  <smiles>  (63) 
[H]OC(=O)C12C([H])([H])C([H])([H])C([H])(C([H])([H])[H])C([H])(C([H])([H])[H])C1([H])C1=C([H])C([H])([H])C3([H])C4(C([H])([H])[H])C([H])([H])C([H])([H])C([H])(O[H])C(C([H])([H])[H])(C([H])([H])[H])C4([H])C([H])([H])C([H])([H])C3(C([H])([H])[H])C1(C([H])([H])[H])C([H])([H])C2([H])[H]

$$$$
15:1:1
     RDKit          3D

 81 85  0  0  1  0  0  0  0  0999 V2000
   -1.2437   -8.0503    2.3005 C   0  0  0  0  0  0  0  0  0  0  0  0
   -0.7465   -8.9624    3.4244 C   0  0  2  0  0  0  0  0  0  0  0  0
   -1.0839   -8.3516    4.7890 C   0  0  0  0  0  0  0  0  0  0  0  0
   -0.0543   -7.3334    5.2732 C   0  0  0  0  0  0  0  0  0  0  0  0
    1.3595   -7.9633    5.4392 C   0  0  2  0  0  0  0  0  0  0  0  0
    1.3160   -9.0698    6.5428 C   0  0  0  0  0  0  0  0  0  0  0  0
    0.5714   -9.0019    7.5223 O   0  0  0  0  0  0  0  0  0  0  0  0
    2.2097  -10.0967    6.3528 O   0  0  0  0  0  0  0  0  0  0  0  0
    2.2925   -6.8602    6.0114 C   0  0  0  0  0  0  0  0  0  0  0  0
    2.8655   -5.8667    4.9849 C   0  0  0  0  0  0  0  0  0  0  0  0
    3.5345   -6.5574    3.7600 C   0  0  1  0  0  0  0  0  0  0  0  0
    4.6403   -7.5480    4.2462 C   0  0  0  0  0  0  0  0  0  0  0  0
    2.3772   -7.3561    3.1375 C   0  0  0  0  0  0  0  0  0  0  0  0
    1.8784   -7.0171    1.9336 C   0  0  0  0  0  0  0  0  0  0  0  0
    2.2777   -5.8062    1.1348 C   0  0  0  0  0  0  0  0  0  0  0  0
    3.1654   -4.7538    1.8724 C   0  0  2  0  0  0  0  0  0  0  0  0
    3.7218   -3.6673    0.8378 C   0  0  1  0  0  0  0  0  0  0  0  0
    2.5051   -3.2340   -0.0030 C   0  0  0  0  0  0  0  0  0  0  0  0
    4.2757   -2.3769    1.4982 C   0  0  0  0  0  0  0  0  0  0  0  0
    4.5906   -1.2465    0.5092 C   0  0  0  0  0  0  0  0  0  0  0  0
    4.9575   -1.7557   -0.9072 C   0  0  1  0  0  0  0  0  0  0  0  0
    5.7622   -0.7800   -1.4870 O   0  0  0  0  0  0  0  0  0  0  0  0
    5.5727   -3.1907   -1.0078 C   0  0  0  0  0  0  0  0  0  0  0  0
    5.3826   -3.6196   -2.4793 C   0  0  0  0  0  0  0  0  0  0  0  0
    7.0991   -3.0808   -0.7115 C   0  0  0  0  0  0  0  0  0  0  0  0
    4.8292   -4.2583   -0.0906 C   0  0  1  0  0  0  0  0  0  0  0  0
    5.7900   -5.1997    0.6854 C   0  0  0  0  0  0  0  0  0  0  0  0
    5.1644   -6.1692    1.7128 C   0  0  0  0  0  0  0  0  0  0  0  0
    4.2200   -5.4976    2.7557 C   0  0  2  0  0  0  0  0  0  0  0  0
    5.0558   -4.5146    3.6272 C   0  0  0  0  0  0  0  0  0  0  0  0
    1.8045   -8.5032    4.0184 C   0  0  2  0  0  0  0  0  0  0  0  0
    0.7372   -9.4356    3.3236 C   0  0  1  0  0  0  0  0  0  0  0  0
    0.8412  -10.9100    3.7780 C   0  0  0  0  0  0  0  0  0  0  0  0
   -0.8353   -7.0442    2.3760 H   0  0  0  0  0  0  0  0  0  0  0  0
   -2.3317   -7.9674    2.3420 H   0  0  0  0  0  0  0  0  0  0  0  0
   -0.9990   -8.4672    1.3235 H   0  0  0  0  0  0  0  0  0  0  0  0
   -1.3682   -9.8506    3.2907 H   0  0  0  0  0  0  0  0  0  0  0  0
   -2.0719   -7.9043    4.7469 H   0  0  0  0  0  0  0  0  0  0  0  0
   -1.1606   -9.1207    5.5512 H   0  0  0  0  0  0  0  0  0  0  0  0
   -0.0314   -6.4901    4.5840 H   0  0  0  0  0  0  0  0  0  0  0  0
   -0.4031   -6.9287    6.2244 H   0  0  0  0  0  0  0  0  0  0  0  0
    2.0503  -10.8310    6.9398 H   0  0  0  0  0  0  0  0  0  0  0  0
    1.7435   -6.2740    6.7470 H   0  0  0  0  0  0  0  0  0  0  0  0
    3.1091   -7.2973    6.5836 H   0  0  0  0  0  0  0  0  0  0  0  0
    2.0698   -5.2009    4.6359 H   0  0  0  0  0  0  0  0  0  0  0  0
    3.5516   -5.2219    5.5304 H   0  0  0  0  0  0  0  0  0  0  0  0
    5.5448   -7.0566    4.5889 H   0  0  0  0  0  0  0  0  0  0  0  0
    4.9250   -8.2312    3.4481 H   0  0  0  0  0  0  0  0  0  0  0  0
    4.3328   -8.1823    5.0729 H   0  0  0  0  0  0  0  0  0  0  0  0
    1.1066   -7.5892    1.4655 H   0  0  0  0  0  0  0  0  0  0  0  0
    2.7410   -6.1687    0.2201 H   0  0  0  0  0  0  0  0  0  0  0  0
    1.3312   -5.3610    0.8495 H   0  0  0  0  0  0  0  0  0  0  0  0
    2.5106   -4.2186    2.5623 H   0  0  0  0  0  0  0  0  0  0  0  0
    2.5521   -2.2905   -0.5141 H   0  0  0  0  0  0  0  0  0  0  0  0
    1.7383   -3.0174    0.7177 H   0  0  0  0  0  0  0  0  0  0  0  0
    2.1873   -3.9734   -0.7433 H   0  0  0  0  0  0  0  0  0  0  0  0
    3.6220   -2.0094    2.2861 H   0  0  0  0  0  0  0  0  0  0  0  0
    5.2302   -2.5875    1.9505 H   0  0  0  0  0  0  0  0  0  0  0  0
    3.7411   -0.5657    0.4170 H   0  0  0  0  0  0  0  0  0  0  0  0
    5.4010   -0.6425    0.9130 H   0  0  0  0  0  0  0  0  0  0  0  0
    4.0837   -1.7089   -1.5649 H   0  0  0  0  0  0  0  0  0  0  0  0
    5.3218    0.0457   -1.3625 H   0  0  0  0  0  0  0  0  0  0  0  0
    5.7237   -4.6372   -2.6228 H   0  0  0  0  0  0  0  0  0  0  0  0
    5.9281   -2.9758   -3.1708 H   0  0  0  0  0  0  0  0  0  0  0  0
    4.3280   -3.6045   -2.7682 H   0  0  0  0  0  0  0  0  0  0  0  0
    7.6094   -4.0354   -0.7894 H   0  0  0  0  0  0  0  0  0  0  0  0
    7.2913   -2.6871    0.2906 H   0  0  0  0  0  0  0  0  0  0  0  0
    7.6178   -2.4275   -1.4161 H   0  0  0  0  0  0  0  0  0  0  0  0
    4.2977   -4.9202   -0.7715 H   0  0  0  0  0  0  0  0  0  0  0  0
    6.3226   -5.8111   -0.0359 H   0  0  0  0  0  0  0  0  0  0  0  0
    6.5528   -4.6264    1.2026 H   0  0  0  0  0  0  0  0  0  0  0  0
    4.6419   -6.9620    1.1744 H   0  0  0  0  0  0  0  0  0  0  0  0
    5.9938   -6.6739    2.2115 H   0  0  0  0  0  0  0  0  0  0  0  0
    5.9336   -4.1244    3.1272 H   0  0  0  0  0  0  0  0  0  0  0  0
    5.4696   -4.9711    4.5235 H   0  0  0  0  0  0  0  0  0  0  0  0
    4.4581   -3.6677    3.9621 H   0  0  0  0  0  0  0  0  0  0  0  0
    2.6650   -9.1502    4.1451 H   0  0  0  0  0  0  0  0  0  0  0  0
    0.9866   -9.5222    2.2641 H   0  0  0  0  0  0  0  0  0  0  0  0
    0.4612  -11.0737    4.7874 H   0  0  0  0  0  0  0  0  0  0  0  0
    1.8702  -11.2697    3.7349 H   0  0  0  0  0  0  0  0  0  0  0  0
    0.2532  -11.5612    3.1298 H   0  0  0  0  0  0  0  0  0  0  0  0
  1  2  1  0
  1 34  1  0
  1 35  1  0
  1 36  1  0
  2 32  1  0
  2  3  1  0
  2 37  1  6
  3  4  1  0
  3 38  1  0
  3 39  1  0
  4  5  1  0
  4 40  1  0
  4 41  1  0
  5 31  1  0
  5  6  1  1
  5  9  1  0
  6  7  2  0
  6  8  1  0
  8 42  1  0
  9 10  1  0
  9 43  1  0
  9 44  1  0
 10 11  1  0
 10 45  1  0
 10 46  1  0
 11 29  1  0
 11 12  1  1
 11 13  1  0
 12 47  1  0
 12 48  1  0
 12 49  1  0
 13 14  2  0
 13 31  1  0
 14 15  1  0
 14 50  1  0
 15 16  1  0
 15 51  1  0
 15 52  1  0
 16 29  1  0
 16 17  1  0
 16 53  1  1
 17 26  1  0
 17 18  1  6
 17 19  1  0
 18 54  1  0
 18 55  1  0
 18 56  1  0
 19 20  1  0
 19 57  1  0
 19 58  1  0
 20 21  1  0
 20 59  1  0
 20 60  1  0
 21 22  1  0
 21 23  1  0
 21 61  1  6
 22 62  1  0
 23 24  1  0
 23 25  1  0
 23 26  1  0
 24 63  1  0
 24 64  1  0
 24 65  1  0
 25 66  1  0
 25 67  1  0
 25 68  1  0
 26 27  1  0
 26 69  1  6
 27 28  1  0
 27 70  1  0
 27 71  1  0
 28 29  1  0
 28 72  1  0
 28 73  1  0
 29 30  1  1
 30 74  1  0
 30 75  1  0
 30 76  1  0
 31 32  1  0
 31 77  1  1
 32 33  1  0
 32 78  1  6
 33 79  1  0
 33 80  1  0
 33 81  1  0
M  END
>  <i_m_ct_stereo_status>  (64) 
1

>  <s_m_source_file>  (64) 
/var/tmp/pbs.5076255.sched01/tmpikn618da/06v91y69d.sdf

>  <i_m_source_file_index>  (64) 
26

>  <i_lp_mmshare_version>  (64) 
48012

>  <i_f3d_flags>  (64) 
0

>  <s_epik_input>  (64) 
W0NIMl0xW0NIMl1bQ0BASF0oW0NIM10pW0NASF0oW0NIM10pW0NASF0oW0NAXTEyQyg9TylbT0hdKUM9M1tDQF0oW0NIM10pKFtDSDJdW0NIMl0yKVtDQF00KFtDSDNdKVtDQEhdKFtDSDJdW0NIXTMpW0NAXTUoW0NIM10pW0NASF0oW0NIMl1bQ0gyXTQpQyhbQ0gzXSkoW0NIM10pW0NASF0oW09IXSlbQ0gyXVtDSDJdNQ==

>  <s_epik_cmdline>  (64) 
J2VwaWtfcHl0aG9uJywgJy1waHQnLCAnMi4wJywgJy1waCcsICc3LjAnLCAnLXRuJywgJzgnLCAnLW1hJywgJzIwMCcsICctaW1hZScsICc8aW5maWxlLm1hZT4nLCAnLW9tYWUnLCAnPG91dGZpbGUubWFlPic=

>  <r_epik_Ionization_Penalty>  (64) 
2.5279

>  <r_epik_Ionization_Penalty_Charging>  (64) 
0

>  <r_epik_Ionization_Penalty_Neutral>  (64) 
2.5279

>  <r_epik_State_Penalty>  (64) 
2.69484

>  <r_epik_Charging_Adjusted_Penalty>  (64) 
2.69484

>  <i_epik_Tot_Q>  (64) 
0

>  <i_epik_Tot_abs_Q>  (64) 
0

>  <s_lp_Force_Field>  (64) 
OPLS3e

>  <r_lp_Energy>  (64) 
106.535

>  <b_lp_Chiralities_Consistent>  (64) 
1

>  <s_lp_Variant>  (64) 
15:0-2

>  <s_i_glide_gridfile>  (64) 
pfpi4k_grid

>  <i_i_glide_lignum>  (64) 
26

>  <i_i_glide_rotatable_bonds>  (64) 
3

>  <r_i_docking_score>  (64) 
-3.77126

>  <r_i_glide_ligand_efficiency>  (64) 
-0.11428

>  <r_i_glide_ligand_efficiency_sa>  (64) 
-0.366559

>  <r_i_glide_ligand_efficiency_ln>  (64) 
-0.838708

>  <r_i_glide_gscore>  (64) 
-3.77126

>  <r_i_glide_lipo>  (64) 
-0.559811

>  <r_i_glide_hbond>  (64) 
-0.318217

>  <r_i_glide_metal>  (64) 
-0

>  <r_i_glide_rewards>  (64) 
-0.295225

>  <r_i_glide_evdw>  (64) 
-25.7789

>  <r_i_glide_ecoul>  (64) 
-9.01953

>  <r_i_glide_erotb>  (64) 
0.0963637

>  <r_i_glide_esite>  (64) 
-0.0524903

>  <r_i_glide_emodel>  (64) 
-41.1312

>  <r_i_glide_energy>  (64) 
-34.7985

>  <r_i_glide_einternal>  (64) 
1.98144

>  <r_i_glide_intrahb_reward>  (64) 
-0

>  <i_i_glide_confnum>  (64) 
3

>  <i_i_glide_posenum>  (64) 
1

>  <r_i_glide_eff_state_penalty>  (64) 
0

>  <ligand_id>  (64) 
15

>  <original_smiles>  (64) 
CC1CCC2(C(=O)O)CCC3(C)C(=CCC4C5(C)CCC(O)C(C)(C)C5CCC43C)C2C1C

>  <smiles>  (64) 
[H]OC(=O)C12C([H])([H])C([H])([H])C([H])(C([H])([H])[H])C([H])(C([H])([H])[H])C1([H])C1=C([H])C([H])([H])C3([H])C4(C([H])([H])[H])C([H])([H])C([H])([H])C([H])(O[H])C(C([H])([H])[H])(C([H])([H])[H])C4([H])C([H])([H])C([H])([H])C3(C([H])([H])[H])C1(C([H])([H])[H])C([H])([H])C2([H])[H]

$$$$
15:1:2
     RDKit          3D

 81 85  0  0  1  0  0  0  0  0999 V2000
    0.7968   -4.6056    6.4274 C   0  0  0  0  0  0  0  0  0  0  0  0
    0.0430   -5.9300    6.2086 C   0  0  2  0  0  0  0  0  0  0  0  0
    0.7540   -7.0405    6.9787 C   0  0  0  0  0  0  0  0  0  0  0  0
    1.8821   -7.6975    6.1538 C   0  0  0  0  0  0  0  0  0  0  0  0
    1.4762   -8.2819    4.7833 C   0  0  2  0  0  0  0  0  0  0  0  0
    0.5116   -9.4840    4.9850 C   0  0  0  0  0  0  0  0  0  0  0  0
    0.1488   -9.8424    6.0931 O   0  0  0  0  0  0  0  0  0  0  0  0
    0.1933  -10.1167    3.8266 O   0  0  0  0  0  0  0  0  0  0  0  0
    2.7167   -8.9256    4.0910 C   0  0  0  0  0  0  0  0  0  0  0  0
    3.5897   -7.9469    3.3141 C   0  0  0  0  0  0  0  0  0  0  0  0
    2.7781   -7.0507    2.3416 C   0  0  1  0  0  0  0  0  0  0  0  0
    1.9324   -7.9766    1.4336 C   0  0  0  0  0  0  0  0  0  0  0  0
    1.8404   -6.2583    3.2311 C   0  0  0  0  0  0  0  0  0  0  0  0
    2.0067   -4.9309    3.3980 C   0  0  0  0  0  0  0  0  0  0  0  0
    3.1629   -4.1256    2.8640 C   0  0  0  0  0  0  0  0  0  0  0  0
    4.3474   -4.9370    2.2555 C   0  0  2  0  0  0  0  0  0  0  0  0
    5.3498   -3.9475    1.4887 C   0  0  1  0  0  0  0  0  0  0  0  0
    5.5739   -2.7814    2.4861 C   0  0  0  0  0  0  0  0  0  0  0  0
    6.7223   -4.5997    1.1544 C   0  0  0  0  0  0  0  0  0  0  0  0
    7.7529   -3.6653    0.5414 C   0  0  0  0  0  0  0  0  0  0  0  0
    7.1501   -2.4504   -0.1610 C   0  0  1  0  0  0  0  0  0  0  0  0
    8.1944   -2.1320   -1.0267 O   0  0  0  0  0  0  0  0  0  0  0  0
    5.7436   -2.6037   -0.8224 C   0  0  0  0  0  0  0  0  0  0  0  0
    5.1302   -1.2147   -1.0894 C   0  0  0  0  0  0  0  0  0  0  0  0
    5.9019   -3.2291   -2.2267 C   0  0  0  0  0  0  0  0  0  0  0  0
    4.7419   -3.3878    0.1427 C   0  0  1  0  0  0  0  0  0  0  0  0
    3.9613   -4.4923   -0.5889 C   0  0  0  0  0  0  0  0  0  0  0  0
    3.0562   -5.4297    0.2582 C   0  0  0  0  0  0  0  0  0  0  0  0
    3.7614   -6.1340    1.4464 C   0  0  2  0  0  0  0  0  0  0  0  0
    4.8708   -7.0610    0.8776 C   0  0  0  0  0  0  0  0  0  0  0  0
    0.7923   -7.1247    3.9635 C   0  0  2  0  0  0  0  0  0  0  0  0
   -0.2820   -6.3011    4.7231 C   0  0  1  0  0  0  0  0  0  0  0  0
   -1.6386   -7.0161    4.5923 C   0  0  0  0  0  0  0  0  0  0  0  0
    1.8383   -4.6631    6.1039 H   0  0  0  0  0  0  0  0  0  0  0  0
    0.8118   -4.3580    7.4902 H   0  0  0  0  0  0  0  0  0  0  0  0
    0.2994   -3.7793    5.9144 H   0  0  0  0  0  0  0  0  0  0  0  0
   -0.9112   -5.7571    6.7078 H   0  0  0  0  0  0  0  0  0  0  0  0
    1.1940   -6.6431    7.8970 H   0  0  0  0  0  0  0  0  0  0  0  0
    0.0023   -7.7489    7.3166 H   0  0  0  0  0  0  0  0  0  0  0  0
    2.6647   -6.9653    5.9790 H   0  0  0  0  0  0  0  0  0  0  0  0
    2.3516   -8.4753    6.7532 H   0  0  0  0  0  0  0  0  0  0  0  0
    0.6172   -9.7666    3.0604 H   0  0  0  0  0  0  0  0  0  0  0  0
    3.3393   -9.3996    4.8417 H   0  0  0  0  0  0  0  0  0  0  0  0
    2.4909   -9.7319    3.3914 H   0  0  0  0  0  0  0  0  0  0  0  0
    4.1675   -7.3261    4.0025 H   0  0  0  0  0  0  0  0  0  0  0  0
    4.3095   -8.5629    2.7787 H   0  0  0  0  0  0  0  0  0  0  0  0
    2.5629   -8.6645    0.8961 H   0  0  0  0  0  0  0  0  0  0  0  0
    1.2630   -7.4088    0.7978 H   0  0  0  0  0  0  0  0  0  0  0  0
    1.2794   -8.6648    1.9531 H   0  0  0  0  0  0  0  0  0  0  0  0
    1.3426   -4.3297    3.9745 H   0  0  0  0  0  0  0  0  0  0  0  0
    2.7398   -3.4192    2.1416 H   0  0  0  0  0  0  0  0  0  0  0  0
    3.5150   -3.5676    3.7295 H   0  0  0  0  0  0  0  0  0  0  0  0
    4.9163   -5.3778    3.0752 H   0  0  0  0  0  0  0  0  0  0  0  0
    6.4674   -2.2058    2.3238 H   0  0  0  0  0  0  0  0  0  0  0  0
    5.7120   -3.1820    3.4899 H   0  0  0  0  0  0  0  0  0  0  0  0
    4.7465   -2.0700    2.4892 H   0  0  0  0  0  0  0  0  0  0  0  0
    7.1280   -5.1444    1.9984 H   0  0  0  0  0  0  0  0  0  0  0  0
    6.5785   -5.3266    0.3664 H   0  0  0  0  0  0  0  0  0  0  0  0
    8.4518   -3.2715    1.2674 H   0  0  0  0  0  0  0  0  0  0  0  0
    8.3583   -4.2728   -0.1338 H   0  0  0  0  0  0  0  0  0  0  0  0
    7.0620   -1.6108    0.5194 H   0  0  0  0  0  0  0  0  0  0  0  0
    8.3880   -2.9021   -1.5403 H   0  0  0  0  0  0  0  0  0  0  0  0
    4.1564   -1.2985   -1.5785 H   0  0  0  0  0  0  0  0  0  0  0  0
    5.7654   -0.6273   -1.7445 H   0  0  0  0  0  0  0  0  0  0  0  0
    4.9819   -0.6502   -0.1682 H   0  0  0  0  0  0  0  0  0  0  0  0
    4.9673   -3.3043   -2.7902 H   0  0  0  0  0  0  0  0  0  0  0  0
    6.3341   -4.2126   -2.1423 H   0  0  0  0  0  0  0  0  0  0  0  0
    6.5850   -2.6643   -2.8531 H   0  0  0  0  0  0  0  0  0  0  0  0
    3.9660   -2.6781    0.4373 H   0  0  0  0  0  0  0  0  0  0  0  0
    3.3281   -4.0182   -1.3328 H   0  0  0  0  0  0  0  0  0  0  0  0
    4.6419   -5.1075   -1.1531 H   0  0  0  0  0  0  0  0  0  0  0  0
    2.1889   -4.8504    0.5791 H   0  0  0  0  0  0  0  0  0  0  0  0
    2.6543   -6.2241   -0.3635 H   0  0  0  0  0  0  0  0  0  0  0  0
    5.2431   -6.7280   -0.0772 H   0  0  0  0  0  0  0  0  0  0  0  0
    4.5340   -8.0656    0.6499 H   0  0  0  0  0  0  0  0  0  0  0  0
    5.7093   -7.1556    1.5646 H   0  0  0  0  0  0  0  0  0  0  0  0
    0.1950   -7.5867    3.1895 H   0  0  0  0  0  0  0  0  0  0  0  0
   -0.4534   -5.3587    4.1947 H   0  0  0  0  0  0  0  0  0  0  0  0
   -1.6270   -7.9859    5.0933 H   0  0  0  0  0  0  0  0  0  0  0  0
   -1.9338   -7.1940    3.5568 H   0  0  0  0  0  0  0  0  0  0  0  0
   -2.4201   -6.4061    5.0512 H   0  0  0  0  0  0  0  0  0  0  0  0
  1  2  1  0
  1 34  1  0
  1 35  1  0
  1 36  1  0
  2 32  1  0
  2  3  1  0
  2 37  1  1
  3  4  1  0
  3 38  1  0
  3 39  1  0
  4  5  1  0
  4 40  1  0
  4 41  1  0
  5 31  1  0
  5  6  1  1
  5  9  1  0
  6  7  2  0
  6  8  1  0
  8 42  1  0
  9 10  1  0
  9 43  1  0
  9 44  1  0
 10 11  1  0
 10 45  1  0
 10 46  1  0
 11 29  1  0
 11 12  1  6
 11 13  1  0
 12 47  1  0
 12 48  1  0
 12 49  1  0
 13 14  2  0
 13 31  1  0
 14 15  1  0
 14 50  1  0
 15 16  1  0
 15 51  1  0
 15 52  1  0
 16 29  1  0
 16 17  1  0
 16 53  1  1
 17 26  1  0
 17 18  1  1
 17 19  1  0
 18 54  1  0
 18 55  1  0
 18 56  1  0
 19 20  1  0
 19 57  1  0
 19 58  1  0
 20 21  1  0
 20 59  1  0
 20 60  1  0
 21 22  1  0
 21 23  1  0
 21 61  1  1
 22 62  1  0
 23 24  1  0
 23 25  1  0
 23 26  1  0
 24 63  1  0
 24 64  1  0
 24 65  1  0
 25 66  1  0
 25 67  1  0
 25 68  1  0
 26 27  1  0
 26 69  1  1
 27 28  1  0
 27 70  1  0
 27 71  1  0
 28 29  1  0
 28 72  1  0
 28 73  1  0
 29 30  1  6
 30 74  1  0
 30 75  1  0
 30 76  1  0
 31 32  1  0
 31 77  1  6
 32 33  1  0
 32 78  1  6
 33 79  1  0
 33 80  1  0
 33 81  1  0
M  END
>  <i_m_ct_stereo_status>  (65) 
1

>  <s_m_source_file>  (65) 
/var/tmp/pbs.5076255.sched01/tmpikn618da/06v91y69d.sdf

>  <i_m_source_file_index>  (65) 
26

>  <i_lp_mmshare_version>  (65) 
48012

>  <i_f3d_flags>  (65) 
0

>  <s_epik_input>  (65) 
W0NIMl0xW0NIMl1bQ0BASF0oW0NIM10pW0NASF0oW0NIM10pW0NASF0oW0NAXTEyQyg9TylbT0hdKUM9M1tDQF0oW0NIM10pKFtDSDJdW0NIMl0yKVtDQF00KFtDSDNdKVtDQEhdKFtDSDJdW0NIXTMpW0NAXTUoW0NIM10pW0NASF0oW0NIMl1bQ0gyXTQpQyhbQ0gzXSkoW0NIM10pW0NASF0oW09IXSlbQ0gyXVtDSDJdNQ==

>  <s_epik_cmdline>  (65) 
J2VwaWtfcHl0aG9uJywgJy1waHQnLCAnMi4wJywgJy1waCcsICc3LjAnLCAnLXRuJywgJzgnLCAnLW1hJywgJzIwMCcsICctaW1hZScsICc8aW5maWxlLm1hZT4nLCAnLW9tYWUnLCAnPG91dGZpbGUubWFlPic=

>  <r_epik_Ionization_Penalty>  (65) 
2.5279

>  <r_epik_Ionization_Penalty_Charging>  (65) 
0

>  <r_epik_Ionization_Penalty_Neutral>  (65) 
2.5279

>  <r_epik_State_Penalty>  (65) 
2.69484

>  <r_epik_Charging_Adjusted_Penalty>  (65) 
2.69484

>  <i_epik_Tot_Q>  (65) 
0

>  <i_epik_Tot_abs_Q>  (65) 
0

>  <s_lp_Force_Field>  (65) 
OPLS3e

>  <r_lp_Energy>  (65) 
106.535

>  <b_lp_Chiralities_Consistent>  (65) 
1

>  <s_lp_Variant>  (65) 
15:0-2

>  <s_i_glide_gridfile>  (65) 
pfpi4k_grid

>  <i_i_glide_lignum>  (65) 
26

>  <i_i_glide_rotatable_bonds>  (65) 
3

>  <r_i_docking_score>  (65) 
-2.81801

>  <r_i_glide_ligand_efficiency>  (65) 
-0.0853941

>  <r_i_glide_ligand_efficiency_sa>  (65) 
-0.273905

>  <r_i_glide_ligand_efficiency_ln>  (65) 
-0.62671

>  <r_i_glide_gscore>  (65) 
-2.81801

>  <r_i_glide_lipo>  (65) 
-0.746727

>  <r_i_glide_hbond>  (65) 
-0.158704

>  <r_i_glide_metal>  (65) 
-0

>  <r_i_glide_rewards>  (65) 
-0.295225

>  <r_i_glide_evdw>  (65) 
-22.4939

>  <r_i_glide_ecoul>  (65) 
-3.54161

>  <r_i_glide_erotb>  (65) 
0.0963637

>  <r_i_glide_esite>  (65) 
-0.0577751

>  <r_i_glide_emodel>  (65) 
-27.4904

>  <r_i_glide_energy>  (65) 
-26.0355

>  <r_i_glide_einternal>  (65) 
3.60282

>  <r_i_glide_intrahb_reward>  (65) 
-0

>  <i_i_glide_confnum>  (65) 
3

>  <i_i_glide_posenum>  (65) 
24

>  <r_i_glide_eff_state_penalty>  (65) 
0

>  <ligand_id>  (65) 
15

>  <original_smiles>  (65) 
CC1CCC2(C(=O)O)CCC3(C)C(=CCC4C5(C)CCC(O)C(C)(C)C5CCC43C)C2C1C

>  <smiles>  (65) 
[H]OC(=O)C12C([H])([H])C([H])([H])C([H])(C([H])([H])[H])C([H])(C([H])([H])[H])C1([H])C1=C([H])C([H])([H])C3([H])C4(C([H])([H])[H])C([H])([H])C([H])([H])C([H])(O[H])C(C([H])([H])[H])(C([H])([H])[H])C4([H])C([H])([H])C([H])([H])C3(C([H])([H])[H])C1(C([H])([H])[H])C([H])([H])C2([H])[H]

$$$$
16:1:0
     RDKit          3D

 73 79  0  0  1  0  0  0  0  0999 V2000
   -3.2386    3.0557    2.9207 C   0  0  0  0  0  0  0  0  0  0  0  0
   -2.2251    2.4051    3.8740 C   0  0  2  0  0  0  0  0  0  0  0  0
   -2.1953    3.2057    5.2333 C   0  0  1  0  0  0  0  0  0  0  0  0
   -1.2951    2.4835    6.2377 C   0  0  0  0  0  0  0  0  0  0  0  0
    0.0355    2.8889    5.6018 C   0  0  1  0  0  0  0  0  0  0  0  0
    0.3338    2.0814    4.3128 C   0  0  1  0  0  0  0  0  0  0  0  0
    0.6604    0.5787    4.5811 C   0  0  1  0  0  0  0  0  0  0  0  0
   -0.6661    0.0912    4.6391 O   0  0  0  0  0  0  0  0  0  0  0  0
    1.6044   -0.2577    3.7716 C   0  0  1  0  0  0  0  0  0  0  0  0
    1.2104   -0.8094    2.5302 O   0  0  0  0  0  0  0  0  0  0  0  0
    3.0622    0.5345    3.5708 C   0  0  1  0  0  0  0  0  0  0  0  0
    2.9908    1.5194    2.5701 O   0  0  0  0  0  0  0  0  0  0  0  0
    3.8997    1.2237    4.8102 C   0  0  1  0  0  0  0  0  0  0  0  0
    5.1727    0.4164    5.1644 C   0  0  0  0  0  0  0  0  0  0  0  0
    5.0127   -0.7110    6.0715 O   0  0  0  0  0  0  0  0  0  0  0  0
    3.9384   -1.5461    5.8642 C   0  0  0  0  0  0  0  0  0  0  0  0
    2.6345   -1.1434    5.7783 C   0  0  0  0  0  0  0  0  0  0  0  0
    1.5902   -1.3205    4.9497 C   0  0  2  0  0  0  0  0  0  0  0  0
    0.4691   -2.3021    5.4035 C   0  0  0  0  0  0  0  0  0  0  0  0
   -0.1254   -1.9182    6.8334 C   0  0  1  0  0  0  0  0  0  0  0  0
   -0.5101   -3.0893    7.4907 O   0  0  0  0  0  0  0  0  0  0  0  0
    0.7514   -1.0571    7.8278 C   0  0  0  0  0  0  0  0  0  0  0  0
    1.1420    0.2996    7.1949 C   0  0  1  0  0  0  0  0  0  0  0  0
    2.3130    1.0958    7.8708 C   0  0  0  0  0  0  0  0  0  0  0  0
    2.5655    0.8402    9.0498 O   0  0  0  0  0  0  0  0  0  0  0  0
    3.0483    2.3515    7.2138 C   0  0  0  0  0  0  0  0  0  0  0  0
    3.4825    2.5044    5.6627 C   0  0  1  0  0  0  0  0  0  0  0  0
    4.6069    3.3668    5.6786 O   0  0  0  0  0  0  0  0  0  0  0  0
    1.5050   -0.0179    5.7883 C   0  0  1  0  0  0  0  0  0  0  0  0
   -0.8022    2.3327    3.2319 C   0  0  1  0  0  0  0  0  0  0  0  0
   -0.6829    1.4046    2.0132 C   0  0  0  0  0  0  0  0  0  0  0  0
   -0.1930    4.4140    5.3585 C   0  0  0  0  0  0  0  0  0  0  0  0
    0.1428    5.1691    6.6810 C   0  0  0  0  0  0  0  0  0  0  0  0
    0.6864    5.1051    4.2577 C   0  0  0  0  0  0  0  0  0  0  0  0
   -1.5905    4.5012    5.0517 O   0  0  0  0  0  0  0  0  0  0  0  0
   -2.9786    4.0708    2.5938 H   0  0  0  0  0  0  0  0  0  0  0  0
   -4.2138    3.0932    3.3843 H   0  0  0  0  0  0  0  0  0  0  0  0
   -3.3591    2.4558    2.0228 H   0  0  0  0  0  0  0  0  0  0  0  0
   -2.5748    1.3788    4.0885 H   0  0  0  0  0  0  0  0  0  0  0  0
   -3.1997    3.2347    5.6736 H   0  0  0  0  0  0  0  0  0  0  0  0
   -1.3804    2.9014    7.2482 H   0  0  0  0  0  0  0  0  0  0  0  0
   -1.5226    1.4058    6.3230 H   0  0  0  0  0  0  0  0  0  0  0  0
    0.8476    2.7706    6.3089 H   0  0  0  0  0  0  0  0  0  0  0  0
    1.1834    2.5398    3.8796 H   0  0  0  0  0  0  0  0  0  0  0  0
   -1.1167    0.3888    3.8412 H   0  0  0  0  0  0  0  0  0  0  0  0
    1.2817   -0.1007    1.8910 H   0  0  0  0  0  0  0  0  0  0  0  0
    3.7303   -0.1959    3.1119 H   0  0  0  0  0  0  0  0  0  0  0  0
    3.8418    1.9830    2.4731 H   0  0  0  0  0  0  0  0  0  0  0  0
    3.5536    0.8499    5.6836 H   0  0  0  0  0  0  0  0  0  0  0  0
    5.6660    0.0870    4.2438 H   0  0  0  0  0  0  0  0  0  0  0  0
    5.8607    1.0785    5.6753 H   0  0  0  0  0  0  0  0  0  0  0  0
    4.1997   -2.4153    5.2763 H   0  0  0  0  0  0  0  0  0  0  0  0
   -0.3160   -2.3395    4.6346 H   0  0  0  0  0  0  0  0  0  0  0  0
    0.8971   -3.3163    5.4201 H   0  0  0  0  0  0  0  0  0  0  0  0
   -1.0414   -1.3563    6.6734 H   0  0  0  0  0  0  0  0  0  0  0  0
    0.2692   -3.6098    7.6270 H   0  0  0  0  0  0  0  0  0  0  0  0
    0.1925   -0.8590    8.7438 H   0  0  0  0  0  0  0  0  0  0  0  0
    1.6345   -1.6218    8.1342 H   0  0  0  0  0  0  0  0  0  0  0  0
    0.2590    0.9193    7.2321 H   0  0  0  0  0  0  0  0  0  0  0  0
    2.5127    3.2659    7.4972 H   0  0  0  0  0  0  0  0  0  0  0  0
    3.9624    2.4227    7.7940 H   0  0  0  0  0  0  0  0  0  0  0  0
    2.7536    3.0926    5.1130 H   0  0  0  0  0  0  0  0  0  0  0  0
    4.3669    4.2072    6.0378 H   0  0  0  0  0  0  0  0  0  0  0  0
   -0.6547    3.3208    2.8208 H   0  0  0  0  0  0  0  0  0  0  0  0
   -0.9080    0.3501    2.2018 H   0  0  0  0  0  0  0  0  0  0  0  0
    0.2777    1.5608    1.4992 H   0  0  0  0  0  0  0  0  0  0  0  0
   -1.4326    1.7280    1.2982 H   0  0  0  0  0  0  0  0  0  0  0  0
    1.1884    5.0226    6.9588 H   0  0  0  0  0  0  0  0  0  0  0  0
   -0.4458    4.8586    7.5408 H   0  0  0  0  0  0  0  0  0  0  0  0
    0.0248    6.2422    6.5658 H   0  0  0  0  0  0  0  0  0  0  0  0
    1.7186    5.2062    4.6136 H   0  0  0  0  0  0  0  0  0  0  0  0
    0.3222    6.1196    4.0973 H   0  0  0  0  0  0  0  0  0  0  0  0
    0.7083    4.6155    3.2912 H   0  0  0  0  0  0  0  0  0  0  0  0
  1  2  1  0
  1 36  1  0
  1 37  1  0
  1 38  1  0
  2 30  1  0
  2  3  1  0
  2 39  1  1
  3 35  1  0
  3  4  1  0
  3 40  1  1
  4  5  1  0
  4 41  1  0
  4 42  1  0
  5  6  1  0
  5 32  1  0
  5 43  1  1
  6  7  1  0
  6 30  1  0
  6 44  1  6
  7 29  1  0
  7  8  1  1
  7  9  1  0
  8 45  1  0
  9 18  1  0
  9 10  1  6
  9 11  1  0
 10 46  1  0
 11 12  1  0
 11 13  1  0
 11 47  1  6
 12 48  1  0
 13 27  1  0
 13 14  1  0
 13 49  1  6
 14 15  1  0
 14 50  1  0
 14 51  1  0
 15 16  1  0
 16 17  2  3
 16 52  1  0
 29 17  1  6
 17 18  1  0
 18 29  1  0
 18 19  1  6
 19 20  1  0
 19 53  1  0
 19 54  1  0
 20 21  1  0
 20 22  1  0
 20 55  1  6
 21 56  1  0
 22 23  1  0
 22 57  1  0
 22 58  1  0
 23 24  1  0
 23 29  1  0
 23 59  1  6
 24 25  2  0
 24 26  1  0
 26 27  1  0
 26 60  1  0
 26 61  1  0
 27 28  1  0
 27 62  1  6
 28 63  1  0
 30 31  1  0
 30 64  1  6
 31 65  1  0
 31 66  1  0
 31 67  1  0
 32 33  1  0
 32 34  1  0
 32 35  1  0
 33 68  1  0
 33 69  1  0
 33 70  1  0
 34 71  1  0
 34 72  1  0
 34 73  1  0
M  END
>  <i_m_ct_stereo_status>  (66) 
1

>  <s_m_source_file>  (66) 
/var/tmp/pbs.5076255.sched01/tmpikn618da/06v91y69d.sdf

>  <i_m_source_file_index>  (66) 
28

>  <i_lp_mmshare_version>  (66) 
48012

>  <i_f3d_flags>  (66) 
0

>  <s_epik_input>  (66) 
W0NIM11bQ0BIXShbQ0BASF0xMilbQ0BIXShbQ0gzXSlbQ0BASF0oW0NASF0oW0NIMl0xKUMoTzIpKFtDSDNdKVtDSDNdKVtDQEBdMyhbT0hdKVtDQEBdNChbT0hdKVtDQEBIXShbT0hdKVtDQEBIXShbQ0gyXU8vW0NIXT1DXDVDMzZDNDU3KVtDQEhdKFtPSF0pW0NIMl1DKD1PKVtDQEBIXTZbQ0gyXVtDQEBIXShbQ0gyXTcpW09IXQ==

>  <s_epik_cmdline>  (66) 
J2VwaWtfcHl0aG9uJywgJy1waHQnLCAnMi4wJywgJy1waCcsICc3LjAnLCAnLXRuJywgJzgnLCAnLW1hJywgJzIwMCcsICctaW1hZScsICc8aW5maWxlLm1hZT4nLCAnLW9tYWUnLCAnPG91dGZpbGUubWFlPic=

>  <r_lp_tautomer_probability>  (66) 
1

>  <r_epik_Ionization_Penalty>  (66) 
3.80149e-07

>  <r_epik_Ionization_Penalty_Charging>  (66) 
0

>  <r_epik_Ionization_Penalty_Neutral>  (66) 
3.80149e-07

>  <r_epik_State_Penalty>  (66) 
-0

>  <r_epik_Charging_Adjusted_Penalty>  (66) 
0

>  <i_epik_Tot_Q>  (66) 
0

>  <i_epik_Tot_abs_Q>  (66) 
0

>  <s_lp_Force_Field>  (66) 
OPLS3e

>  <r_lp_Energy>  (66) 
201.938

>  <b_lp_Chiralities_Consistent>  (66) 
1

>  <s_lp_Variant>  (66) 
16:0-2

>  <s_i_glide_gridfile>  (66) 
pfpi4k_grid

>  <i_i_glide_lignum>  (66) 
28

>  <i_i_glide_rotatable_bonds>  (66) 
6

>  <r_i_docking_score>  (66) 
-2.28025

>  <r_i_glide_ligand_efficiency>  (66) 
-0.0651499

>  <r_i_glide_ligand_efficiency_sa>  (66) 
-0.21311

>  <r_i_glide_ligand_efficiency_ln>  (66) 
-0.500564

>  <r_i_glide_gscore>  (66) 
-2.28025

>  <r_i_glide_lipo>  (66) 
-0.0762264

>  <r_i_glide_hbond>  (66) 
-0.0434029

>  <r_i_glide_metal>  (66) 
-0

>  <r_i_glide_rewards>  (66) 
-0.0641876

>  <r_i_glide_evdw>  (66) 
-23.0961

>  <r_i_glide_ecoul>  (66) 
-6.84121

>  <r_i_glide_erotb>  (66) 
0.0845606

>  <r_i_glide_esite>  (66) 
0

>  <r_i_glide_emodel>  (66) 
-30.774

>  <r_i_glide_energy>  (66) 
-29.9374

>  <r_i_glide_einternal>  (66) 
0.824308

>  <r_i_glide_intrahb_reward>  (66) 
-0

>  <i_i_glide_confnum>  (66) 
2

>  <i_i_glide_posenum>  (66) 
36

>  <r_i_glide_eff_state_penalty>  (66) 
0

>  <ligand_id>  (66) 
16

>  <original_smiles>  (66) 
CC1C2CC(C(C3(O)C4(O)C(O)C5COC=C6C47CC(O)CC(C(=O)CC5O)C673)C1C)C(C)(C)O2

>  <smiles>  (66) 
[H]OC1([H])C([H])([H])C2([H])C(=O)C([H])([H])C([H])(O[H])C3([H])C([H])([H])OC([H])=C4C5(C1([H])[H])C(O[H])(C3([H])O[H])C(O[H])(C1([H])C([H])(C([H])([H])[H])C([H])(C([H])([H])[H])C3([H])OC(C([H])([H])[H])(C([H])([H])[H])C1([H])C3([H])[H])C425

$$$$
16:1:1
     RDKit          3D

 73 79  0  0  1  0  0  0  0  0999 V2000
   -3.1269    3.0757    3.0550 C   0  0  0  0  0  0  0  0  0  0  0  0
   -2.1350    2.3618    3.9801 C   0  0  2  0  0  0  0  0  0  0  0  0
   -2.0482    3.1093    5.3669 C   0  0  1  0  0  0  0  0  0  0  0  0
   -1.1757    2.3249    6.3451 C   0  0  0  0  0  0  0  0  0  0  0  0
    0.1627    2.6798    5.7009 C   0  0  1  0  0  0  0  0  0  0  0  0
    0.3917    1.8944    4.3875 C   0  0  1  0  0  0  0  0  0  0  0  0
    0.6042    0.3726    4.6128 C   0  0  1  0  0  0  0  0  0  0  0  0
   -0.6998   -0.1180    4.6316 O   0  0  0  0  0  0  0  0  0  0  0  0
    1.4905   -0.4790    3.7487 C   0  0  1  0  0  0  0  0  0  0  0  0
    1.0488   -1.0109    2.5246 O   0  0  0  0  0  0  0  0  0  0  0  0
    2.9762    0.2217    3.5292 C   0  0  1  0  0  0  0  0  0  0  0  0
    2.9076    1.1966    2.4984 O   0  0  0  0  0  0  0  0  0  0  0  0
    3.9115    0.8233    4.7515 C   0  0  1  0  0  0  0  0  0  0  0  0
    5.1580   -0.0688    5.0735 C   0  0  0  0  0  0  0  0  0  0  0  0
    4.9525   -1.2171    5.9531 O   0  0  0  0  0  0  0  0  0  0  0  0
    3.8183   -1.9648    5.7284 C   0  0  0  0  0  0  0  0  0  0  0  0
    2.5336   -1.4750    5.6967 C   0  0  0  0  0  0  0  0  0  0  0  0
    1.4770   -1.5787    4.8870 C   0  0  2  0  0  0  0  0  0  0  0  0
    0.3171   -2.5321    5.3493 C   0  0  0  0  0  0  0  0  0  0  0  0
   -0.2146   -2.1677    6.8080 C   0  0  1  0  0  0  0  0  0  0  0  0
   -0.6430   -3.3453    7.4281 O   0  0  0  0  0  0  0  0  0  0  0  0
    0.7255   -1.3695    7.7974 C   0  0  0  0  0  0  0  0  0  0  0  0
    1.1658   -0.0180    7.1938 C   0  0  1  0  0  0  0  0  0  0  0  0
    2.3917    0.6959    7.8645 C   0  0  0  0  0  0  0  0  0  0  0  0
    2.6610    0.3958    9.0354 O   0  0  0  0  0  0  0  0  0  0  0  0
    3.1839    1.9208    7.2258 C   0  0  0  0  0  0  0  0  0  0  0  0
    3.5879    2.0871    5.6713 C   0  0  1  0  0  0  0  0  0  0  0  0
    4.7516    2.8963    5.7332 O   0  0  0  0  0  0  0  0  0  0  0  0
    1.4622   -0.3017    5.7666 C   0  0  1  0  0  0  0  0  0  0  0  0
   -0.7290    2.2492    3.3126 C   0  0  1  0  0  0  0  0  0  0  0  0
   -0.6984    1.3531    2.0432 C   0  0  0  0  0  0  0  0  0  0  0  0
    0.0144    4.2107    5.5036 C   0  0  0  0  0  0  0  0  0  0  0  0
    0.4115    4.9107    6.8341 C   0  0  0  0  0  0  0  0  0  0  0  0
    0.9106    4.8746    4.4053 C   0  0  0  0  0  0  0  0  0  0  0  0
   -1.3844    4.3765    5.2293 O   0  0  0  0  0  0  0  0  0  0  0  0
   -2.8106    4.0826    2.7560 H   0  0  0  0  0  0  0  0  0  0  0  0
   -4.0973    3.1510    3.5282 H   0  0  0  0  0  0  0  0  0  0  0  0
   -3.2839    2.5128    2.1374 H   0  0  0  0  0  0  0  0  0  0  0  0
   -2.5158    1.3418    4.1283 H   0  0  0  0  0  0  0  0  0  0  0  0
   -3.0521    3.1697    5.8041 H   0  0  0  0  0  0  0  0  0  0  0  0
   -1.2243    2.7438    7.3589 H   0  0  0  0  0  0  0  0  0  0  0  0
   -1.4512    1.2578    6.4153 H   0  0  0  0  0  0  0  0  0  0  0  0
    0.9819    2.4882    6.3788 H   0  0  0  0  0  0  0  0  0  0  0  0
    1.2845    2.2824    3.9509 H   0  0  0  0  0  0  0  0  0  0  0  0
   -0.6090   -1.0178    4.4222 H   0  0  0  0  0  0  0  0  0  0  0  0
    1.1508   -0.3036    1.8844 H   0  0  0  0  0  0  0  0  0  0  0  0
    3.6133   -0.5283    3.0587 H   0  0  0  0  0  0  0  0  0  0  0  0
    2.4929    1.9914    2.8078 H   0  0  0  0  0  0  0  0  0  0  0  0
    3.5863    0.4433    5.6369 H   0  0  0  0  0  0  0  0  0  0  0  0
    5.6178   -0.3988    4.1348 H   0  0  0  0  0  0  0  0  0  0  0  0
    5.9012    0.5393    5.5863 H   0  0  0  0  0  0  0  0  0  0  0  0
    4.0440   -2.8517    5.1288 H   0  0  0  0  0  0  0  0  0  0  0  0
   -0.4881   -2.5237    4.6007 H   0  0  0  0  0  0  0  0  0  0  0  0
    0.7002   -3.5610    5.3229 H   0  0  0  0  0  0  0  0  0  0  0  0
   -1.1085   -1.5586    6.6902 H   0  0  0  0  0  0  0  0  0  0  0  0
    0.1133   -3.9082    7.5226 H   0  0  0  0  0  0  0  0  0  0  0  0
    0.1987   -1.1706    8.7311 H   0  0  0  0  0  0  0  0  0  0  0  0
    1.5872   -1.9840    8.0688 H   0  0  0  0  0  0  0  0  0  0  0  0
    0.3236    0.6509    7.2605 H   0  0  0  0  0  0  0  0  0  0  0  0
    2.7056    2.8589    7.5377 H   0  0  0  0  0  0  0  0  0  0  0  0
    4.1137    1.9325    7.7875 H   0  0  0  0  0  0  0  0  0  0  0  0
    2.8929    2.7419    5.1651 H   0  0  0  0  0  0  0  0  0  0  0  0
    4.9783    3.1637    4.8484 H   0  0  0  0  0  0  0  0  0  0  0  0
   -0.5225    3.2256    2.9316 H   0  0  0  0  0  0  0  0  0  0  0  0
   -0.9519    0.3140    2.2785 H   0  0  0  0  0  0  0  0  0  0  0  0
    0.2730    1.4166    1.5623 H   0  0  0  0  0  0  0  0  0  0  0  0
   -1.3671    1.6860    1.2705 H   0  0  0  0  0  0  0  0  0  0  0  0
    1.4491    4.6935    7.0931 H   0  0  0  0  0  0  0  0  0  0  0  0
   -0.1845    4.6112    7.6868 H   0  0  0  0  0  0  0  0  0  0  0  0
    0.3468    5.9888    6.7477 H   0  0  0  0  0  0  0  0  0  0  0  0
    1.9530    4.9119    4.7419 H   0  0  0  0  0  0  0  0  0  0  0  0
    0.6092    5.9097    4.2722 H   0  0  0  0  0  0  0  0  0  0  0  0
    0.8982    4.4173    3.4312 H   0  0  0  0  0  0  0  0  0  0  0  0
  1  2  1  0
  1 36  1  0
  1 37  1  0
  1 38  1  0
  2 30  1  0
  2  3  1  0
  2 39  1  1
  3 35  1  0
  3  4  1  0
  3 40  1  1
  4  5  1  0
  4 41  1  0
  4 42  1  0
  5  6  1  0
  5 32  1  0
  5 43  1  1
  6  7  1  0
  6 30  1  0
  6 44  1  6
  7 29  1  0
  7  8  1  1
  7  9  1  0
  8 45  1  0
  9 18  1  0
  9 10  1  6
  9 11  1  0
 10 46  1  0
 11 12  1  0
 11 13  1  0
 11 47  1  6
 12 48  1  0
 13 27  1  0
 13 14  1  0
 13 49  1  6
 14 15  1  0
 14 50  1  0
 14 51  1  0
 15 16  1  0
 16 17  2  3
 16 52  1  0
 29 17  1  6
 17 18  1  0
 18 29  1  0
 18 19  1  6
 19 20  1  0
 19 53  1  0
 19 54  1  0
 20 21  1  0
 20 22  1  0
 20 55  1  6
 21 56  1  0
 22 23  1  0
 22 57  1  0
 22 58  1  0
 23 24  1  0
 23 29  1  0
 23 59  1  6
 24 25  2  0
 24 26  1  0
 26 27  1  0
 26 60  1  0
 26 61  1  0
 27 28  1  0
 27 62  1  6
 28 63  1  0
 30 31  1  0
 30 64  1  6
 31 65  1  0
 31 66  1  0
 31 67  1  0
 32 33  1  0
 32 34  1  0
 32 35  1  0
 33 68  1  0
 33 69  1  0
 33 70  1  0
 34 71  1  0
 34 72  1  0
 34 73  1  0
M  END
>  <i_m_ct_stereo_status>  (67) 
1

>  <s_m_source_file>  (67) 
/var/tmp/pbs.5076255.sched01/tmpikn618da/06v91y69d.sdf

>  <i_m_source_file_index>  (67) 
28

>  <i_lp_mmshare_version>  (67) 
48012

>  <i_f3d_flags>  (67) 
0

>  <s_epik_input>  (67) 
W0NIM11bQ0BIXShbQ0BASF0xMilbQ0BIXShbQ0gzXSlbQ0BASF0oW0NASF0oW0NIMl0xKUMoTzIpKFtDSDNdKVtDSDNdKVtDQEBdMyhbT0hdKVtDQEBdNChbT0hdKVtDQEBIXShbT0hdKVtDQEBIXShbQ0gyXU8vW0NIXT1DXDVDMzZDNDU3KVtDQEhdKFtPSF0pW0NIMl1DKD1PKVtDQEBIXTZbQ0gyXVtDQEBIXShbQ0gyXTcpW09IXQ==

>  <s_epik_cmdline>  (67) 
J2VwaWtfcHl0aG9uJywgJy1waHQnLCAnMi4wJywgJy1waCcsICc3LjAnLCAnLXRuJywgJzgnLCAnLW1hJywgJzIwMCcsICctaW1hZScsICc8aW5maWxlLm1hZT4nLCAnLW9tYWUnLCAnPG91dGZpbGUubWFlPic=

>  <r_lp_tautomer_probability>  (67) 
1

>  <r_epik_Ionization_Penalty>  (67) 
3.80149e-07

>  <r_epik_Ionization_Penalty_Charging>  (67) 
0

>  <r_epik_Ionization_Penalty_Neutral>  (67) 
3.80149e-07

>  <r_epik_State_Penalty>  (67) 
-0

>  <r_epik_Charging_Adjusted_Penalty>  (67) 
0

>  <i_epik_Tot_Q>  (67) 
0

>  <i_epik_Tot_abs_Q>  (67) 
0

>  <s_lp_Force_Field>  (67) 
OPLS3e

>  <r_lp_Energy>  (67) 
201.938

>  <b_lp_Chiralities_Consistent>  (67) 
1

>  <s_lp_Variant>  (67) 
16:0-2

>  <s_i_glide_gridfile>  (67) 
pfpi4k_grid

>  <i_i_glide_lignum>  (67) 
28

>  <i_i_glide_rotatable_bonds>  (67) 
6

>  <r_i_docking_score>  (67) 
-1.57286

>  <r_i_glide_ligand_efficiency>  (67) 
-0.044939

>  <r_i_glide_ligand_efficiency_sa>  (67) 
-0.146998

>  <r_i_glide_ligand_efficiency_ln>  (67) 
-0.345279

>  <r_i_glide_gscore>  (67) 
-1.57286

>  <r_i_glide_lipo>  (67) 
-0.0561269

>  <r_i_glide_hbond>  (67) 
-0.00407141

>  <r_i_glide_metal>  (67) 
-0

>  <r_i_glide_rewards>  (67) 
-0.0641876

>  <r_i_glide_evdw>  (67) 
-24.8195

>  <r_i_glide_ecoul>  (67) 
-1.9471

>  <r_i_glide_erotb>  (67) 
0.0845606

>  <r_i_glide_esite>  (67) 
0

>  <r_i_glide_emodel>  (67) 
-26.1492

>  <r_i_glide_energy>  (67) 
-26.7666

>  <r_i_glide_einternal>  (67) 
1.25863

>  <r_i_glide_intrahb_reward>  (67) 
-0

>  <i_i_glide_confnum>  (67) 
2

>  <i_i_glide_posenum>  (67) 
17

>  <r_i_glide_eff_state_penalty>  (67) 
0

>  <ligand_id>  (67) 
16

>  <original_smiles>  (67) 
CC1C2CC(C(C3(O)C4(O)C(O)C5COC=C6C47CC(O)CC(C(=O)CC5O)C673)C1C)C(C)(C)O2

>  <smiles>  (67) 
[H]OC1([H])C([H])([H])C2([H])C(=O)C([H])([H])C([H])(O[H])C3([H])C([H])([H])OC([H])=C4C5(C1([H])[H])C(O[H])(C3([H])O[H])C(O[H])(C1([H])C([H])(C([H])([H])[H])C([H])(C([H])([H])[H])C3([H])OC(C([H])([H])[H])(C([H])([H])[H])C1([H])C3([H])[H])C425

$$$$
16:1:2
     RDKit          3D

 73 79  0  0  1  0  0  0  0  0999 V2000
   -3.1100    3.1447    3.0348 C   0  0  0  0  0  0  0  0  0  0  0  0
   -2.1373    2.3612    3.9372 C   0  0  2  0  0  0  0  0  0  0  0  0
   -2.0231    3.1085    5.3336 C   0  0  1  0  0  0  0  0  0  0  0  0
   -1.1767    2.2626    6.2905 C   0  0  0  0  0  0  0  0  0  0  0  0
    0.1789    2.5800    5.6486 C   0  0  1  0  0  0  0  0  0  0  0  0
    0.3871    1.8047    4.3189 C   0  0  1  0  0  0  0  0  0  0  0  0
    0.6012    0.2696    4.5213 C   0  0  1  0  0  0  0  0  0  0  0  0
   -0.7817   -0.0870    4.5623 O   0  0  0  0  0  0  0  0  0  0  0  0
    1.4486   -0.6058    3.6610 C   0  0  1  0  0  0  0  0  0  0  0  0
    1.0081   -1.0704    2.4095 O   0  0  0  0  0  0  0  0  0  0  0  0
    2.9508    0.0683    3.4636 C   0  0  1  0  0  0  0  0  0  0  0  0
    2.8939    1.0672    2.4436 O   0  0  0  0  0  0  0  0  0  0  0  0
    3.8743    0.6282    4.7159 C   0  0  1  0  0  0  0  0  0  0  0  0
    5.0777   -0.3076    5.0231 C   0  0  0  0  0  0  0  0  0  0  0  0
    4.8457   -1.4543    5.8934 O   0  0  0  0  0  0  0  0  0  0  0  0
    3.6953   -2.1899    5.6673 C   0  0  0  0  0  0  0  0  0  0  0  0
    2.4372   -1.6735    5.6103 C   0  0  0  0  0  0  0  0  0  0  0  0
    1.3706   -1.7172    4.7899 C   0  0  2  0  0  0  0  0  0  0  0  0
    0.1684   -2.6281    5.2024 C   0  0  0  0  0  0  0  0  0  0  0  0
   -0.3752   -2.2657    6.6479 C   0  0  1  0  0  0  0  0  0  0  0  0
   -0.8498   -3.4421    7.2386 O   0  0  0  0  0  0  0  0  0  0  0  0
    0.5776   -1.5257    7.6764 C   0  0  0  0  0  0  0  0  0  0  0  0
    1.0741   -0.1780    7.1076 C   0  0  1  0  0  0  0  0  0  0  0  0
    2.3189    0.4802    7.8036 C   0  0  0  0  0  0  0  0  0  0  0  0
    2.5605    0.1499    8.9666 O   0  0  0  0  0  0  0  0  0  0  0  0
    3.1517    1.6975    7.1941 C   0  0  0  0  0  0  0  0  0  0  0  0
    3.5728    1.8867    5.6408 C   0  0  1  0  0  0  0  0  0  0  0  0
    4.7516    2.6583    5.6961 O   0  0  0  0  0  0  0  0  0  0  0  0
    1.3966   -0.4560    5.6819 C   0  0  1  0  0  0  0  0  0  0  0  0
   -0.7317    2.2064    3.2590 C   0  0  1  0  0  0  0  0  0  0  0  0
   -0.7092    1.3268    1.9954 C   0  0  0  0  0  0  0  0  0  0  0  0
    0.0749    4.1320    5.4756 C   0  0  0  0  0  0  0  0  0  0  0  0
    0.5024    4.7876    6.8252 C   0  0  0  0  0  0  0  0  0  0  0  0
    1.0016    4.7908    4.3883 C   0  0  0  0  0  0  0  0  0  0  0  0
   -1.3194    4.3614    5.2125 O   0  0  0  0  0  0  0  0  0  0  0  0
   -2.7624    4.1492    2.7437 H   0  0  0  0  0  0  0  0  0  0  0  0
   -4.0799    3.2465    3.5108 H   0  0  0  0  0  0  0  0  0  0  0  0
   -3.2894    2.5979    2.1101 H   0  0  0  0  0  0  0  0  0  0  0  0
   -2.5391    1.3445    4.1146 H   0  0  0  0  0  0  0  0  0  0  0  0
   -3.0179    3.1984    5.7941 H   0  0  0  0  0  0  0  0  0  0  0  0
   -1.2058    2.6429    7.3211 H   0  0  0  0  0  0  0  0  0  0  0  0
   -1.4945    1.2028    6.3250 H   0  0  0  0  0  0  0  0  0  0  0  0
    0.9868    2.3610    6.3401 H   0  0  0  0  0  0  0  0  0  0  0  0
    1.2715    2.2113    3.9027 H   0  0  0  0  0  0  0  0  0  0  0  0
   -1.2049    0.2675    3.7814 H   0  0  0  0  0  0  0  0  0  0  0  0
    1.1662   -0.3616    1.7884 H   0  0  0  0  0  0  0  0  0  0  0  0
    3.5533   -0.7028    2.9833 H   0  0  0  0  0  0  0  0  0  0  0  0
    2.5587    1.8827    2.7889 H   0  0  0  0  0  0  0  0  0  0  0  0
    3.5151    0.2347    5.5819 H   0  0  0  0  0  0  0  0  0  0  0  0
    5.5366   -0.6349    4.0833 H   0  0  0  0  0  0  0  0  0  0  0  0
    5.8252    0.2736    5.5565 H   0  0  0  0  0  0  0  0  0  0  0  0
    3.8775   -3.0417    5.0278 H   0  0  0  0  0  0  0  0  0  0  0  0
   -0.6106   -2.5447    4.4343 H   0  0  0  0  0  0  0  0  0  0  0  0
    0.5109   -3.6750    5.1626 H   0  0  0  0  0  0  0  0  0  0  0  0
   -1.2442   -1.6251    6.5137 H   0  0  0  0  0  0  0  0  0  0  0  0
   -0.1112   -4.0126    7.3832 H   0  0  0  0  0  0  0  0  0  0  0  0
    0.0455   -1.3185    8.6064 H   0  0  0  0  0  0  0  0  0  0  0  0
    1.4126   -2.1747    7.9525 H   0  0  0  0  0  0  0  0  0  0  0  0
    0.2470    0.5166    7.1720 H   0  0  0  0  0  0  0  0  0  0  0  0
    2.7058    2.6468    7.5201 H   0  0  0  0  0  0  0  0  0  0  0  0
    4.0775    1.6681    7.7571 H   0  0  0  0  0  0  0  0  0  0  0  0
    2.8928    2.5619    5.1367 H   0  0  0  0  0  0  0  0  0  0  0  0
    4.9841    2.9484    4.8200 H   0  0  0  0  0  0  0  0  0  0  0  0
   -0.4911    3.1961    2.9118 H   0  0  0  0  0  0  0  0  0  0  0  0
   -1.0200    0.2886    2.1820 H   0  0  0  0  0  0  0  0  0  0  0  0
    0.2524    1.4214    1.4802 H   0  0  0  0  0  0  0  0  0  0  0  0
   -1.4054    1.7549    1.2944 H   0  0  0  0  0  0  0  0  0  0  0  0
    1.5351    4.5365    7.0722 H   0  0  0  0  0  0  0  0  0  0  0  0
   -0.0967    4.4859    7.6828 H   0  0  0  0  0  0  0  0  0  0  0  0
    0.4771    5.8714    6.7640 H   0  0  0  0  0  0  0  0  0  0  0  0
    2.0404    4.7867    4.7420 H   0  0  0  0  0  0  0  0  0  0  0  0
    0.7325    5.8432    4.2886 H   0  0  0  0  0  0  0  0  0  0  0  0
    0.9629    4.3453    3.4025 H   0  0  0  0  0  0  0  0  0  0  0  0
  1  2  1  0
  1 36  1  0
  1 37  1  0
  1 38  1  0
  2 30  1  0
  2  3  1  0
  2 39  1  1
  3 35  1  0
  3  4  1  0
  3 40  1  1
  4  5  1  0
  4 41  1  0
  4 42  1  0
  5  6  1  0
  5 32  1  0
  5 43  1  1
  6  7  1  0
  6 30  1  0
  6 44  1  6
  7 29  1  0
  7  8  1  1
  7  9  1  0
  8 45  1  0
  9 18  1  0
  9 10  1  6
  9 11  1  0
 10 46  1  0
 11 12  1  0
 11 13  1  0
 11 47  1  6
 12 48  1  0
 13 27  1  0
 13 14  1  0
 13 49  1  6
 14 15  1  0
 14 50  1  0
 14 51  1  0
 15 16  1  0
 16 17  2  3
 16 52  1  0
 29 17  1  1
 17 18  1  0
 18 29  1  0
 18 19  1  6
 19 20  1  0
 19 53  1  0
 19 54  1  0
 20 21  1  0
 20 22  1  0
 20 55  1  6
 21 56  1  0
 22 23  1  0
 22 57  1  0
 22 58  1  0
 23 24  1  0
 23 29  1  0
 23 59  1  6
 24 25  2  0
 24 26  1  0
 26 27  1  0
 26 60  1  0
 26 61  1  0
 27 28  1  0
 27 62  1  6
 28 63  1  0
 30 31  1  0
 30 64  1  6
 31 65  1  0
 31 66  1  0
 31 67  1  0
 32 33  1  0
 32 34  1  0
 32 35  1  0
 33 68  1  0
 33 69  1  0
 33 70  1  0
 34 71  1  0
 34 72  1  0
 34 73  1  0
M  END
>  <i_m_ct_stereo_status>  (68) 
1

>  <s_m_source_file>  (68) 
/var/tmp/pbs.5076255.sched01/tmpikn618da/06v91y69d.sdf

>  <i_m_source_file_index>  (68) 
28

>  <i_lp_mmshare_version>  (68) 
48012

>  <i_f3d_flags>  (68) 
0

>  <s_epik_input>  (68) 
W0NIM11bQ0BIXShbQ0BASF0xMilbQ0BIXShbQ0gzXSlbQ0BASF0oW0NASF0oW0NIMl0xKUMoTzIpKFtDSDNdKVtDSDNdKVtDQEBdMyhbT0hdKVtDQEBdNChbT0hdKVtDQEBIXShbT0hdKVtDQEBIXShbQ0gyXU8vW0NIXT1DXDVDMzZDNDU3KVtDQEhdKFtPSF0pW0NIMl1DKD1PKVtDQEBIXTZbQ0gyXVtDQEBIXShbQ0gyXTcpW09IXQ==

>  <s_epik_cmdline>  (68) 
J2VwaWtfcHl0aG9uJywgJy1waHQnLCAnMi4wJywgJy1waCcsICc3LjAnLCAnLXRuJywgJzgnLCAnLW1hJywgJzIwMCcsICctaW1hZScsICc8aW5maWxlLm1hZT4nLCAnLW9tYWUnLCAnPG91dGZpbGUubWFlPic=

>  <r_lp_tautomer_probability>  (68) 
1

>  <r_epik_Ionization_Penalty>  (68) 
3.80149e-07

>  <r_epik_Ionization_Penalty_Charging>  (68) 
0

>  <r_epik_Ionization_Penalty_Neutral>  (68) 
3.80149e-07

>  <r_epik_State_Penalty>  (68) 
-0

>  <r_epik_Charging_Adjusted_Penalty>  (68) 
0

>  <i_epik_Tot_Q>  (68) 
0

>  <i_epik_Tot_abs_Q>  (68) 
0

>  <s_lp_Force_Field>  (68) 
OPLS3e

>  <r_lp_Energy>  (68) 
201.938

>  <b_lp_Chiralities_Consistent>  (68) 
1

>  <s_lp_Variant>  (68) 
16:0-2

>  <s_i_glide_gridfile>  (68) 
pfpi4k_grid

>  <i_i_glide_lignum>  (68) 
28

>  <i_i_glide_rotatable_bonds>  (68) 
6

>  <r_i_docking_score>  (68) 
-1.52702

>  <r_i_glide_ligand_efficiency>  (68) 
-0.0436292

>  <r_i_glide_ligand_efficiency_sa>  (68) 
-0.142714

>  <r_i_glide_ligand_efficiency_ln>  (68) 
-0.335215

>  <r_i_glide_gscore>  (68) 
-1.52702

>  <r_i_glide_lipo>  (68) 
-0.0568846

>  <r_i_glide_hbond>  (68) 
0

>  <r_i_glide_metal>  (68) 
-0

>  <r_i_glide_rewards>  (68) 
-0.0641876

>  <r_i_glide_evdw>  (68) 
-24.768

>  <r_i_glide_ecoul>  (68) 
-1.97156

>  <r_i_glide_erotb>  (68) 
0.0845606

>  <r_i_glide_esite>  (68) 
0

>  <r_i_glide_emodel>  (68) 
-25.7865

>  <r_i_glide_energy>  (68) 
-26.7396

>  <r_i_glide_einternal>  (68) 
0.426875

>  <r_i_glide_intrahb_reward>  (68) 
-0

>  <i_i_glide_confnum>  (68) 
2

>  <i_i_glide_posenum>  (68) 
1

>  <r_i_glide_eff_state_penalty>  (68) 
0

>  <ligand_id>  (68) 
16

>  <original_smiles>  (68) 
CC1C2CC(C(C3(O)C4(O)C(O)C5COC=C6C47CC(O)CC(C(=O)CC5O)C673)C1C)C(C)(C)O2

>  <smiles>  (68) 
[H]OC1([H])C([H])([H])C2([H])C(=O)C([H])([H])C([H])(O[H])C3([H])C([H])([H])OC([H])=C4C5(C1([H])[H])C(O[H])(C3([H])O[H])C(O[H])(C1([H])C([H])(C([H])([H])[H])C([H])(C([H])([H])[H])C3([H])OC(C([H])([H])[H])(C([H])([H])[H])C1([H])C3([H])[H])C425

$$$$
17:0:0
     RDKit          3D

 75 79  0  0  1  0  0  0  0  0999 V2000
   -0.5307    1.2818    2.0805 C   0  0  0  0  0  0  0  0  0  0  0  0
   -0.4413    1.3996    3.6137 C   0  0  2  0  0  0  0  0  0  0  0  0
   -1.2269    2.6496    4.0476 C   0  0  0  0  0  0  0  0  0  0  0  0
   -2.4437    2.7232    3.8678 O   0  0  0  0  0  0  0  0  0  0  0  0
   -0.4883    3.7955    4.7437 C   0  0  0  0  0  0  0  0  0  0  0  0
   -0.9445    4.9382    4.7588 O   0  0  0  0  0  0  0  0  0  0  0  0
    0.8078    3.4565    5.4779 C   0  0  0  0  0  0  0  0  0  0  0  0
    1.7532    2.5174    4.6866 C   0  0  1  0  0  0  0  0  0  0  0  0
    2.2930    3.3019    3.4665 C   0  0  0  0  0  0  0  0  0  0  0  0
    2.9318    2.1654    5.6453 C   0  0  0  0  0  0  0  0  0  0  0  0
    3.7264    0.8681    5.3342 C   0  0  0  0  0  0  0  0  0  0  0  0
    2.8475   -0.4175    5.0919 C   0  0  1  0  0  0  0  0  0  0  0  0
    2.1010   -0.6654    6.4460 C   0  0  0  0  0  0  0  0  0  0  0  0
    1.8521   -0.0257    3.9379 C   0  0  2  0  0  0  0  0  0  0  0  0
    2.6404    0.1254    2.6066 C   0  0  0  0  0  0  0  0  0  0  0  0
    2.2716    0.8480    1.6831 O   0  0  0  0  0  0  0  0  0  0  0  0
    3.9568   -0.6279    2.4540 C   0  0  0  0  0  0  0  0  0  0  0  0
    3.8758   -1.9645    3.1715 C   0  0  0  0  0  0  0  0  0  0  0  0
    3.8818   -3.1761    2.5143 C   0  0  0  0  0  0  0  0  0  0  0  0
    3.3743   -4.4552    3.2341 C   0  0  1  0  0  0  0  0  0  0  0  0
    1.8545   -4.6075    2.9582 C   0  0  0  0  0  0  0  0  0  0  0  0
    4.0865   -5.7616    2.8082 C   0  0  0  0  0  0  0  0  0  0  0  0
    4.1236   -5.9608    1.3003 C   0  0  0  0  0  0  0  0  0  0  0  0
    4.8822   -4.7931    0.6925 C   0  0  1  0  0  0  0  0  0  0  0  0
    5.0114   -5.0218   -0.7012 O   0  0  0  0  0  0  0  0  0  0  0  0
    4.3175   -3.3642    1.0131 C   0  0  0  0  0  0  0  0  0  0  0  0
    3.0965   -3.0625    0.1117 C   0  0  0  0  0  0  0  0  0  0  0  0
    5.5180   -2.4353    0.6287 C   0  0  0  0  0  0  0  0  0  0  0  0
    3.5689   -4.3430    4.7543 C   0  0  0  0  0  0  0  0  0  0  0  0
    3.0215   -3.0312    5.3052 C   0  0  0  0  0  0  0  0  0  0  0  0
    3.6815   -1.7567    4.7023 C   0  0  2  0  0  0  0  0  0  0  0  0
    5.1085   -1.6781    5.3062 C   0  0  0  0  0  0  0  0  0  0  0  0
    0.9527    1.2148    4.3274 C   0  0  2  0  0  0  0  0  0  0  0  0
   -1.5683    1.3420    1.7448 H   0  0  0  0  0  0  0  0  0  0  0  0
   -0.1637    0.3175    1.7290 H   0  0  0  0  0  0  0  0  0  0  0  0
    0.0114    2.0784    1.5716 H   0  0  0  0  0  0  0  0  0  0  0  0
   -1.0503    0.5732    3.9748 H   0  0  0  0  0  0  0  0  0  0  0  0
    1.3140    4.3852    5.7442 H   0  0  0  0  0  0  0  0  0  0  0  0
    0.5175    2.9870    6.4173 H   0  0  0  0  0  0  0  0  0  0  0  0
    3.1735    2.8343    3.0307 H   0  0  0  0  0  0  0  0  0  0  0  0
    2.5993    4.3117    3.7484 H   0  0  0  0  0  0  0  0  0  0  0  0
    1.5494    3.4109    2.6782 H   0  0  0  0  0  0  0  0  0  0  0  0
    3.6354    2.9989    5.6643 H   0  0  0  0  0  0  0  0  0  0  0  0
    2.5707    2.1174    6.6739 H   0  0  0  0  0  0  0  0  0  0  0  0
    4.3825    1.0872    4.4965 H   0  0  0  0  0  0  0  0  0  0  0  0
    4.4031    0.7063    6.1716 H   0  0  0  0  0  0  0  0  0  0  0  0
    1.2631   -1.3532    6.3345 H   0  0  0  0  0  0  0  0  0  0  0  0
    1.6736    0.2223    6.9039 H   0  0  0  0  0  0  0  0  0  0  0  0
    2.7789   -1.0574    7.2059 H   0  0  0  0  0  0  0  0  0  0  0  0
    1.1757   -0.8680    3.7900 H   0  0  0  0  0  0  0  0  0  0  0  0
    4.0427   -0.7291    1.3866 H   0  0  0  0  0  0  0  0  0  0  0  0
    4.8120   -0.0456    2.7883 H   0  0  0  0  0  0  0  0  0  0  0  0
    1.3952   -5.3497    3.6130 H   0  0  0  0  0  0  0  0  0  0  0  0
    1.6431   -4.9173    1.9388 H   0  0  0  0  0  0  0  0  0  0  0  0
    1.3255   -3.6641    3.1016 H   0  0  0  0  0  0  0  0  0  0  0  0
    5.1125   -5.7650    3.1820 H   0  0  0  0  0  0  0  0  0  0  0  0
    3.6025   -6.6219    3.2731 H   0  0  0  0  0  0  0  0  0  0  0  0
    4.6437   -6.8928    1.0778 H   0  0  0  0  0  0  0  0  0  0  0  0
    3.1299   -6.0673    0.8717 H   0  0  0  0  0  0  0  0  0  0  0  0
    5.8944   -4.8594    1.0952 H   0  0  0  0  0  0  0  0  0  0  0  0
    4.1495   -5.1620   -1.0761 H   0  0  0  0  0  0  0  0  0  0  0  0
    3.3778   -2.9375   -0.9359 H   0  0  0  0  0  0  0  0  0  0  0  0
    2.5929   -2.1451    0.4202 H   0  0  0  0  0  0  0  0  0  0  0  0
    2.3582   -3.8621    0.1546 H   0  0  0  0  0  0  0  0  0  0  0  0
    6.2508   -2.9253   -0.0129 H   0  0  0  0  0  0  0  0  0  0  0  0
    6.0801   -2.1141    1.5079 H   0  0  0  0  0  0  0  0  0  0  0  0
    5.2242   -1.5594    0.0519 H   0  0  0  0  0  0  0  0  0  0  0  0
    3.0746   -5.1739    5.2558 H   0  0  0  0  0  0  0  0  0  0  0  0
    4.6216   -4.4476    5.0118 H   0  0  0  0  0  0  0  0  0  0  0  0
    1.9463   -3.0172    5.1344 H   0  0  0  0  0  0  0  0  0  0  0  0
    3.1542   -3.0634    6.3870 H   0  0  0  0  0  0  0  0  0  0  0  0
    5.0901   -1.5764    6.3922 H   0  0  0  0  0  0  0  0  0  0  0  0
    5.6861   -0.8475    4.8995 H   0  0  0  0  0  0  0  0  0  0  0  0
    5.6951   -2.5676    5.0793 H   0  0  0  0  0  0  0  0  0  0  0  0
    0.5494    0.9322    5.2943 H   0  0  0  0  0  0  0  0  0  0  0  0
  1  2  1  0
  1 34  1  0
  1 35  1  0
  1 36  1  0
  2 33  1  0
  2  3  1  0
  2 37  1  1
  3  4  2  0
  3  5  1  0
  5  6  2  0
  5  7  1  0
  7  8  1  0
  7 38  1  0
  7 39  1  0
  8 33  1  0
  8  9  1  6
  8 10  1  0
  9 40  1  0
  9 41  1  0
  9 42  1  0
 10 11  1  0
 10 43  1  0
 10 44  1  0
 11 12  1  0
 11 45  1  0
 11 46  1  0
 12 31  1  0
 12 13  1  1
 12 14  1  0
 13 47  1  0
 13 48  1  0
 13 49  1  0
 14 15  1  0
 14 33  1  0
 14 50  1  6
 15 16  2  0
 15 17  1  0
 17 18  1  0
 17 51  1  0
 17 52  1  0
 18 31  1  0
 18 19  2  0
 19 26  1  0
 19 20  1  0
 20 21  1  1
 20 22  1  0
 20 29  1  0
 21 53  1  0
 21 54  1  0
 21 55  1  0
 22 23  1  0
 22 56  1  0
 22 57  1  0
 23 24  1  0
 23 58  1  0
 23 59  1  0
 24 25  1  0
 24 26  1  0
 24 60  1  1
 25 61  1  0
 26 27  1  0
 26 28  1  0
 27 62  1  0
 27 63  1  0
 27 64  1  0
 28 65  1  0
 28 66  1  0
 28 67  1  0
 29 30  1  0
 29 68  1  0
 29 69  1  0
 30 31  1  0
 30 70  1  0
 30 71  1  0
 31 32  1  1
 32 72  1  0
 32 73  1  0
 32 74  1  0
 33 75  1  1
M  END
>  <i_m_ct_stereo_status>  (69) 
1

>  <s_m_source_file>  (69) 
/var/tmp/pbs.5076255.sched01/tmpikn618da/06v91y69d.sdf

>  <i_m_source_file_index>  (69) 
31

>  <i_lp_mmshare_version>  (69) 
48012

>  <i_f3d_flags>  (69) 
0

>  <s_epik_input>  (69) 
Tz1DKFtDSDJdMSlDKD1PKVtDQEBIXShbQ0gzXSlbQ0BIXShbQ0BAXTEyW0NIM10pW0NAQEhdM1tDQF0oW0NIM10pKFtDSDJdW0NIMl0yKVtDQF00KFtDSDNdKUMoW0NIMl1DMz1PKT1DNVtDQF0oW0NIM10pKFtDSDJdW0NIMl00KVtDSDJdW0NIMl1bQ0BASF0oW09IXSlDNShbQ0gzXSlbQ0gzXQ==

>  <s_epik_cmdline>  (69) 
J2VwaWtfcHl0aG9uJywgJy1waHQnLCAnMi4wJywgJy1waCcsICc3LjAnLCAnLXRuJywgJzgnLCAnLW1hJywgJzIwMCcsICctaW1hZScsICc8aW5maWxlLm1hZT4nLCAnLW9tYWUnLCAnPG91dGZpbGUubWFlPic=

>  <r_lp_tautomer_probability>  (69) 
1

>  <r_epik_Ionization_Penalty>  (69) 
8.60429e-07

>  <r_epik_Ionization_Penalty_Charging>  (69) 
0

>  <r_epik_Ionization_Penalty_Neutral>  (69) 
8.60429e-07

>  <r_epik_State_Penalty>  (69) 
-0

>  <r_epik_Charging_Adjusted_Penalty>  (69) 
0

>  <i_epik_Tot_Q>  (69) 
0

>  <i_epik_Tot_abs_Q>  (69) 
0

>  <s_lp_Force_Field>  (69) 
OPLS3e

>  <r_lp_Energy>  (69) 
102.21

>  <b_lp_Chiralities_Consistent>  (69) 
1

>  <s_lp_Variant>  (69) 
17:0-1

>  <s_i_glide_gridfile>  (69) 
pfpi4k_grid

>  <i_i_glide_lignum>  (69) 
31

>  <i_i_glide_rotatable_bonds>  (69) 
1

>  <r_i_docking_score>  (69) 
-2.98575

>  <r_i_glide_ligand_efficiency>  (69) 
-0.0904772

>  <r_i_glide_ligand_efficiency_sa>  (69) 
-0.290209

>  <r_i_glide_ligand_efficiency_ln>  (69) 
-0.664015

>  <r_i_glide_gscore>  (69) 
-2.98575

>  <r_i_glide_lipo>  (69) 
-0.24189

>  <r_i_glide_hbond>  (69) 
-0.24792

>  <r_i_glide_metal>  (69) 
-0

>  <r_i_glide_rewards>  (69) 
-0.309263

>  <r_i_glide_evdw>  (69) 
-30.4657

>  <r_i_glide_ecoul>  (69) 
-3.976

>  <r_i_glide_erotb>  (69) 
0

>  <r_i_glide_esite>  (69) 
-0.0669893

>  <r_i_glide_emodel>  (69) 
-40.673

>  <r_i_glide_energy>  (69) 
-34.4417

>  <r_i_glide_einternal>  (69) 
0.0706846

>  <r_i_glide_intrahb_reward>  (69) 
-0

>  <i_i_glide_confnum>  (69) 
1

>  <i_i_glide_posenum>  (69) 
7

>  <r_i_glide_eff_state_penalty>  (69) 
0

>  <ligand_id>  (69) 
17

>  <original_smiles>  (69) 
CC1C(=O)C(=O)CC2(C)CCC3(C)C(C(=O)CC4=C5C(C)(CCC(O)C5(C)C)CCC43C)C12

>  <smiles>  (69) 
[H]OC1([H])C([H])([H])C([H])([H])C2(C([H])([H])[H])C(=C3C([H])([H])C(=O)C4([H])C5([H])C([H])(C([H])([H])[H])C(=O)C(=O)C([H])([H])C5(C([H])([H])[H])C([H])([H])C([H])([H])C4(C([H])([H])[H])C3(C([H])([H])[H])C([H])([H])C2([H])[H])C1(C([H])([H])[H])C([H])([H])[H]

$$$$
17:0:1
     RDKit          3D

 75 79  0  0  1  0  0  0  0  0999 V2000
    3.3091   -0.9150    1.3265 C   0  0  0  0  0  0  0  0  0  0  0  0
    2.3123   -0.5877    2.4549 C   0  0  2  0  0  0  0  0  0  0  0  0
    2.2119    0.9442    2.6052 C   0  0  0  0  0  0  0  0  0  0  0  0
    1.7747    1.6300    1.6883 O   0  0  0  0  0  0  0  0  0  0  0  0
    2.6416    1.6008    3.9245 C   0  0  0  0  0  0  0  0  0  0  0  0
    2.9894    2.7840    3.9843 O   0  0  0  0  0  0  0  0  0  0  0  0
    2.5822    0.7464    5.1810 C   0  0  0  0  0  0  0  0  0  0  0  0
    3.1596   -0.6807    4.9977 C   0  0  1  0  0  0  0  0  0  0  0  0
    4.6888   -0.5545    4.7815 C   0  0  0  0  0  0  0  0  0  0  0  0
    2.8761   -1.4353    6.3278 C   0  0  0  0  0  0  0  0  0  0  0  0
    2.8555   -2.9865    6.2638 C   0  0  0  0  0  0  0  0  0  0  0  0
    1.9687   -3.6014    5.1163 C   0  0  1  0  0  0  0  0  0  0  0  0
    0.5043   -3.1485    5.4402 C   0  0  0  0  0  0  0  0  0  0  0  0
    2.5002   -2.9490    3.7883 C   0  0  2  0  0  0  0  0  0  0  0  0
    3.9192   -3.4995    3.4747 C   0  0  0  0  0  0  0  0  0  0  0  0
    4.7520   -2.8799    2.8197 O   0  0  0  0  0  0  0  0  0  0  0  0
    4.3110   -4.8626    4.0376 C   0  0  0  0  0  0  0  0  0  0  0  0
    3.0997   -5.7777    4.0587 C   0  0  0  0  0  0  0  0  0  0  0  0
    2.9822   -6.8927    3.2549 C   0  0  0  0  0  0  0  0  0  0  0  0
    1.5866   -7.5286    3.0051 C   0  0  1  0  0  0  0  0  0  0  0  0
    0.9651   -6.8732    1.7422 C   0  0  0  0  0  0  0  0  0  0  0  0
    1.6049   -9.0617    2.8123 C   0  0  0  0  0  0  0  0  0  0  0  0
    2.6144   -9.5154    1.7728 C   0  0  0  0  0  0  0  0  0  0  0  0
    3.9943   -9.0955    2.2283 C   0  0  1  0  0  0  0  0  0  0  0  0
    4.9176   -9.5965    1.2751 O   0  0  0  0  0  0  0  0  0  0  0  0
    4.1872   -7.5588    2.4905 C   0  0  0  0  0  0  0  0  0  0  0  0
    4.3846   -6.8079    1.1516 C   0  0  0  0  0  0  0  0  0  0  0  0
    5.5101   -7.5256    3.3257 C   0  0  0  0  0  0  0  0  0  0  0  0
    0.6440   -7.2654    4.1883 C   0  0  0  0  0  0  0  0  0  0  0  0
    0.6205   -5.7937    4.5862 C   0  0  0  0  0  0  0  0  0  0  0  0
    2.0043   -5.2237    5.0157 C   0  0  2  0  0  0  0  0  0  0  0  0
    2.3144   -5.8305    6.4113 C   0  0  0  0  0  0  0  0  0  0  0  0
    2.3877   -1.3742    3.8190 C   0  0  2  0  0  0  0  0  0  0  0  0
    3.0588   -0.3600    0.4190 H   0  0  0  0  0  0  0  0  0  0  0  0
    3.2604   -1.9653    1.0444 H   0  0  0  0  0  0  0  0  0  0  0  0
    4.3350   -0.6538    1.5883 H   0  0  0  0  0  0  0  0  0  0  0  0
    1.3469   -0.8637    2.0269 H   0  0  0  0  0  0  0  0  0  0  0  0
    3.0942    1.2833    5.9798 H   0  0  0  0  0  0  0  0  0  0  0  0
    1.5294    0.6958    5.4624 H   0  0  0  0  0  0  0  0  0  0  0  0
    5.2063   -1.4977    4.9436 H   0  0  0  0  0  0  0  0  0  0  0  0
    5.1288    0.1562    5.4831 H   0  0  0  0  0  0  0  0  0  0  0  0
    4.9400   -0.2022    3.7819 H   0  0  0  0  0  0  0  0  0  0  0  0
    3.6165   -1.1324    7.0700 H   0  0  0  0  0  0  0  0  0  0  0  0
    1.9355   -1.0879    6.7557 H   0  0  0  0  0  0  0  0  0  0  0  0
    3.8886   -3.3197    6.2136 H   0  0  0  0  0  0  0  0  0  0  0  0
    2.5070   -3.3342    7.2338 H   0  0  0  0  0  0  0  0  0  0  0  0
   -0.1638   -3.2713    4.5886 H   0  0  0  0  0  0  0  0  0  0  0  0
    0.4007   -2.1059    5.7250 H   0  0  0  0  0  0  0  0  0  0  0  0
    0.0999   -3.6994    6.2887 H   0  0  0  0  0  0  0  0  0  0  0  0
    1.8636   -3.2918    2.9734 H   0  0  0  0  0  0  0  0  0  0  0  0
    5.0732   -5.1892    3.3512 H   0  0  0  0  0  0  0  0  0  0  0  0
    4.7754   -4.7901    5.0186 H   0  0  0  0  0  0  0  0  0  0  0  0
   -0.0945   -7.1141    1.6396 H   0  0  0  0  0  0  0  0  0  0  0  0
    1.4430   -7.1935    0.8216 H   0  0  0  0  0  0  0  0  0  0  0  0
    1.0676   -5.7887    1.7702 H   0  0  0  0  0  0  0  0  0  0  0  0
    1.8382   -9.5591    3.7548 H   0  0  0  0  0  0  0  0  0  0  0  0
    0.6152   -9.4209    2.5256 H   0  0  0  0  0  0  0  0  0  0  0  0
    2.5918  -10.6027    1.6968 H   0  0  0  0  0  0  0  0  0  0  0  0
    2.3808   -9.1433    0.7799 H   0  0  0  0  0  0  0  0  0  0  0  0
    4.1784   -9.6426    3.1558 H   0  0  0  0  0  0  0  0  0  0  0  0
    4.6484  -10.4793    1.0215 H   0  0  0  0  0  0  0  0  0  0  0  0
    5.3338   -7.0582    0.6755 H   0  0  0  0  0  0  0  0  0  0  0  0
    4.3615   -5.7266    1.2888 H   0  0  0  0  0  0  0  0  0  0  0  0
    3.5960   -7.0524    0.4437 H   0  0  0  0  0  0  0  0  0  0  0  0
    6.0918   -8.4442    3.2427 H   0  0  0  0  0  0  0  0  0  0  0  0
    5.3108   -7.4090    4.3925 H   0  0  0  0  0  0  0  0  0  0  0  0
    6.2097   -6.7551    3.0065 H   0  0  0  0  0  0  0  0  0  0  0  0
   -0.3679   -7.5877    3.9390 H   0  0  0  0  0  0  0  0  0  0  0  0
    0.9259   -7.8799    5.0424 H   0  0  0  0  0  0  0  0  0  0  0  0
    0.2240   -5.2251    3.7475 H   0  0  0  0  0  0  0  0  0  0  0  0
   -0.1086   -5.6951    5.3902 H   0  0  0  0  0  0  0  0  0  0  0  0
    1.5745   -5.5396    7.1578 H   0  0  0  0  0  0  0  0  0  0  0  0
    3.2979   -5.5415    6.7825 H   0  0  0  0  0  0  0  0  0  0  0  0
    2.3317   -6.9193    6.3882 H   0  0  0  0  0  0  0  0  0  0  0  0
    1.3535   -1.2065    4.1015 H   0  0  0  0  0  0  0  0  0  0  0  0
  1  2  1  0
  1 34  1  0
  1 35  1  0
  1 36  1  0
  2 33  1  0
  2  3  1  0
  2 37  1  6
  3  4  2  0
  3  5  1  0
  5  6  2  0
  5  7  1  0
  7  8  1  0
  7 38  1  0
  7 39  1  0
  8 33  1  0
  8  9  1  6
  8 10  1  0
  9 40  1  0
  9 41  1  0
  9 42  1  0
 10 11  1  0
 10 43  1  0
 10 44  1  0
 11 12  1  0
 11 45  1  0
 11 46  1  0
 12 31  1  0
 12 13  1  1
 12 14  1  0
 13 47  1  0
 13 48  1  0
 13 49  1  0
 14 15  1  0
 14 33  1  0
 14 50  1  6
 15 16  2  0
 15 17  1  0
 17 18  1  0
 17 51  1  0
 17 52  1  0
 18 31  1  0
 18 19  2  0
 19 26  1  0
 19 20  1  0
 20 21  1  6
 20 22  1  0
 20 29  1  0
 21 53  1  0
 21 54  1  0
 21 55  1  0
 22 23  1  0
 22 56  1  0
 22 57  1  0
 23 24  1  0
 23 58  1  0
 23 59  1  0
 24 25  1  0
 24 26  1  0
 24 60  1  1
 25 61  1  0
 26 27  1  0
 26 28  1  0
 27 62  1  0
 27 63  1  0
 27 64  1  0
 28 65  1  0
 28 66  1  0
 28 67  1  0
 29 30  1  0
 29 68  1  0
 29 69  1  0
 30 31  1  0
 30 70  1  0
 30 71  1  0
 31 32  1  1
 32 72  1  0
 32 73  1  0
 32 74  1  0
 33 75  1  1
M  END
>  <i_m_ct_stereo_status>  (70) 
1

>  <s_m_source_file>  (70) 
/var/tmp/pbs.5076255.sched01/tmpikn618da/06v91y69d.sdf

>  <i_m_source_file_index>  (70) 
31

>  <i_lp_mmshare_version>  (70) 
48012

>  <i_f3d_flags>  (70) 
0

>  <s_epik_input>  (70) 
Tz1DKFtDSDJdMSlDKD1PKVtDQEBIXShbQ0gzXSlbQ0BIXShbQ0BAXTEyW0NIM10pW0NAQEhdM1tDQF0oW0NIM10pKFtDSDJdW0NIMl0yKVtDQF00KFtDSDNdKUMoW0NIMl1DMz1PKT1DNVtDQF0oW0NIM10pKFtDSDJdW0NIMl00KVtDSDJdW0NIMl1bQ0BASF0oW09IXSlDNShbQ0gzXSlbQ0gzXQ==

>  <s_epik_cmdline>  (70) 
J2VwaWtfcHl0aG9uJywgJy1waHQnLCAnMi4wJywgJy1waCcsICc3LjAnLCAnLXRuJywgJzgnLCAnLW1hJywgJzIwMCcsICctaW1hZScsICc8aW5maWxlLm1hZT4nLCAnLW9tYWUnLCAnPG91dGZpbGUubWFlPic=

>  <r_lp_tautomer_probability>  (70) 
1

>  <r_epik_Ionization_Penalty>  (70) 
8.60429e-07

>  <r_epik_Ionization_Penalty_Charging>  (70) 
0

>  <r_epik_Ionization_Penalty_Neutral>  (70) 
8.60429e-07

>  <r_epik_State_Penalty>  (70) 
-0

>  <r_epik_Charging_Adjusted_Penalty>  (70) 
0

>  <i_epik_Tot_Q>  (70) 
0

>  <i_epik_Tot_abs_Q>  (70) 
0

>  <s_lp_Force_Field>  (70) 
OPLS3e

>  <r_lp_Energy>  (70) 
102.21

>  <b_lp_Chiralities_Consistent>  (70) 
1

>  <s_lp_Variant>  (70) 
17:0-1

>  <s_i_glide_gridfile>  (70) 
pfpi4k_grid

>  <i_i_glide_lignum>  (70) 
31

>  <i_i_glide_rotatable_bonds>  (70) 
1

>  <r_i_docking_score>  (70) 
-2.5543

>  <r_i_glide_ligand_efficiency>  (70) 
-0.0774029

>  <r_i_glide_ligand_efficiency_sa>  (70) 
-0.248273

>  <r_i_glide_ligand_efficiency_ln>  (70) 
-0.568063

>  <r_i_glide_gscore>  (70) 
-2.5543

>  <r_i_glide_lipo>  (70) 
-0.138341

>  <r_i_glide_hbond>  (70) 
-0.16

>  <r_i_glide_metal>  (70) 
-0

>  <r_i_glide_rewards>  (70) 
-0.309263

>  <r_i_glide_evdw>  (70) 
-28.6146

>  <r_i_glide_ecoul>  (70) 
-3.37925

>  <r_i_glide_erotb>  (70) 
0

>  <r_i_glide_esite>  (70) 
-0.00907366

>  <r_i_glide_emodel>  (70) 
-37.0266

>  <r_i_glide_energy>  (70) 
-31.9939

>  <r_i_glide_einternal>  (70) 
0.584743

>  <r_i_glide_intrahb_reward>  (70) 
-0

>  <i_i_glide_confnum>  (70) 
1

>  <i_i_glide_posenum>  (70) 
2

>  <r_i_glide_eff_state_penalty>  (70) 
0

>  <ligand_id>  (70) 
17

>  <original_smiles>  (70) 
CC1C(=O)C(=O)CC2(C)CCC3(C)C(C(=O)CC4=C5C(C)(CCC(O)C5(C)C)CCC43C)C12

>  <smiles>  (70) 
[H]OC1([H])C([H])([H])C([H])([H])C2(C([H])([H])[H])C(=C3C([H])([H])C(=O)C4([H])C5([H])C([H])(C([H])([H])[H])C(=O)C(=O)C([H])([H])C5(C([H])([H])[H])C([H])([H])C([H])([H])C4(C([H])([H])[H])C3(C([H])([H])[H])C([H])([H])C2([H])[H])C1(C([H])([H])[H])C([H])([H])[H]

$$$$
17:0:2
     RDKit          3D

 75 79  0  0  1  0  0  0  0  0999 V2000
   -0.5387    1.1075    2.0831 C   0  0  0  0  0  0  0  0  0  0  0  0
   -0.4305    1.3326    3.5981 C   0  0  2  0  0  0  0  0  0  0  0  0
   -1.2212    2.6048    3.9517 C   0  0  0  0  0  0  0  0  0  0  0  0
   -2.4399    2.6603    3.7849 O   0  0  0  0  0  0  0  0  0  0  0  0
   -0.4825    3.8030    4.5573 C   0  0  0  0  0  0  0  0  0  0  0  0
   -0.9554    4.9397    4.4974 O   0  0  0  0  0  0  0  0  0  0  0  0
    0.8242    3.5271    5.2953 C   0  0  0  0  0  0  0  0  0  0  0  0
    1.7672    2.5378    4.5633 C   0  0  1  0  0  0  0  0  0  0  0  0
    2.2852    3.2364    3.2827 C   0  0  0  0  0  0  0  0  0  0  0  0
    2.9596    2.2640    5.5297 C   0  0  0  0  0  0  0  0  0  0  0  0
    3.7582    0.9521    5.3040 C   0  0  0  0  0  0  0  0  0  0  0  0
    2.8859   -0.3531    5.1672 C   0  0  1  0  0  0  0  0  0  0  0  0
    2.1560   -0.5064    6.5440 C   0  0  0  0  0  0  0  0  0  0  0  0
    1.8746   -0.0520    4.0000 C   0  0  2  0  0  0  0  0  0  0  0  0
    2.6460    0.0076    2.6514 C   0  0  0  0  0  0  0  0  0  0  0  0
    2.2624    0.6597    1.6836 O   0  0  0  0  0  0  0  0  0  0  0  0
    3.9653   -0.7468    2.5384 C   0  0  0  0  0  0  0  0  0  0  0  0
    3.9022   -2.0288    3.3509 C   0  0  0  0  0  0  0  0  0  0  0  0
    3.9095   -3.2833    2.7837 C   0  0  0  0  0  0  0  0  0  0  0  0
    3.4153   -4.5109    3.5992 C   0  0  1  0  0  0  0  0  0  0  0  0
    1.8929   -4.6899    3.3502 C   0  0  0  0  0  0  0  0  0  0  0  0
    4.1326   -5.8394    3.2631 C   0  0  0  0  0  0  0  0  0  0  0  0
    4.1575   -6.1448    1.7750 C   0  0  0  0  0  0  0  0  0  0  0  0
    4.9034   -5.0216    1.0805 C   0  0  1  0  0  0  0  0  0  0  0  0
    4.9767   -5.3638   -0.2916 O   0  0  0  0  0  0  0  0  0  0  0  0
    4.3292   -3.5773    1.2944 C   0  0  0  0  0  0  0  0  0  0  0  0
    3.0937   -3.3490    0.3885 C   0  0  0  0  0  0  0  0  0  0  0  0
    5.5188   -2.6721    0.8282 C   0  0  0  0  0  0  0  0  0  0  0  0
    3.6278   -4.2880    5.1044 C   0  0  0  0  0  0  0  0  0  0  0  0
    3.0793   -2.9434    5.5659 C   0  0  0  0  0  0  0  0  0  0  0  0
    3.7245   -1.7117    4.8662 C   0  0  2  0  0  0  0  0  0  0  0  0
    5.1586   -1.5819    5.4440 C   0  0  0  0  0  0  0  0  0  0  0  0
    0.9711    1.2083    4.3081 C   0  0  2  0  0  0  0  0  0  0  0  0
   -1.5817    1.1336    1.7532 H   0  0  0  0  0  0  0  0  0  0  0  0
   -0.1654    0.1244    1.7948 H   0  0  0  0  0  0  0  0  0  0  0  0
   -0.0092    1.8679    1.5047 H   0  0  0  0  0  0  0  0  0  0  0  0
   -1.0319    0.5334    4.0270 H   0  0  0  0  0  0  0  0  0  0  0  0
    1.3280    4.4756    5.4875 H   0  0  0  0  0  0  0  0  0  0  0  0
    0.5488    3.1248    6.2705 H   0  0  0  0  0  0  0  0  0  0  0  0
    3.1629    2.7418    2.8741 H   0  0  0  0  0  0  0  0  0  0  0  0
    2.5892    4.2656    3.4862 H   0  0  0  0  0  0  0  0  0  0  0  0
    1.5322    3.2847    2.4971 H   0  0  0  0  0  0  0  0  0  0  0  0
    3.6569    3.1002    5.4794 H   0  0  0  0  0  0  0  0  0  0  0  0
    2.6104    2.2879    6.5637 H   0  0  0  0  0  0  0  0  0  0  0  0
    4.4035    1.1134    4.4445 H   0  0  0  0  0  0  0  0  0  0  0  0
    4.4459    0.8549    6.1423 H   0  0  0  0  0  0  0  0  0  0  0  0
    1.3217   -1.2053    6.4923 H   0  0  0  0  0  0  0  0  0  0  0  0
    1.7284    0.4095    6.9409 H   0  0  0  0  0  0  0  0  0  0  0  0
    2.8454   -0.8384    7.3215 H   0  0  0  0  0  0  0  0  0  0  0  0
    1.2012   -0.9063    3.9205 H   0  0  0  0  0  0  0  0  0  0  0  0
    4.0389   -0.9255    1.4794 H   0  0  0  0  0  0  0  0  0  0  0  0
    4.8212   -0.1370    2.8181 H   0  0  0  0  0  0  0  0  0  0  0  0
    1.4470   -5.3863    4.0625 H   0  0  0  0  0  0  0  0  0  0  0  0
    1.6686   -5.0732    2.3583 H   0  0  0  0  0  0  0  0  0  0  0  0
    1.3593   -3.7422    3.4337 H   0  0  0  0  0  0  0  0  0  0  0  0
    5.1626   -5.8119    3.6230 H   0  0  0  0  0  0  0  0  0  0  0  0
    3.6587   -6.6688    3.7908 H   0  0  0  0  0  0  0  0  0  0  0  0
    4.6776   -7.0889    1.6094 H   0  0  0  0  0  0  0  0  0  0  0  0
    3.1614   -6.2841    1.3605 H   0  0  0  0  0  0  0  0  0  0  0  0
    5.9259   -5.0547    1.4655 H   0  0  0  0  0  0  0  0  0  0  0  0
    5.4075   -4.6630   -0.7589 H   0  0  0  0  0  0  0  0  0  0  0  0
    3.3597   -3.3035   -0.6699 H   0  0  0  0  0  0  0  0  0  0  0  0
    2.5818   -2.4162    0.6315 H   0  0  0  0  0  0  0  0  0  0  0  0
    2.3650   -4.1507    0.4986 H   0  0  0  0  0  0  0  0  0  0  0  0
    6.2517   -3.2003    0.2185 H   0  0  0  0  0  0  0  0  0  0  0  0
    6.0858   -2.2842    1.6765 H   0  0  0  0  0  0  0  0  0  0  0  0
    5.2106   -1.8417    0.1935 H   0  0  0  0  0  0  0  0  0  0  0  0
    3.1451   -5.0838    5.6706 H   0  0  0  0  0  0  0  0  0  0  0  0
    4.6841   -4.3685    5.3562 H   0  0  0  0  0  0  0  0  0  0  0  0
    2.0020   -2.9479    5.4077 H   0  0  0  0  0  0  0  0  0  0  0  0
    3.2245   -2.8963    6.6455 H   0  0  0  0  0  0  0  0  0  0  0  0
    5.1518   -1.4017    6.5200 H   0  0  0  0  0  0  0  0  0  0  0  0
    5.7258   -0.7797    4.9712 H   0  0  0  0  0  0  0  0  0  0  0  0
    5.7482   -2.4820    5.2755 H   0  0  0  0  0  0  0  0  0  0  0  0
    0.5805    0.9945    5.2984 H   0  0  0  0  0  0  0  0  0  0  0  0
  1  2  1  0
  1 34  1  0
  1 35  1  0
  1 36  1  0
  2 33  1  0
  2  3  1  0
  2 37  1  1
  3  4  2  0
  3  5  1  0
  5  6  2  0
  5  7  1  0
  7  8  1  0
  7 38  1  0
  7 39  1  0
  8 33  1  0
  8  9  1  6
  8 10  1  0
  9 40  1  0
  9 41  1  0
  9 42  1  0
 10 11  1  0
 10 43  1  0
 10 44  1  0
 11 12  1  0
 11 45  1  0
 11 46  1  0
 12 31  1  0
 12 13  1  1
 12 14  1  0
 13 47  1  0
 13 48  1  0
 13 49  1  0
 14 15  1  0
 14 33  1  0
 14 50  1  6
 15 16  2  0
 15 17  1  0
 17 18  1  0
 17 51  1  0
 17 52  1  0
 18 31  1  0
 18 19  2  0
 19 26  1  0
 19 20  1  0
 20 21  1  1
 20 22  1  0
 20 29  1  0
 21 53  1  0
 21 54  1  0
 21 55  1  0
 22 23  1  0
 22 56  1  0
 22 57  1  0
 23 24  1  0
 23 58  1  0
 23 59  1  0
 24 25  1  0
 24 26  1  0
 24 60  1  1
 25 61  1  0
 26 27  1  0
 26 28  1  0
 27 62  1  0
 27 63  1  0
 27 64  1  0
 28 65  1  0
 28 66  1  0
 28 67  1  0
 29 30  1  0
 29 68  1  0
 29 69  1  0
 30 31  1  0
 30 70  1  0
 30 71  1  0
 31 32  1  1
 32 72  1  0
 32 73  1  0
 32 74  1  0
 33 75  1  1
M  END
>  <i_m_ct_stereo_status>  (71) 
1

>  <s_m_source_file>  (71) 
/var/tmp/pbs.5076255.sched01/tmpikn618da/06v91y69d.sdf

>  <i_m_source_file_index>  (71) 
31

>  <i_lp_mmshare_version>  (71) 
48012

>  <i_f3d_flags>  (71) 
0

>  <s_epik_input>  (71) 
Tz1DKFtDSDJdMSlDKD1PKVtDQEBIXShbQ0gzXSlbQ0BIXShbQ0BAXTEyW0NIM10pW0NAQEhdM1tDQF0oW0NIM10pKFtDSDJdW0NIMl0yKVtDQF00KFtDSDNdKUMoW0NIMl1DMz1PKT1DNVtDQF0oW0NIM10pKFtDSDJdW0NIMl00KVtDSDJdW0NIMl1bQ0BASF0oW09IXSlDNShbQ0gzXSlbQ0gzXQ==

>  <s_epik_cmdline>  (71) 
J2VwaWtfcHl0aG9uJywgJy1waHQnLCAnMi4wJywgJy1waCcsICc3LjAnLCAnLXRuJywgJzgnLCAnLW1hJywgJzIwMCcsICctaW1hZScsICc8aW5maWxlLm1hZT4nLCAnLW9tYWUnLCAnPG91dGZpbGUubWFlPic=

>  <r_lp_tautomer_probability>  (71) 
1

>  <r_epik_Ionization_Penalty>  (71) 
8.60429e-07

>  <r_epik_Ionization_Penalty_Charging>  (71) 
0

>  <r_epik_Ionization_Penalty_Neutral>  (71) 
8.60429e-07

>  <r_epik_State_Penalty>  (71) 
-0

>  <r_epik_Charging_Adjusted_Penalty>  (71) 
0

>  <i_epik_Tot_Q>  (71) 
0

>  <i_epik_Tot_abs_Q>  (71) 
0

>  <s_lp_Force_Field>  (71) 
OPLS3e

>  <r_lp_Energy>  (71) 
102.21

>  <b_lp_Chiralities_Consistent>  (71) 
1

>  <s_lp_Variant>  (71) 
17:0-1

>  <s_i_glide_gridfile>  (71) 
pfpi4k_grid

>  <i_i_glide_lignum>  (71) 
31

>  <i_i_glide_rotatable_bonds>  (71) 
1

>  <r_i_docking_score>  (71) 
-2.37075

>  <r_i_glide_ligand_efficiency>  (71) 
-0.071841

>  <r_i_glide_ligand_efficiency_sa>  (71) 
-0.230433

>  <r_i_glide_ligand_efficiency_ln>  (71) 
-0.527243

>  <r_i_glide_gscore>  (71) 
-2.37075

>  <r_i_glide_lipo>  (71) 
-0.211706

>  <r_i_glide_hbond>  (71) 
-0.0649152

>  <r_i_glide_metal>  (71) 
-0

>  <r_i_glide_rewards>  (71) 
-0.309263

>  <r_i_glide_evdw>  (71) 
-30.1773

>  <r_i_glide_ecoul>  (71) 
-1.33013

>  <r_i_glide_erotb>  (71) 
0

>  <r_i_glide_esite>  (71) 
-0.0764874

>  <r_i_glide_emodel>  (71) 
-36.2323

>  <r_i_glide_energy>  (71) 
-31.5074

>  <r_i_glide_einternal>  (71) 
0.424933

>  <r_i_glide_intrahb_reward>  (71) 
-0

>  <i_i_glide_confnum>  (71) 
1

>  <i_i_glide_posenum>  (71) 
33

>  <r_i_glide_eff_state_penalty>  (71) 
0

>  <ligand_id>  (71) 
17

>  <original_smiles>  (71) 
CC1C(=O)C(=O)CC2(C)CCC3(C)C(C(=O)CC4=C5C(C)(CCC(O)C5(C)C)CCC43C)C12

>  <smiles>  (71) 
[H]OC1([H])C([H])([H])C([H])([H])C2(C([H])([H])[H])C(=C3C([H])([H])C(=O)C4([H])C5([H])C([H])(C([H])([H])[H])C(=O)C(=O)C([H])([H])C5(C([H])([H])[H])C([H])([H])C([H])([H])C4(C([H])([H])[H])C3(C([H])([H])[H])C([H])([H])C2([H])[H])C1(C([H])([H])[H])C([H])([H])[H]

$$$$
18:0:0
     RDKit          3D

 35 37  0  0  1  0  0  0  0  0999 V2000
    1.4217   -5.4653   -0.2577 O   0  0  0  0  0  0  0  0  0  0  0  0
    2.3726   -5.3895    0.5280 C   0  0  0  0  0  0  0  0  0  0  0  0
    2.4074   -6.4190    1.6728 C   0  0  0  0  0  0  0  0  0  0  0  0
    1.0448   -6.7427    2.2098 C   0  0  0  0  0  0  0  0  0  0  0  0
    0.0211   -7.4341    1.6169 C   0  0  0  0  0  0  0  0  0  0  0  0
   -1.0860   -7.6354    2.4889 C   0  0  0  0  0  0  0  0  0  0  0  0
   -0.9105   -7.0629    3.7204 C   0  0  0  0  0  0  0  0  0  0  0  0
    0.6299   -6.2649    3.8370 S   0  0  0  0  0  0  0  0  0  0  0  0
    3.3504   -4.4342    0.4076 N   0  0  0  0  0  0  0  0  0  0  0  0
    4.5075   -4.2949    1.3026 C   0  0  0  0  0  0  0  0  0  0  0  0
    5.7716   -4.5980    0.5007 C   0  0  0  0  0  0  0  0  0  0  0  0
    5.8962   -3.6869   -0.5845 O   0  0  0  0  0  0  0  0  0  0  0  0
    4.8199   -3.7242   -1.4845 C   0  0  2  0  0  0  0  0  0  0  0  0
    5.0119   -2.6960   -2.4341 O   0  0  0  0  0  0  0  0  0  0  0  0
    3.9832   -2.5919   -3.4196 C   0  0  0  0  0  0  0  0  0  0  0  0
    2.6659   -2.2375   -2.7464 C   0  0  0  0  0  0  0  0  0  0  0  0
    2.3624   -3.3080   -1.7027 C   0  0  0  0  0  0  0  0  0  0  0  0
    3.5224   -3.4261   -0.6800 C   0  0  1  0  0  0  0  0  0  0  0  0
    2.8695   -7.3231    1.2666 H   0  0  0  0  0  0  0  0  0  0  0  0
    2.9871   -6.1061    2.5373 H   0  0  0  0  0  0  0  0  0  0  0  0
    0.0463   -7.8313    0.6105 H   0  0  0  0  0  0  0  0  0  0  0  0
   -1.9645   -8.1969    2.1937 H   0  0  0  0  0  0  0  0  0  0  0  0
   -1.5716   -7.0658    4.5781 H   0  0  0  0  0  0  0  0  0  0  0  0
    4.5468   -3.2753    1.6913 H   0  0  0  0  0  0  0  0  0  0  0  0
    4.5547   -4.9502    2.1670 H   0  0  0  0  0  0  0  0  0  0  0  0
    6.6387   -4.4620    1.1430 H   0  0  0  0  0  0  0  0  0  0  0  0
    5.7912   -5.6318    0.1583 H   0  0  0  0  0  0  0  0  0  0  0  0
    4.8133   -4.6923   -1.9896 H   0  0  0  0  0  0  0  0  0  0  0  0
    4.2662   -1.7967   -4.1068 H   0  0  0  0  0  0  0  0  0  0  0  0
    3.9020   -3.5113   -4.0046 H   0  0  0  0  0  0  0  0  0  0  0  0
    2.7018   -1.2364   -2.3090 H   0  0  0  0  0  0  0  0  0  0  0  0
    1.8685   -2.2458   -3.4942 H   0  0  0  0  0  0  0  0  0  0  0  0
    1.4329   -3.0611   -1.2012 H   0  0  0  0  0  0  0  0  0  0  0  0
    2.2244   -4.2397   -2.2475 H   0  0  0  0  0  0  0  0  0  0  0  0
    3.6506   -2.4476   -0.2177 H   0  0  0  0  0  0  0  0  0  0  0  0
  1  2  2  0
  2  3  1  0
  2  9  1  0
  3  4  1  0
  3 19  1  0
  3 20  1  0
  4  8  1  0
  4  5  2  0
  5  6  1  0
  5 21  1  0
  6  7  2  0
  6 22  1  0
  7  8  1  0
  7 23  1  0
  9 18  1  0
  9 10  1  0
 10 11  1  0
 10 24  1  0
 10 25  1  0
 11 12  1  0
 11 26  1  0
 11 27  1  0
 12 13  1  0
 13 18  1  0
 13 14  1  0
 13 28  1  6
 14 15  1  0
 15 16  1  0
 15 29  1  0
 15 30  1  0
 16 17  1  0
 16 31  1  0
 16 32  1  0
 17 18  1  0
 17 33  1  0
 17 34  1  0
 18 35  1  1
M  END
>  <i_m_ct_stereo_status>  (72) 
1

>  <s_m_source_file>  (72) 
/var/tmp/pbs.5076255.sched01/tmpikn618da/06v91y69d.sdf

>  <i_m_source_file_index>  (72) 
32

>  <i_lp_mmshare_version>  (72) 
48012

>  <i_f3d_flags>  (72) 
0

>  <s_epik_input>  (72) 
TzFbQ0gyXVtDSDJdW0NIMl1bQ0BIXShbQ0BASF0xMilOKFtDSDJdW0NIMl1PMilDKD1PKVtDSDJdYzNbY0hdW2NIXVtjSF1zMw==

>  <s_epik_cmdline>  (72) 
J2VwaWtfcHl0aG9uJywgJy1waHQnLCAnMi4wJywgJy1waCcsICc3LjAnLCAnLXRuJywgJzgnLCAnLW1hJywgJzIwMCcsICctaW1hZScsICc8aW5maWxlLm1hZT4nLCAnLW9tYWUnLCAnPG91dGZpbGUubWFlPic=

>  <r_lp_tautomer_probability>  (72) 
1

>  <r_epik_Ionization_Penalty>  (72) 
2.93192e-10

>  <r_epik_Ionization_Penalty_Charging>  (72) 
0

>  <r_epik_Ionization_Penalty_Neutral>  (72) 
2.93192e-10

>  <r_epik_State_Penalty>  (72) 
-0

>  <r_epik_Charging_Adjusted_Penalty>  (72) 
0

>  <i_epik_Tot_Q>  (72) 
0

>  <i_epik_Tot_abs_Q>  (72) 
0

>  <s_epik_Chemistry_Notes>  (72) 
This compound contains an acetal/aminal-like group ( X-CH(R)-Y where X, Y are N, S, or O) that may be acid/base labile, releasing an aldehyde.

>  <s_lp_Force_Field>  (72) 
OPLS3e

>  <r_lp_Energy>  (72) 
22.7372

>  <b_lp_Chiralities_Consistent>  (72) 
1

>  <s_lp_Variant>  (72) 
18:0-1

>  <s_i_glide_gridfile>  (72) 
pfpi4k_grid

>  <i_i_glide_lignum>  (72) 
32

>  <i_i_glide_rotatable_bonds>  (72) 
3

>  <r_i_docking_score>  (72) 
-3.47339

>  <r_i_glide_ligand_efficiency>  (72) 
-0.192966

>  <r_i_glide_ligand_efficiency_sa>  (72) 
-0.505714

>  <r_i_glide_ligand_efficiency_ln>  (72) 
-0.892817

>  <r_i_glide_gscore>  (72) 
-3.47339

>  <r_i_glide_lipo>  (72) 
-0.494346

>  <r_i_glide_hbond>  (72) 
-0.231774

>  <r_i_glide_metal>  (72) 
-0

>  <r_i_glide_rewards>  (72) 
-1.58628

>  <r_i_glide_evdw>  (72) 
-22.2593

>  <r_i_glide_ecoul>  (72) 
-4.86318

>  <r_i_glide_erotb>  (72) 
0.748413

>  <r_i_glide_esite>  (72) 
-0.0669576

>  <r_i_glide_emodel>  (72) 
-33.2036

>  <r_i_glide_energy>  (72) 
-27.1224

>  <r_i_glide_einternal>  (72) 
0.127204

>  <r_i_glide_intrahb_reward>  (72) 
-0

>  <i_i_glide_confnum>  (72) 
6

>  <i_i_glide_posenum>  (72) 
11

>  <r_i_glide_eff_state_penalty>  (72) 
0

>  <ligand_id>  (72) 
18

>  <original_smiles>  (72) 
O=C(Cc1cccs1)N1CCOC2OCCCC21

>  <smiles>  (72) 
[H]c1sc(C([H])([H])C(=O)N2C([H])([H])C([H])([H])OC3([H])OC([H])([H])C([H])([H])C([H])([H])C23[H])c([H])c1[H]

$$$$
18:0:1
     RDKit          3D

 35 37  0  0  1  0  0  0  0  0999 V2000
    2.8371   -4.7246    0.9051 O   0  0  0  0  0  0  0  0  0  0  0  0
    4.0054   -4.4401    1.1556 C   0  0  0  0  0  0  0  0  0  0  0  0
    4.6465   -5.2086    2.3200 C   0  0  0  0  0  0  0  0  0  0  0  0
    4.9625   -6.6225    1.9596 C   0  0  0  0  0  0  0  0  0  0  0  0
    6.2117   -7.1860    1.8782 C   0  0  0  0  0  0  0  0  0  0  0  0
    6.1837   -8.5763    1.6161 C   0  0  0  0  0  0  0  0  0  0  0  0
    4.9156   -9.0784    1.4676 C   0  0  0  0  0  0  0  0  0  0  0  0
    3.7202   -7.8241    1.6620 S   0  0  0  0  0  0  0  0  0  0  0  0
    4.6960   -3.4933    0.4387 N   0  0  0  0  0  0  0  0  0  0  0  0
    6.0099   -2.9614    0.7930 C   0  0  0  0  0  0  0  0  0  0  0  0
    6.9841   -3.4009   -0.3002 C   0  0  0  0  0  0  0  0  0  0  0  0
    6.5698   -2.8630   -1.5420 O   0  0  0  0  0  0  0  0  0  0  0  0
    5.3028   -3.2667   -1.9643 C   0  0  2  0  0  0  0  0  0  0  0  0
    4.9629   -2.5855   -3.1380 O   0  0  0  0  0  0  0  0  0  0  0  0
    3.6903   -2.8813   -3.6766 C   0  0  0  0  0  0  0  0  0  0  0  0
    2.6153   -2.4388   -2.6937 C   0  0  0  0  0  0  0  0  0  0  0  0
    2.8756   -3.1499   -1.3752 C   0  0  0  0  0  0  0  0  0  0  0  0
    4.2941   -2.8383   -0.8402 C   0  0  1  0  0  0  0  0  0  0  0  0
    5.5160   -4.7544    2.7939 H   0  0  0  0  0  0  0  0  0  0  0  0
    3.8774   -5.2216    3.0998 H   0  0  0  0  0  0  0  0  0  0  0  0
    7.1328   -6.6455    2.0446 H   0  0  0  0  0  0  0  0  0  0  0  0
    7.0897   -9.1624    1.5593 H   0  0  0  0  0  0  0  0  0  0  0  0
    4.6160  -10.0959    1.2776 H   0  0  0  0  0  0  0  0  0  0  0  0
    5.9694   -1.8705    0.8312 H   0  0  0  0  0  0  0  0  0  0  0  0
    6.4303   -3.2682    1.7455 H   0  0  0  0  0  0  0  0  0  0  0  0
    7.9741   -3.0095   -0.0678 H   0  0  0  0  0  0  0  0  0  0  0  0
    7.0809   -4.4892   -0.3318 H   0  0  0  0  0  0  0  0  0  0  0  0
    5.3069   -4.3537   -2.1548 H   0  0  0  0  0  0  0  0  0  0  0  0
    3.5734   -2.3181   -4.6031 H   0  0  0  0  0  0  0  0  0  0  0  0
    3.5870   -3.9410   -3.9370 H   0  0  0  0  0  0  0  0  0  0  0  0
    2.6193   -1.3544   -2.5733 H   0  0  0  0  0  0  0  0  0  0  0  0
    1.6259   -2.7158   -3.0715 H   0  0  0  0  0  0  0  0  0  0  0  0
    2.1431   -2.8047   -0.6609 H   0  0  0  0  0  0  0  0  0  0  0  0
    2.7563   -4.2200   -1.5343 H   0  0  0  0  0  0  0  0  0  0  0  0
    4.3815   -1.7585   -0.7370 H   0  0  0  0  0  0  0  0  0  0  0  0
  1  2  2  0
  2  3  1  0
  2  9  1  0
  3  4  1  0
  3 19  1  0
  3 20  1  0
  4  8  1  0
  4  5  2  0
  5  6  1  0
  5 21  1  0
  6  7  2  0
  6 22  1  0
  7  8  1  0
  7 23  1  0
  9 18  1  0
  9 10  1  0
 10 11  1  0
 10 24  1  0
 10 25  1  0
 11 12  1  0
 11 26  1  0
 11 27  1  0
 12 13  1  0
 13 18  1  0
 13 14  1  0
 13 28  1  6
 14 15  1  0
 15 16  1  0
 15 29  1  0
 15 30  1  0
 16 17  1  0
 16 31  1  0
 16 32  1  0
 17 18  1  0
 17 33  1  0
 17 34  1  0
 18 35  1  1
M  END
>  <i_m_ct_stereo_status>  (73) 
1

>  <s_m_source_file>  (73) 
/var/tmp/pbs.5076255.sched01/tmpikn618da/06v91y69d.sdf

>  <i_m_source_file_index>  (73) 
32

>  <i_lp_mmshare_version>  (73) 
48012

>  <i_f3d_flags>  (73) 
0

>  <s_epik_input>  (73) 
TzFbQ0gyXVtDSDJdW0NIMl1bQ0BIXShbQ0BASF0xMilOKFtDSDJdW0NIMl1PMilDKD1PKVtDSDJdYzNbY0hdW2NIXVtjSF1zMw==

>  <s_epik_cmdline>  (73) 
J2VwaWtfcHl0aG9uJywgJy1waHQnLCAnMi4wJywgJy1waCcsICc3LjAnLCAnLXRuJywgJzgnLCAnLW1hJywgJzIwMCcsICctaW1hZScsICc8aW5maWxlLm1hZT4nLCAnLW9tYWUnLCAnPG91dGZpbGUubWFlPic=

>  <r_lp_tautomer_probability>  (73) 
1

>  <r_epik_Ionization_Penalty>  (73) 
2.93192e-10

>  <r_epik_Ionization_Penalty_Charging>  (73) 
0

>  <r_epik_Ionization_Penalty_Neutral>  (73) 
2.93192e-10

>  <r_epik_State_Penalty>  (73) 
-0

>  <r_epik_Charging_Adjusted_Penalty>  (73) 
0

>  <i_epik_Tot_Q>  (73) 
0

>  <i_epik_Tot_abs_Q>  (73) 
0

>  <s_epik_Chemistry_Notes>  (73) 
This compound contains an acetal/aminal-like group ( X-CH(R)-Y where X, Y are N, S, or O) that may be acid/base labile, releasing an aldehyde.

>  <s_lp_Force_Field>  (73) 
OPLS3e

>  <r_lp_Energy>  (73) 
22.7372

>  <b_lp_Chiralities_Consistent>  (73) 
1

>  <s_lp_Variant>  (73) 
18:0-1

>  <s_i_glide_gridfile>  (73) 
pfpi4k_grid

>  <i_i_glide_lignum>  (73) 
32

>  <i_i_glide_rotatable_bonds>  (73) 
3

>  <r_i_docking_score>  (73) 
-3.31026

>  <r_i_glide_ligand_efficiency>  (73) 
-0.183903

>  <r_i_glide_ligand_efficiency_sa>  (73) 
-0.481962

>  <r_i_glide_ligand_efficiency_ln>  (73) 
-0.850884

>  <r_i_glide_gscore>  (73) 
-3.31026

>  <r_i_glide_lipo>  (73) 
-0.671833

>  <r_i_glide_hbond>  (73) 
0

>  <r_i_glide_metal>  (73) 
-0

>  <r_i_glide_rewards>  (73) 
-1.84029

>  <r_i_glide_evdw>  (73) 
-22.6078

>  <r_i_glide_ecoul>  (73) 
-2.77437

>  <r_i_glide_erotb>  (73) 
0.748413

>  <r_i_glide_esite>  (73) 
0

>  <r_i_glide_emodel>  (73) 
-30.8678

>  <r_i_glide_energy>  (73) 
-25.3822

>  <r_i_glide_einternal>  (73) 
0.618298

>  <r_i_glide_intrahb_reward>  (73) 
-0

>  <i_i_glide_confnum>  (73) 
5

>  <i_i_glide_posenum>  (73) 
34

>  <r_i_glide_eff_state_penalty>  (73) 
0

>  <ligand_id>  (73) 
18

>  <original_smiles>  (73) 
O=C(Cc1cccs1)N1CCOC2OCCCC21

>  <smiles>  (73) 
[H]c1sc(C([H])([H])C(=O)N2C([H])([H])C([H])([H])OC3([H])OC([H])([H])C([H])([H])C([H])([H])C23[H])c([H])c1[H]

$$$$
18:0:2
     RDKit          3D

 35 37  0  0  1  0  0  0  0  0999 V2000
    1.0129   -5.9074    0.1927 O   0  0  0  0  0  0  0  0  0  0  0  0
    1.9412   -6.2609    0.9407 C   0  0  0  0  0  0  0  0  0  0  0  0
    1.6989   -7.5501    1.7397 C   0  0  0  0  0  0  0  0  0  0  0  0
    0.4512   -7.4650    2.5567 C   0  0  0  0  0  0  0  0  0  0  0  0
   -0.6822   -8.2298    2.4344 C   0  0  0  0  0  0  0  0  0  0  0  0
   -1.6338   -7.9965    3.4538 C   0  0  0  0  0  0  0  0  0  0  0  0
   -1.2332   -7.0459    4.3531 C   0  0  0  0  0  0  0  0  0  0  0  0
    0.3482   -6.4298    3.9618 S   0  0  0  0  0  0  0  0  0  0  0  0
    3.0897   -5.5250    1.0429 N   0  0  0  0  0  0  0  0  0  0  0  0
    4.1883   -5.8011    1.9730 C   0  0  0  0  0  0  0  0  0  0  0  0
    5.4043   -6.2199    1.1441 C   0  0  0  0  0  0  0  0  0  0  0  0
    5.7811   -5.1518    0.2754 O   0  0  0  0  0  0  0  0  0  0  0  0
    4.7834   -4.7718   -0.6310 C   0  0  2  0  0  0  0  0  0  0  0  0
    5.2334   -3.6367   -1.3375 O   0  0  0  0  0  0  0  0  0  0  0  0
    4.3216   -3.1239   -2.3097 C   0  0  0  0  0  0  0  0  0  0  0  0
    3.0688   -2.6324   -1.6036 C   0  0  0  0  0  0  0  0  0  0  0  0
    2.4973   -3.7940   -0.8120 C   0  0  0  0  0  0  0  0  0  0  0  0
    3.5259   -4.3708    0.1915 C   0  0  1  0  0  0  0  0  0  0  0  0
    1.5824   -8.3402    0.9877 H   0  0  0  0  0  0  0  0  0  0  0  0
    2.4932   -7.8872    2.4068 H   0  0  0  0  0  0  0  0  0  0  0  0
   -0.8154   -8.9945    1.6795 H   0  0  0  0  0  0  0  0  0  0  0  0
   -2.5622   -8.5539    3.5067 H   0  0  0  0  0  0  0  0  0  0  0  0
   -1.7568   -6.6805    5.2250 H   0  0  0  0  0  0  0  0  0  0  0  0
    4.4199   -4.8886    2.5379 H   0  0  0  0  0  0  0  0  0  0  0  0
    4.0297   -6.5691    2.7289 H   0  0  0  0  0  0  0  0  0  0  0  0
    6.2351   -6.4143    1.8144 H   0  0  0  0  0  0  0  0  0  0  0  0
    5.2307   -7.1454    0.5958 H   0  0  0  0  0  0  0  0  0  0  0  0
    4.6280   -5.5957   -1.3310 H   0  0  0  0  0  0  0  0  0  0  0  0
    4.7979   -2.2834   -2.8085 H   0  0  0  0  0  0  0  0  0  0  0  0
    4.0926   -3.8613   -3.0811 H   0  0  0  0  0  0  0  0  0  0  0  0
    3.2796   -1.7796   -0.9543 H   0  0  0  0  0  0  0  0  0  0  0  0
    2.3288   -2.2953   -2.3334 H   0  0  0  0  0  0  0  0  0  0  0  0
    1.6331   -3.4157   -0.3006 H   0  0  0  0  0  0  0  0  0  0  0  0
    2.1684   -4.5463   -1.5210 H   0  0  0  0  0  0  0  0  0  0  0  0
    3.8291   -3.5527    0.8540 H   0  0  0  0  0  0  0  0  0  0  0  0
  1  2  2  0
  2  3  1  0
  2  9  1  0
  3  4  1  0
  3 19  1  0
  3 20  1  0
  4  8  1  0
  4  5  2  0
  5  6  1  0
  5 21  1  0
  6  7  2  0
  6 22  1  0
  7  8  1  0
  7 23  1  0
  9 18  1  0
  9 10  1  0
 10 11  1  0
 10 24  1  0
 10 25  1  0
 11 12  1  0
 11 26  1  0
 11 27  1  0
 12 13  1  0
 13 18  1  0
 13 14  1  0
 13 28  1  6
 14 15  1  0
 15 16  1  0
 15 29  1  0
 15 30  1  0
 16 17  1  0
 16 31  1  0
 16 32  1  0
 17 18  1  0
 17 33  1  0
 17 34  1  0
 18 35  1  1
M  END
>  <i_m_ct_stereo_status>  (74) 
1

>  <s_m_source_file>  (74) 
/var/tmp/pbs.5076255.sched01/tmpikn618da/06v91y69d.sdf

>  <i_m_source_file_index>  (74) 
32

>  <i_lp_mmshare_version>  (74) 
48012

>  <i_f3d_flags>  (74) 
0

>  <s_epik_input>  (74) 
TzFbQ0gyXVtDSDJdW0NIMl1bQ0BIXShbQ0BASF0xMilOKFtDSDJdW0NIMl1PMilDKD1PKVtDSDJdYzNbY0hdW2NIXVtjSF1zMw==

>  <s_epik_cmdline>  (74) 
J2VwaWtfcHl0aG9uJywgJy1waHQnLCAnMi4wJywgJy1waCcsICc3LjAnLCAnLXRuJywgJzgnLCAnLW1hJywgJzIwMCcsICctaW1hZScsICc8aW5maWxlLm1hZT4nLCAnLW9tYWUnLCAnPG91dGZpbGUubWFlPic=

>  <r_lp_tautomer_probability>  (74) 
1

>  <r_epik_Ionization_Penalty>  (74) 
2.93192e-10

>  <r_epik_Ionization_Penalty_Charging>  (74) 
0

>  <r_epik_Ionization_Penalty_Neutral>  (74) 
2.93192e-10

>  <r_epik_State_Penalty>  (74) 
-0

>  <r_epik_Charging_Adjusted_Penalty>  (74) 
0

>  <i_epik_Tot_Q>  (74) 
0

>  <i_epik_Tot_abs_Q>  (74) 
0

>  <s_epik_Chemistry_Notes>  (74) 
This compound contains an acetal/aminal-like group ( X-CH(R)-Y where X, Y are N, S, or O) that may be acid/base labile, releasing an aldehyde.

>  <s_lp_Force_Field>  (74) 
OPLS3e

>  <r_lp_Energy>  (74) 
22.7372

>  <b_lp_Chiralities_Consistent>  (74) 
1

>  <s_lp_Variant>  (74) 
18:0-1

>  <s_i_glide_gridfile>  (74) 
pfpi4k_grid

>  <i_i_glide_lignum>  (74) 
32

>  <i_i_glide_rotatable_bonds>  (74) 
3

>  <r_i_docking_score>  (74) 
-3.30711

>  <r_i_glide_ligand_efficiency>  (74) 
-0.183728

>  <r_i_glide_ligand_efficiency_sa>  (74) 
-0.481504

>  <r_i_glide_ligand_efficiency_ln>  (74) 
-0.850075

>  <r_i_glide_gscore>  (74) 
-3.30711

>  <r_i_glide_lipo>  (74) 
-0.109516

>  <r_i_glide_hbond>  (74) 
-0.311064

>  <r_i_glide_metal>  (74) 
-0

>  <r_i_glide_rewards>  (74) 
-1.58628

>  <r_i_glide_evdw>  (74) 
-20.0536

>  <r_i_glide_ecoul>  (74) 
-6.55232

>  <r_i_glide_erotb>  (74) 
0.748413

>  <r_i_glide_esite>  (74) 
-0.06313

>  <r_i_glide_emodel>  (74) 
-32.2365

>  <r_i_glide_energy>  (74) 
-26.6059

>  <r_i_glide_einternal>  (74) 
0.23376

>  <r_i_glide_intrahb_reward>  (74) 
-0

>  <i_i_glide_confnum>  (74) 
6

>  <i_i_glide_posenum>  (74) 
38

>  <r_i_glide_eff_state_penalty>  (74) 
0

>  <ligand_id>  (74) 
18

>  <original_smiles>  (74) 
O=C(Cc1cccs1)N1CCOC2OCCCC21

>  <smiles>  (74) 
[H]c1sc(C([H])([H])C(=O)N2C([H])([H])C([H])([H])OC3([H])OC([H])([H])C([H])([H])C([H])([H])C23[H])c([H])c1[H]

$$$$
21:0:0
     RDKit          3D

 36 38  0  0  1  0  0  0  0  0999 V2000
    3.8380   -0.8935   -2.5680 C   0  0  0  0  0  0  0  0  0  0  0  0
    3.6529   -1.8051   -3.7939 C   0  0  0  0  0  0  0  0  0  0  0  0
    4.2877   -3.1500   -3.4201 C   0  0  0  0  0  0  0  0  0  0  0  0
    4.0503   -3.2239   -1.9147 C   0  0  0  0  0  0  0  0  0  0  0  0
    4.9362   -4.2670   -1.2035 C   0  0  0  0  0  0  0  0  0  0  0  0
    4.4223   -4.6522    0.1298 N   0  0  1  0  0  0  0  0  0  0  0  0
    2.9747   -4.9365    0.1752 C   0  0  0  0  0  0  0  0  0  0  0  0
    2.7496   -5.7055    1.4692 C   0  0  0  0  0  0  0  0  0  0  0  0
    4.1142   -6.3199    1.8060 C   0  0  1  0  0  0  0  0  0  0  0  0
    4.0734   -7.8189    2.0136 C   0  0  0  0  0  0  0  0  0  0  0  0
    4.0774   -8.7244    1.0418 N   0  0  0  0  0  0  0  0  0  0  0  0
    3.9290   -9.8544    1.6799 N   0  0  0  0  0  0  0  0  0  0  0  0
    3.8154   -9.7951    2.9999 N   0  0  0  0  0  0  0  0  0  0  0  0
    3.9018   -8.4243    3.2378 O   0  0  0  0  0  0  0  0  0  0  0  0
    5.0499   -5.8767    0.6665 C   0  0  0  0  0  0  0  0  0  0  0  0
    4.2707   -1.7920   -1.4067 C   0  0  0  0  0  0  0  0  0  0  0  0
    2.8972   -0.3989   -2.3345 H   0  0  0  0  0  0  0  0  0  0  0  0
    4.5991   -0.1372   -2.7497 H   0  0  0  0  0  0  0  0  0  0  0  0
    2.5816   -1.9450   -3.9707 H   0  0  0  0  0  0  0  0  0  0  0  0
    4.0893   -1.3814   -4.7013 H   0  0  0  0  0  0  0  0  0  0  0  0
    3.7929   -3.9818   -3.9246 H   0  0  0  0  0  0  0  0  0  0  0  0
    5.3558   -3.1666   -3.6585 H   0  0  0  0  0  0  0  0  0  0  0  0
    2.9953   -3.4801   -1.8098 H   0  0  0  0  0  0  0  0  0  0  0  0
    5.0092   -5.1490   -1.8510 H   0  0  0  0  0  0  0  0  0  0  0  0
    5.9697   -3.9143   -1.1114 H   0  0  0  0  0  0  0  0  0  0  0  0
    2.3453   -4.0427    0.1068 H   0  0  0  0  0  0  0  0  0  0  0  0
    2.7028   -5.5916   -0.6509 H   0  0  0  0  0  0  0  0  0  0  0  0
    2.4523   -5.0113    2.2558 H   0  0  0  0  0  0  0  0  0  0  0  0
    1.9448   -6.4422    1.3698 H   0  0  0  0  0  0  0  0  0  0  0  0
    4.4719   -5.8569    2.7288 H   0  0  0  0  0  0  0  0  0  0  0  0
    5.0681   -6.6252   -0.1320 H   0  0  0  0  0  0  0  0  0  0  0  0
    6.0832   -5.7265    0.9918 H   0  0  0  0  0  0  0  0  0  0  0  0
    5.3245   -1.6205   -1.1696 H   0  0  0  0  0  0  0  0  0  0  0  0
    3.6897   -1.6100   -0.4996 H   0  0  0  0  0  0  0  0  0  0  0  0
    3.9296  -10.7640    1.1860 H   0  0  0  0  0  0  0  0  0  0  0  0
    4.5964   -3.8942    0.7757 H   0  0  0  0  0  0  0  0  0  0  0  0
  1 16  1  0
  1  2  1  0
  1 17  1  0
  1 18  1  0
  2  3  1  0
  2 19  1  0
  2 20  1  0
  3  4  1  0
  3 21  1  0
  3 22  1  0
  4  5  1  0
  4 16  1  0
  4 23  1  0
  5  6  1  0
  5 24  1  0
  5 25  1  0
  6 15  1  0
  6  7  1  0
  6 36  1  1
  7  8  1  0
  7 26  1  0
  7 27  1  0
  8  9  1  0
  8 28  1  0
  8 29  1  0
  9 10  1  0
  9 15  1  0
  9 30  1  1
 10 14  1  0
 10 11  2  0
 11 12  1  0
 12 13  2  0
 12 35  1  0
 13 14  1  0
 15 31  1  0
 15 32  1  0
 16 33  1  0
 16 34  1  0
M  CHG  2   6   1  12   1
M  END
>  <i_m_ct_stereo_status>  (75) 
1

>  <s_m_source_file>  (75) 
/var/tmp/pbs.5076255.sched01/tmpikn618da/06v91y69d.sdf

>  <i_m_source_file_index>  (75) 
35

>  <i_lp_mmshare_version>  (75) 
48012

>  <i_f3d_flags>  (75) 
0

>  <s_epik_input>  (75) 
W0NIMl0xW0NIMl1bQ0gyXVtDSDJdW0NIXTFbQ0gyXU4yW0NIMl1bQ0gyXVtDQEhdKFtDSDJdMiljM25ubm8z

>  <s_epik_cmdline>  (75) 
J2VwaWtfcHl0aG9uJywgJy1waHQnLCAnMi4wJywgJy1waCcsICc3LjAnLCAnLXRuJywgJzgnLCAnLW1hJywgJzIwMCcsICctaW1hZScsICc8aW5maWxlLm1hZT4nLCAnLW9tYWUnLCAnPG91dGZpbGUubWFlPic=

>  <r_epik_Ionization_Penalty>  (75) 
0.00159129

>  <r_epik_Ionization_Penalty_Charging>  (75) 
0.00159127

>  <r_epik_Ionization_Penalty_Neutral>  (75) 
1.28932e-08

>  <r_epik_State_Penalty>  (75) 
0.00102528

>  <r_epik_Charging_Adjusted_Penalty>  (75) 
0.00261655

>  <i_epik_Tot_Q>  (75) 
2

>  <i_epik_Tot_abs_Q>  (75) 
2

>  <s_lp_Force_Field>  (75) 
OPLS3e

>  <r_lp_Energy>  (75) 
27.6786

>  <b_lp_Chiralities_Consistent>  (75) 
1

>  <s_lp_Variant>  (75) 
21:0-1

>  <s_i_glide_gridfile>  (75) 
pfpi4k_grid

>  <i_i_glide_lignum>  (75) 
35

>  <i_i_glide_rotatable_bonds>  (75) 
3

>  <r_i_docking_score>  (75) 
-3.83884

>  <r_i_glide_ligand_efficiency>  (75) 
-0.239928

>  <r_i_glide_ligand_efficiency_sa>  (75) 
-0.60458

>  <r_i_glide_ligand_efficiency_ln>  (75) 
-1.01756

>  <r_i_glide_gscore>  (75) 
-3.83884

>  <r_i_glide_lipo>  (75) 
-0.466218

>  <r_i_glide_hbond>  (75) 
-0.2

>  <r_i_glide_metal>  (75) 
-0

>  <r_i_glide_rewards>  (75) 
-1.87975

>  <r_i_glide_evdw>  (75) 
-19.9605

>  <r_i_glide_ecoul>  (75) 
-7.85096

>  <r_i_glide_erotb>  (75) 
1.01042

>  <r_i_glide_esite>  (75) 
-0.127619

>  <r_i_glide_emodel>  (75) 
-34.7747

>  <r_i_glide_energy>  (75) 
-27.8115

>  <r_i_glide_einternal>  (75) 
3.51906

>  <r_i_glide_intrahb_reward>  (75) 
-0

>  <i_i_glide_confnum>  (75) 
3

>  <i_i_glide_posenum>  (75) 
37

>  <r_i_glide_eff_state_penalty>  (75) 
0

>  <ligand_id>  (75) 
21

>  <original_smiles>  (75) 
C1CCC(CN2CCC(c3nnno3)C2)C1

>  <smiles>  (75) 
[H][n+]1noc(C2([H])C([H])([H])C([H])([H])[N+]([H])(C([H])([H])C3([H])C([H])([H])C([H])([H])C([H])([H])C3([H])[H])C2([H])[H])n1

$$$$
21:0:1
     RDKit          3D

 36 38  0  0  1  0  0  0  0  0999 V2000
    3.6392   -0.6688   -2.8251 C   0  0  0  0  0  0  0  0  0  0  0  0
    3.9206   -1.5200   -4.0598 C   0  0  0  0  0  0  0  0  0  0  0  0
    4.6059   -2.7751   -3.5360 C   0  0  0  0  0  0  0  0  0  0  0  0
    4.0188   -2.9880   -2.1598 C   0  0  0  0  0  0  0  0  0  0  0  0
    4.8891   -3.9002   -1.2890 C   0  0  0  0  0  0  0  0  0  0  0  0
    4.0629   -4.6417   -0.3143 N   0  0  1  0  0  0  0  0  0  0  0  0
    4.6063   -5.9471    0.1021 C   0  0  0  0  0  0  0  0  0  0  0  0
    3.8165   -6.3451    1.3543 C   0  0  0  0  0  0  0  0  0  0  0  0
    3.2919   -5.0092    1.9118 C   0  0  1  0  0  0  0  0  0  0  0  0
    3.6348   -4.7384    3.3595 C   0  0  0  0  0  0  0  0  0  0  0  0
    4.8891   -4.6369    3.8284 N   0  0  0  0  0  0  0  0  0  0  0  0
    4.7405   -4.4398    5.1113 N   0  0  0  0  0  0  0  0  0  0  0  0
    3.5202   -4.3792    5.5709 N   0  0  0  0  0  0  0  0  0  0  0  0
    2.7690   -4.5726    4.4008 O   0  0  0  0  0  0  0  0  0  0  0  0
    3.7825   -3.9242    0.9472 C   0  0  0  0  0  0  0  0  0  0  0  0
    3.8618   -1.5694   -1.6085 C   0  0  0  0  0  0  0  0  0  0  0  0
    2.6140   -0.3009   -2.8445 H   0  0  0  0  0  0  0  0  0  0  0  0
    4.2950    0.2031   -2.7812 H   0  0  0  0  0  0  0  0  0  0  0  0
    2.9768   -1.7875   -4.5375 H   0  0  0  0  0  0  0  0  0  0  0  0
    4.5296   -0.9923   -4.7915 H   0  0  0  0  0  0  0  0  0  0  0  0
    4.4248   -3.6286   -4.1763 H   0  0  0  0  0  0  0  0  0  0  0  0
    5.6808   -2.6209   -3.4713 H   0  0  0  0  0  0  0  0  0  0  0  0
    3.0282   -3.4246   -2.3051 H   0  0  0  0  0  0  0  0  0  0  0  0
    5.3844   -4.6129   -1.9505 H   0  0  0  0  0  0  0  0  0  0  0  0
    5.7199   -3.3490   -0.8294 H   0  0  0  0  0  0  0  0  0  0  0  0
    4.5674   -6.7014   -0.6903 H   0  0  0  0  0  0  0  0  0  0  0  0
    5.6509   -5.8071    0.3765 H   0  0  0  0  0  0  0  0  0  0  0  0
    2.9757   -6.9892    1.0861 H   0  0  0  0  0  0  0  0  0  0  0  0
    4.4407   -6.9053    2.0562 H   0  0  0  0  0  0  0  0  0  0  0  0
    2.2075   -5.0300    1.8358 H   0  0  0  0  0  0  0  0  0  0  0  0
    4.7252   -3.5111    1.3045 H   0  0  0  0  0  0  0  0  0  0  0  0
    3.0828   -3.0913    0.8440 H   0  0  0  0  0  0  0  0  0  0  0  0
    4.7712   -1.2473   -1.0973 H   0  0  0  0  0  0  0  0  0  0  0  0
    3.0363   -1.4898   -0.9008 H   0  0  0  0  0  0  0  0  0  0  0  0
    5.5529   -4.3347    5.7252 H   0  0  0  0  0  0  0  0  0  0  0  0
    3.1828   -4.8693   -0.7620 H   0  0  0  0  0  0  0  0  0  0  0  0
  1 16  1  0
  1  2  1  0
  1 17  1  0
  1 18  1  0
  2  3  1  0
  2 19  1  0
  2 20  1  0
  3  4  1  0
  3 21  1  0
  3 22  1  0
  4  5  1  0
  4 16  1  0
  4 23  1  0
  5  6  1  0
  5 24  1  0
  5 25  1  0
  6 15  1  0
  6  7  1  0
  6 36  1  6
  7  8  1  0
  7 26  1  0
  7 27  1  0
  8  9  1  0
  8 28  1  0
  8 29  1  0
  9 10  1  0
  9 15  1  0
  9 30  1  1
 10 14  1  0
 10 11  2  0
 11 12  1  0
 12 13  2  0
 12 35  1  0
 13 14  1  0
 15 31  1  0
 15 32  1  0
 16 33  1  0
 16 34  1  0
M  CHG  2   6   1  12   1
M  END
>  <i_m_ct_stereo_status>  (76) 
1

>  <s_m_source_file>  (76) 
/var/tmp/pbs.5076255.sched01/tmpikn618da/06v91y69d.sdf

>  <i_m_source_file_index>  (76) 
35

>  <i_lp_mmshare_version>  (76) 
48012

>  <i_f3d_flags>  (76) 
0

>  <s_epik_input>  (76) 
W0NIMl0xW0NIMl1bQ0gyXVtDSDJdW0NIXTFbQ0gyXU4yW0NIMl1bQ0gyXVtDQEhdKFtDSDJdMiljM25ubm8z

>  <s_epik_cmdline>  (76) 
J2VwaWtfcHl0aG9uJywgJy1waHQnLCAnMi4wJywgJy1waCcsICc3LjAnLCAnLXRuJywgJzgnLCAnLW1hJywgJzIwMCcsICctaW1hZScsICc8aW5maWxlLm1hZT4nLCAnLW9tYWUnLCAnPG91dGZpbGUubWFlPic=

>  <r_epik_Ionization_Penalty>  (76) 
0.00159129

>  <r_epik_Ionization_Penalty_Charging>  (76) 
0.00159127

>  <r_epik_Ionization_Penalty_Neutral>  (76) 
1.28932e-08

>  <r_epik_State_Penalty>  (76) 
0.00102528

>  <r_epik_Charging_Adjusted_Penalty>  (76) 
0.00261655

>  <i_epik_Tot_Q>  (76) 
2

>  <i_epik_Tot_abs_Q>  (76) 
2

>  <s_lp_Force_Field>  (76) 
OPLS3e

>  <r_lp_Energy>  (76) 
27.6786

>  <b_lp_Chiralities_Consistent>  (76) 
1

>  <s_lp_Variant>  (76) 
21:0-1

>  <s_i_glide_gridfile>  (76) 
pfpi4k_grid

>  <i_i_glide_lignum>  (76) 
35

>  <i_i_glide_rotatable_bonds>  (76) 
3

>  <r_i_docking_score>  (76) 
-2.82111

>  <r_i_glide_ligand_efficiency>  (76) 
-0.176319

>  <r_i_glide_ligand_efficiency_sa>  (76) 
-0.444297

>  <r_i_glide_ligand_efficiency_ln>  (76) 
-0.747792

>  <r_i_glide_gscore>  (76) 
-2.82111

>  <r_i_glide_lipo>  (76) 
-0.300189

>  <r_i_glide_hbond>  (76) 
0

>  <r_i_glide_metal>  (76) 
-0

>  <r_i_glide_rewards>  (76) 
-1.87975

>  <r_i_glide_evdw>  (76) 
-19.5049

>  <r_i_glide_ecoul>  (76) 
-4.3304

>  <r_i_glide_erotb>  (76) 
1.01042

>  <r_i_glide_esite>  (76) 
-0.0267809

>  <r_i_glide_emodel>  (76) 
-28.2813

>  <r_i_glide_energy>  (76) 
-23.8353

>  <r_i_glide_einternal>  (76) 
4.05275

>  <r_i_glide_intrahb_reward>  (76) 
-0

>  <i_i_glide_confnum>  (76) 
6

>  <i_i_glide_posenum>  (76) 
40

>  <r_i_glide_eff_state_penalty>  (76) 
0

>  <ligand_id>  (76) 
21

>  <original_smiles>  (76) 
C1CCC(CN2CCC(c3nnno3)C2)C1

>  <smiles>  (76) 
[H][n+]1noc(C2([H])C([H])([H])C([H])([H])[N+]([H])(C([H])([H])C3([H])C([H])([H])C([H])([H])C([H])([H])C3([H])[H])C2([H])[H])n1

$$$$
21:0:2
     RDKit          3D

 36 38  0  0  1  0  0  0  0  0999 V2000
    3.9354   -1.0838   -3.7777 C   0  0  0  0  0  0  0  0  0  0  0  0
    2.9504   -2.2510   -3.9130 C   0  0  0  0  0  0  0  0  0  0  0  0
    3.1294   -3.0973   -2.6656 C   0  0  0  0  0  0  0  0  0  0  0  0
    3.5590   -2.1085   -1.5990 C   0  0  0  0  0  0  0  0  0  0  0  0
    4.2411   -2.7708   -0.3875 C   0  0  0  0  0  0  0  0  0  0  0  0
    3.2565   -3.1095    0.6571 N   0  0  1  0  0  0  0  0  0  0  0  0
    3.5605   -4.3293    1.4262 C   0  0  0  0  0  0  0  0  0  0  0  0
    2.6630   -4.2659    2.6653 C   0  0  0  0  0  0  0  0  0  0  0  0
    2.3667   -2.7660    2.8468 C   0  0  1  0  0  0  0  0  0  0  0  0
    2.8246   -2.2212    4.1824 C   0  0  0  0  0  0  0  0  0  0  0  0
    2.0760   -1.6052    5.0984 N   0  0  0  0  0  0  0  0  0  0  0  0
    2.9307   -1.3209    6.0624 N   0  0  0  0  0  0  0  0  0  0  0  0
    4.1866   -1.6851    5.8801 N   0  0  0  0  0  0  0  0  0  0  0  0
    4.1329   -2.2848    4.6215 O   0  0  0  0  0  0  0  0  0  0  0  0
    3.0566   -2.0606    1.6723 C   0  0  0  0  0  0  0  0  0  0  0  0
    4.4599   -1.1247   -2.3428 C   0  0  0  0  0  0  0  0  0  0  0  0
    3.4345   -0.1429   -3.9838 H   0  0  0  0  0  0  0  0  0  0  0  0
    4.7592   -1.1927   -4.4766 H   0  0  0  0  0  0  0  0  0  0  0  0
    1.9274   -1.8730   -3.9614 H   0  0  0  0  0  0  0  0  0  0  0  0
    3.1164   -2.8584   -4.8116 H   0  0  0  0  0  0  0  0  0  0  0  0
    2.2195   -3.6269   -2.4069 H   0  0  0  0  0  0  0  0  0  0  0  0
    3.9172   -3.8234   -2.8559 H   0  0  0  0  0  0  0  0  0  0  0  0
    2.6785   -1.5547   -1.2768 H   0  0  0  0  0  0  0  0  0  0  0  0
    4.7897   -3.6595   -0.7365 H   0  0  0  0  0  0  0  0  0  0  0  0
    5.0382   -2.1150   -0.0018 H   0  0  0  0  0  0  0  0  0  0  0  0
    3.4224   -5.2479    0.8500 H   0  0  0  0  0  0  0  0  0  0  0  0
    4.6000   -4.2885    1.7485 H   0  0  0  0  0  0  0  0  0  0  0  0
    1.7361   -4.8253    2.5042 H   0  0  0  0  0  0  0  0  0  0  0  0
    3.1517   -4.7136    3.5348 H   0  0  0  0  0  0  0  0  0  0  0  0
    1.2814   -2.6174    2.7505 H   0  0  0  0  0  0  0  0  0  0  0  0
    4.0349   -1.7231    2.0024 H   0  0  0  0  0  0  0  0  0  0  0  0
    2.5187   -1.1814    1.3071 H   0  0  0  0  0  0  0  0  0  0  0  0
    5.4893   -1.4853   -2.3252 H   0  0  0  0  0  0  0  0  0  0  0  0
    4.4300   -0.1472   -1.8636 H   0  0  0  0  0  0  0  0  0  0  0  0
    2.6342   -0.8422    6.9170 H   0  0  0  0  0  0  0  0  0  0  0  0
    2.3622   -3.2642    0.2156 H   0  0  0  0  0  0  0  0  0  0  0  0
  1 16  1  0
  1  2  1  0
  1 17  1  0
  1 18  1  0
  2  3  1  0
  2 19  1  0
  2 20  1  0
  3  4  1  0
  3 21  1  0
  3 22  1  0
  4  5  1  0
  4 16  1  0
  4 23  1  0
  5  6  1  0
  5 24  1  0
  5 25  1  0
  6 15  1  0
  6  7  1  0
  6 36  1  6
  7  8  1  0
  7 26  1  0
  7 27  1  0
  8  9  1  0
  8 28  1  0
  8 29  1  0
  9 10  1  0
  9 15  1  0
  9 30  1  6
 10 14  1  0
 10 11  2  0
 11 12  1  0
 12 13  2  0
 12 35  1  0
 13 14  1  0
 15 31  1  0
 15 32  1  0
 16 33  1  0
 16 34  1  0
M  CHG  2   6   1  12   1
M  END
>  <i_m_ct_stereo_status>  (77) 
1

>  <s_m_source_file>  (77) 
/var/tmp/pbs.5076255.sched01/tmpikn618da/06v91y69d.sdf

>  <i_m_source_file_index>  (77) 
35

>  <i_lp_mmshare_version>  (77) 
48012

>  <i_f3d_flags>  (77) 
0

>  <s_epik_input>  (77) 
W0NIMl0xW0NIMl1bQ0gyXVtDSDJdW0NIXTFbQ0gyXU4yW0NIMl1bQ0gyXVtDQEhdKFtDSDJdMiljM25ubm8z

>  <s_epik_cmdline>  (77) 
J2VwaWtfcHl0aG9uJywgJy1waHQnLCAnMi4wJywgJy1waCcsICc3LjAnLCAnLXRuJywgJzgnLCAnLW1hJywgJzIwMCcsICctaW1hZScsICc8aW5maWxlLm1hZT4nLCAnLW9tYWUnLCAnPG91dGZpbGUubWFlPic=

>  <r_epik_Ionization_Penalty>  (77) 
0.00159129

>  <r_epik_Ionization_Penalty_Charging>  (77) 
0.00159127

>  <r_epik_Ionization_Penalty_Neutral>  (77) 
1.28932e-08

>  <r_epik_State_Penalty>  (77) 
0.00102528

>  <r_epik_Charging_Adjusted_Penalty>  (77) 
0.00261655

>  <i_epik_Tot_Q>  (77) 
2

>  <i_epik_Tot_abs_Q>  (77) 
2

>  <s_lp_Force_Field>  (77) 
OPLS3e

>  <r_lp_Energy>  (77) 
27.6786

>  <b_lp_Chiralities_Consistent>  (77) 
1

>  <s_lp_Variant>  (77) 
21:0-1

>  <s_i_glide_gridfile>  (77) 
pfpi4k_grid

>  <i_i_glide_lignum>  (77) 
35

>  <i_i_glide_rotatable_bonds>  (77) 
3

>  <r_i_docking_score>  (77) 
-2.71451

>  <r_i_glide_ligand_efficiency>  (77) 
-0.169657

>  <r_i_glide_ligand_efficiency_sa>  (77) 
-0.427508

>  <r_i_glide_ligand_efficiency_ln>  (77) 
-0.719535

>  <r_i_glide_gscore>  (77) 
-2.71451

>  <r_i_glide_lipo>  (77) 
-0.320184

>  <r_i_glide_hbond>  (77) 
0

>  <r_i_glide_metal>  (77) 
-0

>  <r_i_glide_rewards>  (77) 
-1.87975

>  <r_i_glide_evdw>  (77) 
-17.0179

>  <r_i_glide_ecoul>  (77) 
-4.40605

>  <r_i_glide_erotb>  (77) 
1.01042

>  <r_i_glide_esite>  (77) 
-0.013189

>  <r_i_glide_emodel>  (77) 
-25.9468

>  <r_i_glide_energy>  (77) 
-21.424

>  <r_i_glide_einternal>  (77) 
3.55694

>  <r_i_glide_intrahb_reward>  (77) 
-0

>  <i_i_glide_confnum>  (77) 
6

>  <i_i_glide_posenum>  (77) 
33

>  <r_i_glide_eff_state_penalty>  (77) 
0

>  <ligand_id>  (77) 
21

>  <original_smiles>  (77) 
C1CCC(CN2CCC(c3nnno3)C2)C1

>  <smiles>  (77) 
[H][n+]1noc(C2([H])C([H])([H])C([H])([H])[N+]([H])(C([H])([H])C3([H])C([H])([H])C([H])([H])C([H])([H])C3([H])[H])C2([H])[H])n1

$$$$
22:0:0
     RDKit          3D

 62 67  0  0  1  0  0  0  0  0999 V2000
    2.1830   -6.1716    1.8326 C   0  0  0  0  0  0  0  0  0  0  0  0
    3.4751   -6.1985    1.0155 C   0  0  0  0  0  0  0  0  0  0  0  0
    4.0643   -4.8842    0.7007 N   0  0  0  0  0  0  0  0  0  0  0  0
    4.5016   -4.1520    1.9302 C   0  0  0  0  0  0  0  0  0  0  0  0
    5.2016   -2.8272    1.5475 C   0  0  0  0  0  0  0  0  0  0  0  0
    5.2051   -2.6156    0.0988 N   0  0  0  0  0  0  0  0  0  0  0  0
    5.9245   -3.7309   -0.5187 C   0  0  0  0  0  0  0  0  0  0  0  0
    5.2709   -5.0798   -0.1529 C   0  0  0  0  0  0  0  0  0  0  0  0
    3.8240   -2.6442   -0.3854 C   0  0  0  0  0  0  0  0  0  0  0  0
    3.1330   -3.9814   -0.0535 C   0  0  0  0  0  0  0  0  0  0  0  0
    1.8812   -6.8188    2.9762 C   0  0  0  0  0  0  0  0  0  0  0  0
    2.8867   -7.7655    3.6799 C   0  0  0  0  0  0  0  0  0  0  0  0
    2.3162   -9.1674    3.7074 C   0  0  1  0  0  0  0  0  0  0  0  0
    3.2119  -10.3871    3.4769 C   0  0  0  0  0  0  0  0  0  0  0  0
    2.3064  -11.6481    3.5443 C   0  0  0  0  0  0  0  0  0  0  0  0
    0.7939  -11.3568    3.2657 C   0  0  0  0  0  0  0  0  0  0  0  0
    0.2394  -10.2369    4.0973 N   0  0  2  0  0  0  0  0  0  0  0  0
   -0.5350   -9.1670    3.3905 C   0  0  0  0  0  0  0  0  0  0  0  0
   -0.2924   -7.8502    4.2038 C   0  0  2  0  0  0  0  0  0  0  0  0
    0.4621   -6.6285    3.5755 C   0  0  1  0  0  0  0  0  0  0  0  0
    0.4778   -5.5006    4.6277 C   0  0  0  0  0  0  0  0  0  0  0  0
    1.3634   -5.8550    5.8246 C   0  0  0  0  0  0  0  0  0  0  0  0
    1.1135   -7.2773    6.3772 C   0  0  0  0  0  0  0  0  0  0  0  0
    0.4752   -8.3310    5.4185 C   0  0  2  0  0  0  0  0  0  0  0  0
    1.2850   -9.4856    4.8223 C   0  0  2  0  0  0  0  0  0  0  0  0
    1.4087   -5.5518    1.4165 H   0  0  0  0  0  0  0  0  0  0  0  0
    4.2675   -6.8021    1.4615 H   0  0  0  0  0  0  0  0  0  0  0  0
    3.2277   -6.6982    0.0831 H   0  0  0  0  0  0  0  0  0  0  0  0
    3.6486   -3.9384    2.5742 H   0  0  0  0  0  0  0  0  0  0  0  0
    5.1829   -4.7752    2.5134 H   0  0  0  0  0  0  0  0  0  0  0  0
    4.7014   -1.9820    2.0240 H   0  0  0  0  0  0  0  0  0  0  0  0
    6.2360   -2.8304    1.8992 H   0  0  0  0  0  0  0  0  0  0  0  0
    5.9245   -3.5948   -1.6009 H   0  0  0  0  0  0  0  0  0  0  0  0
    6.9632   -3.7093   -0.1842 H   0  0  0  0  0  0  0  0  0  0  0  0
    6.0017   -5.7091    0.3615 H   0  0  0  0  0  0  0  0  0  0  0  0
    5.0021   -5.6092   -1.0697 H   0  0  0  0  0  0  0  0  0  0  0  0
    3.2685   -1.8230    0.0738 H   0  0  0  0  0  0  0  0  0  0  0  0
    3.8127   -2.4808   -1.4645 H   0  0  0  0  0  0  0  0  0  0  0  0
    2.8052   -4.4786   -0.9657 H   0  0  0  0  0  0  0  0  0  0  0  0
    2.2431   -3.7409    0.5231 H   0  0  0  0  0  0  0  0  0  0  0  0
    3.8075   -7.8636    3.1225 H   0  0  0  0  0  0  0  0  0  0  0  0
    3.2039   -7.4183    4.6598 H   0  0  0  0  0  0  0  0  0  0  0  0
    1.8523   -9.1546    2.7175 H   0  0  0  0  0  0  0  0  0  0  0  0
    3.6750  -10.3218    2.4871 H   0  0  0  0  0  0  0  0  0  0  0  0
    4.0269  -10.4445    4.2040 H   0  0  0  0  0  0  0  0  0  0  0  0
    2.6955  -12.4078    2.8644 H   0  0  0  0  0  0  0  0  0  0  0  0
    2.4020  -12.0782    4.5447 H   0  0  0  0  0  0  0  0  0  0  0  0
    0.6299  -11.1275    2.2169 H   0  0  0  0  0  0  0  0  0  0  0  0
    0.2282  -12.2603    3.4788 H   0  0  0  0  0  0  0  0  0  0  0  0
   -0.2577   -9.0353    2.3506 H   0  0  0  0  0  0  0  0  0  0  0  0
   -1.5867   -9.4381    3.3818 H   0  0  0  0  0  0  0  0  0  0  0  0
   -1.2690   -7.4915    4.5338 H   0  0  0  0  0  0  0  0  0  0  0  0
   -0.1743   -6.2834    2.7604 H   0  0  0  0  0  0  0  0  0  0  0  0
    0.8218   -4.5679    4.1814 H   0  0  0  0  0  0  0  0  0  0  0  0
   -0.5350   -5.3052    4.9815 H   0  0  0  0  0  0  0  0  0  0  0  0
    2.4080   -5.7129    5.5551 H   0  0  0  0  0  0  0  0  0  0  0  0
    1.2023   -5.1294    6.6212 H   0  0  0  0  0  0  0  0  0  0  0  0
    2.0438   -7.6714    6.7858 H   0  0  0  0  0  0  0  0  0  0  0  0
    0.4403   -7.1671    7.2308 H   0  0  0  0  0  0  0  0  0  0  0  0
   -0.2563   -8.8277    6.0514 H   0  0  0  0  0  0  0  0  0  0  0  0
    1.7206  -10.0783    5.6312 H   0  0  0  0  0  0  0  0  0  0  0  0
   -0.3955  -10.6494    4.7696 H   0  0  0  0  0  0  0  0  0  0  0  0
  1  2  1  0
  1 11  2  3
  1 26  1  0
  2  3  1  0
  2 27  1  0
  2 28  1  0
  3  8  1  0
  3 10  1  0
  3  4  1  0
  4  5  1  0
  4 29  1  0
  4 30  1  0
  5  6  1  0
  5 31  1  0
  5 32  1  0
  6  7  1  0
  6  9  1  0
  7  8  1  0
  7 33  1  0
  7 34  1  0
  8 35  1  0
  8 36  1  0
  9 10  1  0
  9 37  1  0
  9 38  1  0
 10 39  1  0
 10 40  1  0
 11 20  1  0
 11 12  1  0
 12 13  1  0
 12 41  1  0
 12 42  1  0
 13 25  1  0
 13 14  1  0
 13 43  1  6
 14 15  1  0
 14 44  1  0
 14 45  1  0
 15 16  1  0
 15 46  1  0
 15 47  1  0
 16 17  1  0
 16 48  1  0
 16 49  1  0
 17 25  1  0
 17 18  1  0
 17 62  1  1
 18 19  1  0
 18 50  1  0
 18 51  1  0
 19 24  1  0
 19 20  1  0
 19 52  1  1
 20 21  1  0
 20 53  1  6
 21 22  1  0
 21 54  1  0
 21 55  1  0
 22 23  1  0
 22 56  1  0
 22 57  1  0
 23 24  1  0
 23 58  1  0
 23 59  1  0
 24 25  1  0
 24 60  1  1
 25 61  1  1
M  CHG  2   3   1  17   1
M  END
>  <i_m_ct_stereo_status>  (78) 
1

>  <s_m_source_file>  (78) 
/var/tmp/pbs.5076255.sched01/tmpikn618da/06v91y69d.sdf

>  <i_m_source_file_index>  (78) 
36

>  <i_lp_mmshare_version>  (78) 
48012

>  <i_f3d_flags>  (78) 
0

>  <s_epik_input>  (78) 
W0NIMl0xW0NIMl1OKFtDSDJdW0NIMl0yKVtDSDJdW0NIMl1bTitdMTJbQ0gyXS9bQ0hdPUMoXFtDSDJdMylbQ0hdKFtDSDJdW0NIMl1bQ0gyXVtDQEBIXTQ1KVtDQEhdNFtDSDJdTihbQ0BIXTVbQ0BASF0zNilbQ0gyXVtDSDJdW0NIMl02

>  <s_epik_cmdline>  (78) 
J2VwaWtfcHl0aG9uJywgJy1waHQnLCAnMi4wJywgJy1waCcsICc3LjAnLCAnLXRuJywgJzgnLCAnLW1hJywgJzIwMCcsICctaW1hZScsICc8aW5maWxlLm1hZT4nLCAnLW9tYWUnLCAnPG91dGZpbGUubWFlPic=

>  <r_epik_Ionization_Penalty>  (78) 
0.000622895

>  <r_epik_Ionization_Penalty_Charging>  (78) 
0.000419695

>  <r_epik_Ionization_Penalty_Neutral>  (78) 
0.0002032

>  <r_epik_State_Penalty>  (78) 
0.000258058

>  <r_epik_Charging_Adjusted_Penalty>  (78) 
0.000677753

>  <i_epik_Tot_Q>  (78) 
2

>  <i_epik_Tot_abs_Q>  (78) 
2

>  <s_lp_Force_Field>  (78) 
OPLS3e

>  <r_lp_Energy>  (78) 
96.9371

>  <b_lp_Chiralities_Consistent>  (78) 
1

>  <s_lp_Variant>  (78) 
22:0-1

>  <s_i_glide_gridfile>  (78) 
pfpi4k_grid

>  <i_i_glide_lignum>  (78) 
36

>  <i_i_glide_rotatable_bonds>  (78) 
2

>  <r_i_docking_score>  (78) 
-3.43139

>  <r_i_glide_ligand_efficiency>  (78) 
-0.137256

>  <r_i_glide_ligand_efficiency_sa>  (78) 
-0.401338

>  <r_i_glide_ligand_efficiency_ln>  (78) 
-0.813343

>  <r_i_glide_gscore>  (78) 
-3.43139

>  <r_i_glide_lipo>  (78) 
-0.335842

>  <r_i_glide_hbond>  (78) 
-0.180528

>  <r_i_glide_metal>  (78) 
-0

>  <r_i_glide_rewards>  (78) 
-1.06671

>  <r_i_glide_evdw>  (78) 
-18.8187

>  <r_i_glide_ecoul>  (78) 
-6.6462

>  <r_i_glide_erotb>  (78) 
0.160781

>  <r_i_glide_esite>  (78) 
-0.0712265

>  <r_i_glide_emodel>  (78) 
-34.1479

>  <r_i_glide_energy>  (78) 
-25.4649

>  <r_i_glide_einternal>  (78) 
0.319469

>  <r_i_glide_intrahb_reward>  (78) 
-0

>  <i_i_glide_confnum>  (78) 
2

>  <i_i_glide_posenum>  (78) 
19

>  <r_i_glide_eff_state_penalty>  (78) 
0

>  <ligand_id>  (78) 
22

>  <original_smiles>  (78) 
C(C[N+]12CCN(CC1)CC2)=C1CC2CCCN3CC4C1CCCC4C23

>  <smiles>  (78) 
[H]C(=C1C([H])([H])C2([H])C([H])([H])C([H])([H])C([H])([H])[N+]3([H])C([H])([H])C4([H])C1([H])C([H])([H])C([H])([H])C([H])([H])C4([H])C23[H])C([H])([H])[N+]12C([H])([H])C([H])([H])N(C([H])([H])C1([H])[H])C([H])([H])C2([H])[H]

$$$$
22:0:1
     RDKit          3D

 62 67  0  0  1  0  0  0  0  0999 V2000
    2.1225   -4.9485    2.0921 C   0  0  0  0  0  0  0  0  0  0  0  0
    3.0045   -5.1713    0.8623 C   0  0  0  0  0  0  0  0  0  0  0  0
    3.9489   -4.0576    0.5546 N   0  0  0  0  0  0  0  0  0  0  0  0
    3.2484   -2.7737    0.2523 C   0  0  0  0  0  0  0  0  0  0  0  0
    4.2714   -1.6585   -0.0833 C   0  0  0  0  0  0  0  0  0  0  0  0
    5.6424   -2.1794   -0.0694 N   0  0  0  0  0  0  0  0  0  0  0  0
    5.9295   -2.7023    1.2703 C   0  0  0  0  0  0  0  0  0  0  0  0
    4.9183   -3.8145    1.6637 C   0  0  0  0  0  0  0  0  0  0  0  0
    5.7353   -3.2836   -1.0273 C   0  0  0  0  0  0  0  0  0  0  0  0
    4.7497   -4.4178   -0.6515 C   0  0  0  0  0  0  0  0  0  0  0  0
    1.8869   -5.7889    3.1232 C   0  0  0  0  0  0  0  0  0  0  0  0
    2.5404   -7.1893    3.2048 C   0  0  0  0  0  0  0  0  0  0  0  0
    1.4639   -8.2531    3.1855 C   0  0  1  0  0  0  0  0  0  0  0  0
    1.6517   -9.5698    2.4213 C   0  0  0  0  0  0  0  0  0  0  0  0
    0.3488  -10.4060    2.5803 C   0  0  0  0  0  0  0  0  0  0  0  0
   -0.9069   -9.5307    2.9080 C   0  0  0  0  0  0  0  0  0  0  0  0
   -0.6920   -8.6300    4.0901 N   0  0  2  0  0  0  0  0  0  0  0  0
   -1.1014   -7.1920    3.9535 C   0  0  0  0  0  0  0  0  0  0  0  0
   -0.1139   -6.3591    4.8465 C   0  0  2  0  0  0  0  0  0  0  0  0
    0.8921   -5.3275    4.2284 C   0  0  1  0  0  0  0  0  0  0  0  0
    1.6637   -4.6760    5.3908 C   0  0  0  0  0  0  0  0  0  0  0  0
    2.5893   -5.6736    6.0924 C   0  0  0  0  0  0  0  0  0  0  0  0
    1.9126   -7.0257    6.4149 C   0  0  0  0  0  0  0  0  0  0  0  0
    0.6576   -7.4353    5.5826 C   0  0  2  0  0  0  0  0  0  0  0  0
    0.7152   -8.5383    4.5195 C   0  0  2  0  0  0  0  0  0  0  0  0
    1.6154   -3.9974    2.1257 H   0  0  0  0  0  0  0  0  0  0  0  0
    3.6172   -6.0641    0.9516 H   0  0  0  0  0  0  0  0  0  0  0  0
    2.3431   -5.3460    0.0098 H   0  0  0  0  0  0  0  0  0  0  0  0
    2.5644   -2.9159   -0.5890 H   0  0  0  0  0  0  0  0  0  0  0  0
    2.6458   -2.4238    1.0930 H   0  0  0  0  0  0  0  0  0  0  0  0
    4.0437   -1.2252   -1.0608 H   0  0  0  0  0  0  0  0  0  0  0  0
    4.1904   -0.8566    0.6558 H   0  0  0  0  0  0  0  0  0  0  0  0
    6.9495   -3.0942    1.2900 H   0  0  0  0  0  0  0  0  0  0  0  0
    5.8832   -1.8837    1.9924 H   0  0  0  0  0  0  0  0  0  0  0  0
    4.4019   -3.5265    2.5828 H   0  0  0  0  0  0  0  0  0  0  0  0
    5.4629   -4.7343    1.8921 H   0  0  0  0  0  0  0  0  0  0  0  0
    5.5107   -2.9154   -2.0326 H   0  0  0  0  0  0  0  0  0  0  0  0
    6.7581   -3.6692   -1.0405 H   0  0  0  0  0  0  0  0  0  0  0  0
    5.3051   -5.3454   -0.4827 H   0  0  0  0  0  0  0  0  0  0  0  0
    4.0909   -4.6055   -1.5015 H   0  0  0  0  0  0  0  0  0  0  0  0
    3.1505   -7.4010    2.3333 H   0  0  0  0  0  0  0  0  0  0  0  0
    3.2149   -7.3088    4.0478 H   0  0  0  0  0  0  0  0  0  0  0  0
    0.8049   -7.7736    2.4630 H   0  0  0  0  0  0  0  0  0  0  0  0
    1.8237   -9.3527    1.3612 H   0  0  0  0  0  0  0  0  0  0  0  0
    2.5242  -10.1268    2.7753 H   0  0  0  0  0  0  0  0  0  0  0  0
    0.1685  -11.0071    1.6861 H   0  0  0  0  0  0  0  0  0  0  0  0
    0.5015  -11.1260    3.3893 H   0  0  0  0  0  0  0  0  0  0  0  0
   -1.1911   -8.9618    2.0194 H   0  0  0  0  0  0  0  0  0  0  0  0
   -1.7470  -10.1823    3.1227 H   0  0  0  0  0  0  0  0  0  0  0  0
   -1.0678   -6.8402    2.9207 H   0  0  0  0  0  0  0  0  0  0  0  0
   -2.1331   -7.0673    4.2809 H   0  0  0  0  0  0  0  0  0  0  0  0
   -0.7201   -5.8142    5.5741 H   0  0  0  0  0  0  0  0  0  0  0  0
    0.2776   -4.5340    3.7957 H   0  0  0  0  0  0  0  0  0  0  0  0
    2.2441   -3.8260    5.0342 H   0  0  0  0  0  0  0  0  0  0  0  0
    0.9603   -4.2703    6.1202 H   0  0  0  0  0  0  0  0  0  0  0  0
    3.4858   -5.8180    5.4914 H   0  0  0  0  0  0  0  0  0  0  0  0
    2.9646   -5.2314    7.0157 H   0  0  0  0  0  0  0  0  0  0  0  0
    2.6541   -7.8244    6.3843 H   0  0  0  0  0  0  0  0  0  0  0  0
    1.5991   -6.9701    7.4578 H   0  0  0  0  0  0  0  0  0  0  0  0
   -0.0225   -7.8282    6.3408 H   0  0  0  0  0  0  0  0  0  0  0  0
    1.0508   -9.4680    4.9846 H   0  0  0  0  0  0  0  0  0  0  0  0
   -1.2069   -9.0456    4.8594 H   0  0  0  0  0  0  0  0  0  0  0  0
  1  2  1  0
  1 11  2  3
  1 26  1  0
  2  3  1  0
  2 27  1  0
  2 28  1  0
  3  8  1  0
  3 10  1  0
  3  4  1  0
  4  5  1  0
  4 29  1  0
  4 30  1  0
  5  6  1  0
  5 31  1  0
  5 32  1  0
  6  7  1  0
  6  9  1  0
  7  8  1  0
  7 33  1  0
  7 34  1  0
  8 35  1  0
  8 36  1  0
  9 10  1  0
  9 37  1  0
  9 38  1  0
 10 39  1  0
 10 40  1  0
 11 20  1  0
 11 12  1  0
 12 13  1  0
 12 41  1  0
 12 42  1  0
 13 25  1  0
 13 14  1  0
 13 43  1  6
 14 15  1  0
 14 44  1  0
 14 45  1  0
 15 16  1  0
 15 46  1  0
 15 47  1  0
 16 17  1  0
 16 48  1  0
 16 49  1  0
 17 25  1  0
 17 18  1  0
 17 62  1  1
 18 19  1  0
 18 50  1  0
 18 51  1  0
 19 24  1  0
 19 20  1  0
 19 52  1  1
 20 21  1  0
 20 53  1  6
 21 22  1  0
 21 54  1  0
 21 55  1  0
 22 23  1  0
 22 56  1  0
 22 57  1  0
 23 24  1  0
 23 58  1  0
 23 59  1  0
 24 25  1  0
 24 60  1  1
 25 61  1  1
M  CHG  2   3   1  17   1
M  END
>  <i_m_ct_stereo_status>  (79) 
1

>  <s_m_source_file>  (79) 
/var/tmp/pbs.5076255.sched01/tmpikn618da/06v91y69d.sdf

>  <i_m_source_file_index>  (79) 
36

>  <i_lp_mmshare_version>  (79) 
48012

>  <i_f3d_flags>  (79) 
0

>  <s_epik_input>  (79) 
W0NIMl0xW0NIMl1OKFtDSDJdW0NIMl0yKVtDSDJdW0NIMl1bTitdMTJbQ0gyXS9bQ0hdPUMoXFtDSDJdMylbQ0hdKFtDSDJdW0NIMl1bQ0gyXVtDQEBIXTQ1KVtDQEhdNFtDSDJdTihbQ0BIXTVbQ0BASF0zNilbQ0gyXVtDSDJdW0NIMl02

>  <s_epik_cmdline>  (79) 
J2VwaWtfcHl0aG9uJywgJy1waHQnLCAnMi4wJywgJy1waCcsICc3LjAnLCAnLXRuJywgJzgnLCAnLW1hJywgJzIwMCcsICctaW1hZScsICc8aW5maWxlLm1hZT4nLCAnLW9tYWUnLCAnPG91dGZpbGUubWFlPic=

>  <r_epik_Ionization_Penalty>  (79) 
0.000622895

>  <r_epik_Ionization_Penalty_Charging>  (79) 
0.000419695

>  <r_epik_Ionization_Penalty_Neutral>  (79) 
0.0002032

>  <r_epik_State_Penalty>  (79) 
0.000258058

>  <r_epik_Charging_Adjusted_Penalty>  (79) 
0.000677753

>  <i_epik_Tot_Q>  (79) 
2

>  <i_epik_Tot_abs_Q>  (79) 
2

>  <s_lp_Force_Field>  (79) 
OPLS3e

>  <r_lp_Energy>  (79) 
96.9371

>  <b_lp_Chiralities_Consistent>  (79) 
1

>  <s_lp_Variant>  (79) 
22:0-1

>  <s_i_glide_gridfile>  (79) 
pfpi4k_grid

>  <i_i_glide_lignum>  (79) 
36

>  <i_i_glide_rotatable_bonds>  (79) 
2

>  <r_i_docking_score>  (79) 
-3.41507

>  <r_i_glide_ligand_efficiency>  (79) 
-0.136603

>  <r_i_glide_ligand_efficiency_sa>  (79) 
-0.39943

>  <r_i_glide_ligand_efficiency_ln>  (79) 
-0.809475

>  <r_i_glide_gscore>  (79) 
-3.41507

>  <r_i_glide_lipo>  (79) 
-0.486121

>  <r_i_glide_hbond>  (79) 
-0.0605741

>  <r_i_glide_metal>  (79) 
-0

>  <r_i_glide_rewards>  (79) 
-1.06671

>  <r_i_glide_evdw>  (79) 
-18.9211

>  <r_i_glide_ecoul>  (79) 
-6.2525

>  <r_i_glide_erotb>  (79) 
0.160781

>  <r_i_glide_esite>  (79) 
-0.0785213

>  <r_i_glide_emodel>  (79) 
-33.8874

>  <r_i_glide_energy>  (79) 
-25.1736

>  <r_i_glide_einternal>  (79) 
0.310844

>  <r_i_glide_intrahb_reward>  (79) 
-0

>  <i_i_glide_confnum>  (79) 
2

>  <i_i_glide_posenum>  (79) 
38

>  <r_i_glide_eff_state_penalty>  (79) 
0

>  <ligand_id>  (79) 
22

>  <original_smiles>  (79) 
C(C[N+]12CCN(CC1)CC2)=C1CC2CCCN3CC4C1CCCC4C23

>  <smiles>  (79) 
[H]C(=C1C([H])([H])C2([H])C([H])([H])C([H])([H])C([H])([H])[N+]3([H])C([H])([H])C4([H])C1([H])C([H])([H])C([H])([H])C([H])([H])C4([H])C23[H])C([H])([H])[N+]12C([H])([H])C([H])([H])N(C([H])([H])C1([H])[H])C([H])([H])C2([H])[H]

$$$$
22:0:2
     RDKit          3D

 62 67  0  0  1  0  0  0  0  0999 V2000
    3.2544   -5.4878    2.5035 C   0  0  0  0  0  0  0  0  0  0  0  0
    2.7464   -4.4012    1.5523 C   0  0  0  0  0  0  0  0  0  0  0  0
    3.8229   -3.6721    0.8043 N   0  0  0  0  0  0  0  0  0  0  0  0
    4.6456   -4.5800   -0.0414 C   0  0  0  0  0  0  0  0  0  0  0  0
    5.6707   -3.7542   -0.8605 C   0  0  0  0  0  0  0  0  0  0  0  0
    5.5867   -2.3251   -0.5503 N   0  0  0  0  0  0  0  0  0  0  0  0
    4.2346   -1.8760   -0.8818 C   0  0  0  0  0  0  0  0  0  0  0  0
    3.1731   -2.6853   -0.1027 C   0  0  0  0  0  0  0  0  0  0  0  0
    5.7809   -2.1429    0.8899 C   0  0  0  0  0  0  0  0  0  0  0  0
    4.7300   -2.9217    1.7083 C   0  0  0  0  0  0  0  0  0  0  0  0
    2.8979   -6.7870    2.5842 C   0  0  0  0  0  0  0  0  0  0  0  0
    1.8409   -7.4319    1.6480 C   0  0  0  0  0  0  0  0  0  0  0  0
    0.6651   -7.9025    2.4629 C   0  0  1  0  0  0  0  0  0  0  0  0
   -0.7729   -7.7429    1.9600 C   0  0  0  0  0  0  0  0  0  0  0  0
   -1.7168   -8.3112    3.0513 C   0  0  0  0  0  0  0  0  0  0  0  0
   -1.0774   -8.3441    4.4730 C   0  0  0  0  0  0  0  0  0  0  0  0
    0.2582   -9.0094    4.4889 N   0  0  2  0  0  0  0  0  0  0  0  0
    1.3755   -8.3198    5.2080 C   0  0  0  0  0  0  0  0  0  0  0  0
    2.6923   -8.7131    4.4682 C   0  0  2  0  0  0  0  0  0  0  0  0
    3.5558   -7.6626    3.6894 C   0  0  1  0  0  0  0  0  0  0  0  0
    4.7887   -8.3945    3.1213 C   0  0  0  0  0  0  0  0  0  0  0  0
    4.4025   -9.3863    2.0222 C   0  0  0  0  0  0  0  0  0  0  0  0
    3.2046  -10.2815    2.4072 C   0  0  0  0  0  0  0  0  0  0  0  0
    2.2178   -9.7719    3.4962 C   0  0  2  0  0  0  0  0  0  0  0  0
    0.8160   -9.2796    3.1585 C   0  0  2  0  0  0  0  0  0  0  0  0
    3.9849   -5.1538    3.2240 H   0  0  0  0  0  0  0  0  0  0  0  0
    2.0660   -4.7705    0.7855 H   0  0  0  0  0  0  0  0  0  0  0  0
    2.1477   -3.7144    2.1565 H   0  0  0  0  0  0  0  0  0  0  0  0
    5.1882   -5.3048    0.5655 H   0  0  0  0  0  0  0  0  0  0  0  0
    4.0127   -5.1526   -0.7193 H   0  0  0  0  0  0  0  0  0  0  0  0
    6.6815   -4.0862   -0.6489 H   0  0  0  0  0  0  0  0  0  0  0  0
    5.4968   -3.8809   -1.9251 H   0  0  0  0  0  0  0  0  0  0  0  0
    4.1509   -0.8177   -0.6468 H   0  0  0  0  0  0  0  0  0  0  0  0
    4.0852   -1.9867   -1.9530 H   0  0  0  0  0  0  0  0  0  0  0  0
    2.5119   -3.1772   -0.8171 H   0  0  0  0  0  0  0  0  0  0  0  0
    2.5567   -1.9956    0.4708 H   0  0  0  0  0  0  0  0  0  0  0  0
    6.7784   -2.4860    1.1473 H   0  0  0  0  0  0  0  0  0  0  0  0
    5.7210   -1.0848    1.1197 H   0  0  0  0  0  0  0  0  0  0  0  0
    4.1502   -2.2389    2.3280 H   0  0  0  0  0  0  0  0  0  0  0  0
    5.2807   -3.5776    2.3777 H   0  0  0  0  0  0  0  0  0  0  0  0
    1.4078   -6.7178    0.9572 H   0  0  0  0  0  0  0  0  0  0  0  0
    2.2456   -8.2034    0.9962 H   0  0  0  0  0  0  0  0  0  0  0  0
    0.6540   -7.0802    3.1821 H   0  0  0  0  0  0  0  0  0  0  0  0
   -0.9711   -6.6774    1.7966 H   0  0  0  0  0  0  0  0  0  0  0  0
   -0.9424   -8.2412    0.9981 H   0  0  0  0  0  0  0  0  0  0  0  0
   -2.6494   -7.7505    3.0591 H   0  0  0  0  0  0  0  0  0  0  0  0
   -1.9885   -9.3283    2.7602 H   0  0  0  0  0  0  0  0  0  0  0  0
   -1.0117   -7.3280    4.8520 H   0  0  0  0  0  0  0  0  0  0  0  0
   -1.7345   -8.8635    5.1469 H   0  0  0  0  0  0  0  0  0  0  0  0
    1.2726   -7.2353    5.2344 H   0  0  0  0  0  0  0  0  0  0  0  0
    1.4063   -8.6220    6.2470 H   0  0  0  0  0  0  0  0  0  0  0  0
    3.3523   -9.1874    5.2011 H   0  0  0  0  0  0  0  0  0  0  0  0
    3.9373   -6.9760    4.4436 H   0  0  0  0  0  0  0  0  0  0  0  0
    5.5140   -7.6822    2.7307 H   0  0  0  0  0  0  0  0  0  0  0  0
    5.3003   -8.9323    3.9221 H   0  0  0  0  0  0  0  0  0  0  0  0
    4.2167   -8.8498    1.0923 H   0  0  0  0  0  0  0  0  0  0  0  0
    5.2546  -10.0213    1.7851 H   0  0  0  0  0  0  0  0  0  0  0  0
    2.6419  -10.5069    1.5048 H   0  0  0  0  0  0  0  0  0  0  0  0
    3.6213  -11.2384    2.7468 H   0  0  0  0  0  0  0  0  0  0  0  0
    2.0496  -10.6629    4.0936 H   0  0  0  0  0  0  0  0  0  0  0  0
    0.2696  -10.0636    2.6361 H   0  0  0  0  0  0  0  0  0  0  0  0
    0.1153   -9.9178    4.9277 H   0  0  0  0  0  0  0  0  0  0  0  0
  1  2  1  0
  1 11  2  3
  1 26  1  0
  2  3  1  0
  2 27  1  0
  2 28  1  0
  3  8  1  0
  3 10  1  0
  3  4  1  0
  4  5  1  0
  4 29  1  0
  4 30  1  0
  5  6  1  0
  5 31  1  0
  5 32  1  0
  6  7  1  0
  6  9  1  0
  7  8  1  0
  7 33  1  0
  7 34  1  0
  8 35  1  0
  8 36  1  0
  9 10  1  0
  9 37  1  0
  9 38  1  0
 10 39  1  0
 10 40  1  0
 11 20  1  0
 11 12  1  0
 12 13  1  0
 12 41  1  0
 12 42  1  0
 13 25  1  0
 13 14  1  0
 13 43  1  1
 14 15  1  0
 14 44  1  0
 14 45  1  0
 15 16  1  0
 15 46  1  0
 15 47  1  0
 16 17  1  0
 16 48  1  0
 16 49  1  0
 17 25  1  0
 17 18  1  0
 17 62  1  1
 18 19  1  0
 18 50  1  0
 18 51  1  0
 19 24  1  0
 19 20  1  0
 19 52  1  1
 20 21  1  0
 20 53  1  1
 21 22  1  0
 21 54  1  0
 21 55  1  0
 22 23  1  0
 22 56  1  0
 22 57  1  0
 23 24  1  0
 23 58  1  0
 23 59  1  0
 24 25  1  0
 24 60  1  1
 25 61  1  6
M  CHG  2   3   1  17   1
M  END
>  <i_m_ct_stereo_status>  (80) 
1

>  <s_m_source_file>  (80) 
/var/tmp/pbs.5076255.sched01/tmpikn618da/06v91y69d.sdf

>  <i_m_source_file_index>  (80) 
36

>  <i_lp_mmshare_version>  (80) 
48012

>  <i_f3d_flags>  (80) 
0

>  <s_epik_input>  (80) 
W0NIMl0xW0NIMl1OKFtDSDJdW0NIMl0yKVtDSDJdW0NIMl1bTitdMTJbQ0gyXS9bQ0hdPUMoXFtDSDJdMylbQ0hdKFtDSDJdW0NIMl1bQ0gyXVtDQEBIXTQ1KVtDQEhdNFtDSDJdTihbQ0BIXTVbQ0BASF0zNilbQ0gyXVtDSDJdW0NIMl02

>  <s_epik_cmdline>  (80) 
J2VwaWtfcHl0aG9uJywgJy1waHQnLCAnMi4wJywgJy1waCcsICc3LjAnLCAnLXRuJywgJzgnLCAnLW1hJywgJzIwMCcsICctaW1hZScsICc8aW5maWxlLm1hZT4nLCAnLW9tYWUnLCAnPG91dGZpbGUubWFlPic=

>  <r_epik_Ionization_Penalty>  (80) 
0.000622895

>  <r_epik_Ionization_Penalty_Charging>  (80) 
0.000419695

>  <r_epik_Ionization_Penalty_Neutral>  (80) 
0.0002032

>  <r_epik_State_Penalty>  (80) 
0.000258058

>  <r_epik_Charging_Adjusted_Penalty>  (80) 
0.000677753

>  <i_epik_Tot_Q>  (80) 
2

>  <i_epik_Tot_abs_Q>  (80) 
2

>  <s_lp_Force_Field>  (80) 
OPLS3e

>  <r_lp_Energy>  (80) 
96.9371

>  <b_lp_Chiralities_Consistent>  (80) 
1

>  <s_lp_Variant>  (80) 
22:0-1

>  <s_i_glide_gridfile>  (80) 
pfpi4k_grid

>  <i_i_glide_lignum>  (80) 
36

>  <i_i_glide_rotatable_bonds>  (80) 
2

>  <r_i_docking_score>  (80) 
-3.07061

>  <r_i_glide_ligand_efficiency>  (80) 
-0.122824

>  <r_i_glide_ligand_efficiency_sa>  (80) 
-0.359141

>  <r_i_glide_ligand_efficiency_ln>  (80) 
-0.727827

>  <r_i_glide_gscore>  (80) 
-3.07061

>  <r_i_glide_lipo>  (80) 
-0.182656

>  <r_i_glide_hbond>  (80) 
0

>  <r_i_glide_metal>  (80) 
-0

>  <r_i_glide_rewards>  (80) 
-1.06671

>  <r_i_glide_evdw>  (80) 
-20.4957

>  <r_i_glide_ecoul>  (80) 
-6.05251

>  <r_i_glide_erotb>  (80) 
0.160781

>  <r_i_glide_esite>  (80) 
-0.0493659

>  <r_i_glide_emodel>  (80) 
-34.2957

>  <r_i_glide_energy>  (80) 
-26.5482

>  <r_i_glide_einternal>  (80) 
0.305537

>  <r_i_glide_intrahb_reward>  (80) 
-0

>  <i_i_glide_confnum>  (80) 
1

>  <i_i_glide_posenum>  (80) 
20

>  <r_i_glide_eff_state_penalty>  (80) 
0

>  <ligand_id>  (80) 
22

>  <original_smiles>  (80) 
C(C[N+]12CCN(CC1)CC2)=C1CC2CCCN3CC4C1CCCC4C23

>  <smiles>  (80) 
[H]C(=C1C([H])([H])C2([H])C([H])([H])C([H])([H])C([H])([H])[N+]3([H])C([H])([H])C4([H])C1([H])C([H])([H])C([H])([H])C([H])([H])C4([H])C23[H])C([H])([H])[N+]12C([H])([H])C([H])([H])N(C([H])([H])C1([H])[H])C([H])([H])C2([H])[H]

$$$$
23:0:0
     RDKit          3D

 69 73  0  0  1  0  0  0  0  0999 V2000
    5.4093   -3.3920   -3.5165 C   0  0  0  0  0  0  0  0  0  0  0  0
    4.6939   -2.3922   -2.9737 C   0  0  0  0  0  0  0  0  0  0  0  0
    3.3764   -1.9590   -3.5960 C   0  0  0  0  0  0  0  0  0  0  0  0
    5.1373   -1.6020   -1.7341 C   0  0  2  0  0  0  0  0  0  0  0  0
    6.4971   -1.8561   -1.4210 O   0  0  0  0  0  0  0  0  0  0  0  0
    4.2722   -1.8668   -0.4757 C   0  0  2  0  0  0  0  0  0  0  0  0
    4.3677   -0.7864    0.6333 C   0  0  0  0  0  0  0  0  0  0  0  0
    4.1322   -1.5229    1.9879 C   0  0  1  0  0  0  0  0  0  0  0  0
    2.6304   -1.6352    2.2850 C   0  0  0  0  0  0  0  0  0  0  0  0
    4.9354   -2.8161    1.7295 C   0  0  2  0  0  0  0  0  0  0  0  0
    4.6630   -3.1099    0.2952 C   0  0  0  0  0  0  0  0  0  0  0  0
    4.7070   -4.4113   -0.0127 C   0  0  0  0  0  0  0  0  0  0  0  0
    5.0894   -5.2277    1.2220 C   0  0  1  0  0  0  0  0  0  0  0  0
    6.6347   -5.3304    1.2097 C   0  0  0  0  0  0  0  0  0  0  0  0
    4.6500   -4.2112    2.2888 C   0  0  0  0  0  0  0  0  0  0  0  0
    3.9114   -4.5371    3.3601 C   0  0  0  0  0  0  0  0  0  0  0  0
    3.4372   -5.9618    3.6039 C   0  0  0  0  0  0  0  0  0  0  0  0
    3.1417   -6.7365    2.2745 C   0  0  2  0  0  0  0  0  0  0  0  0
    1.8411   -6.2214    1.6176 C   0  0  0  0  0  0  0  0  0  0  0  0
    0.5832   -6.6434    2.4146 C   0  0  0  0  0  0  0  0  0  0  0  0
    0.4952   -8.1666    2.6544 C   0  0  0  0  0  0  0  0  0  0  0  0
    1.7629   -8.7831    3.2997 C   0  0  0  0  0  0  0  0  0  0  0  0
    1.8216   -8.4471    4.8110 C   0  0  0  0  0  0  0  0  0  0  0  0
    1.6513  -10.3202    3.1814 C   0  0  0  0  0  0  0  0  0  0  0  0
    2.9779   -8.2688    2.4607 C   0  0  2  0  0  0  0  0  0  0  0  0
    4.3849   -8.8193    2.6929 C   0  0  0  0  0  0  0  0  0  0  0  0
    5.3161   -7.7468    2.0874 C   0  0  0  0  0  0  0  0  0  0  0  0
    4.4327   -6.6560    1.3971 C   0  0  2  0  0  0  0  0  0  0  0  0
    4.2444   -7.1638    0.0906 O   0  0  0  0  0  0  0  0  0  0  0  0
    5.0528   -3.9198   -4.3903 H   0  0  0  0  0  0  0  0  0  0  0  0
    6.3631   -3.7042   -3.1105 H   0  0  0  0  0  0  0  0  0  0  0  0
    3.3696   -0.8885   -3.8039 H   0  0  0  0  0  0  0  0  0  0  0  0
    2.5394   -2.1823   -2.9379 H   0  0  0  0  0  0  0  0  0  0  0  0
    3.2002   -2.4755   -4.5372 H   0  0  0  0  0  0  0  0  0  0  0  0
    5.0592   -0.5447   -2.0036 H   0  0  0  0  0  0  0  0  0  0  0  0
    6.5656   -2.7685   -1.1758 H   0  0  0  0  0  0  0  0  0  0  0  0
    3.2216   -1.9472   -0.7485 H   0  0  0  0  0  0  0  0  0  0  0  0
    5.3811   -0.3819    0.6360 H   0  0  0  0  0  0  0  0  0  0  0  0
    3.6956    0.0560    0.4759 H   0  0  0  0  0  0  0  0  0  0  0  0
    4.5920   -0.9641    2.8000 H   0  0  0  0  0  0  0  0  0  0  0  0
    2.0971   -2.2172    1.5372 H   0  0  0  0  0  0  0  0  0  0  0  0
    2.1761   -0.6457    2.2954 H   0  0  0  0  0  0  0  0  0  0  0  0
    2.4323   -2.0657    3.2633 H   0  0  0  0  0  0  0  0  0  0  0  0
    6.0031   -2.5968    1.8163 H   0  0  0  0  0  0  0  0  0  0  0  0
    4.5097   -4.8301   -0.9852 H   0  0  0  0  0  0  0  0  0  0  0  0
    7.0920   -4.3784    0.9423 H   0  0  0  0  0  0  0  0  0  0  0  0
    6.9792   -6.0621    0.4756 H   0  0  0  0  0  0  0  0  0  0  0  0
    7.0365   -5.5980    2.1892 H   0  0  0  0  0  0  0  0  0  0  0  0
    3.5572   -3.7920    4.0596 H   0  0  0  0  0  0  0  0  0  0  0  0
    4.1934   -6.4704    4.2039 H   0  0  0  0  0  0  0  0  0  0  0  0
    2.5574   -5.8915    4.2389 H   0  0  0  0  0  0  0  0  0  0  0  0
    1.8743   -5.1368    1.5090 H   0  0  0  0  0  0  0  0  0  0  0  0
    1.7487   -6.6317    0.6124 H   0  0  0  0  0  0  0  0  0  0  0  0
    0.5446   -6.1147    3.3672 H   0  0  0  0  0  0  0  0  0  0  0  0
   -0.3024   -6.3291    1.8635 H   0  0  0  0  0  0  0  0  0  0  0  0
   -0.3860   -8.3925    3.2548 H   0  0  0  0  0  0  0  0  0  0  0  0
    0.3172   -8.6415    1.6883 H   0  0  0  0  0  0  0  0  0  0  0  0
    2.8437   -8.4446    5.1876 H   0  0  0  0  0  0  0  0  0  0  0  0
    1.2611   -9.1769    5.4006 H   0  0  0  0  0  0  0  0  0  0  0  0
    1.3701   -7.4817    5.0358 H   0  0  0  0  0  0  0  0  0  0  0  0
    2.5007  -10.8229    3.6441 H   0  0  0  0  0  0  0  0  0  0  0  0
    1.6047  -10.6352    2.1384 H   0  0  0  0  0  0  0  0  0  0  0  0
    0.7463  -10.6921    3.6685 H   0  0  0  0  0  0  0  0  0  0  0  0
    2.7455   -8.6523    1.4668 H   0  0  0  0  0  0  0  0  0  0  0  0
    4.6030   -8.9756    3.7505 H   0  0  0  0  0  0  0  0  0  0  0  0
    4.5064   -9.7801    2.1879 H   0  0  0  0  0  0  0  0  0  0  0  0
    5.8710   -7.3170    2.9172 H   0  0  0  0  0  0  0  0  0  0  0  0
    6.0540   -8.1790    1.4108 H   0  0  0  0  0  0  0  0  0  0  0  0
    3.7834   -6.5148   -0.4179 H   0  0  0  0  0  0  0  0  0  0  0  0
  1  2  2  0
  1 30  1  0
  1 31  1  0
  2  3  1  0
  2  4  1  0
  3 32  1  0
  3 33  1  0
  3 34  1  0
  4  5  1  0
  4  6  1  0
  4 35  1  6
  5 36  1  0
  6 11  1  0
  6  7  1  0
  6 37  1  6
  7  8  1  0
  7 38  1  0
  7 39  1  0
  8  9  1  0
  8 10  1  0
  8 40  1  1
  9 41  1  0
  9 42  1  0
  9 43  1  0
 10 15  1  0
 10 11  1  0
 10 44  1  6
 11 12  2  0
 12 13  1  0
 12 45  1  0
 13 28  1  0
 13 14  1  6
 13 15  1  0
 14 46  1  0
 14 47  1  0
 14 48  1  0
 15 16  2  0
 16 17  1  0
 16 49  1  0
 18 17  1  1
 17 50  1  0
 17 51  1  0
 18 25  1  0
 18 28  1  0
 18 19  1  0
 19 20  1  0
 19 52  1  0
 19 53  1  0
 20 21  1  0
 20 54  1  0
 20 55  1  0
 21 22  1  0
 21 56  1  0
 21 57  1  0
 22 23  1  0
 22 24  1  0
 22 25  1  0
 23 58  1  0
 23 59  1  0
 23 60  1  0
 24 61  1  0
 24 62  1  0
 24 63  1  0
 25 26  1  0
 25 64  1  6
 26 27  1  0
 26 65  1  0
 26 66  1  0
 27 28  1  0
 27 67  1  0
 27 68  1  0
 28 29  1  6
 29 69  1  0
M  END
>  <i_m_ct_stereo_status>  (81) 
1

>  <s_m_source_file>  (81) 
/var/tmp/pbs.5076255.sched01/tmpikn618da/06v91y69d.sdf

>  <i_m_source_file_index>  (81) 
38

>  <i_lp_mmshare_version>  (81) 
48012

>  <i_f3d_flags>  (81) 
0

>  <s_epik_input>  (81) 
W0NIMl09QyhbQ0gzXSlbQ0BIXShbT0hdKVtDQEhdKFtDSDJdW0NASF0xW0NIM10pQyg9W0NIXTIpW0NAQEhdMUMoPVtDSF1bQ0gyXTMpW0NAQF0yKFtDSDNdKVtDQEBdNChbT0hdKVtDSDJdW0NIMl1bQ0BIXShbQ0BAXTM0NSlDKFtDSDNdKShbQ0gzXSlbQ0gyXVtDSDJdW0NIMl01

>  <s_epik_cmdline>  (81) 
J2VwaWtfcHl0aG9uJywgJy1waHQnLCAnMi4wJywgJy1waCcsICc3LjAnLCAnLXRuJywgJzgnLCAnLW1hJywgJzIwMCcsICctaW1hZScsICc8aW5maWxlLm1hZT4nLCAnLW9tYWUnLCAnPG91dGZpbGUubWFlPic=

>  <r_lp_tautomer_probability>  (81) 
1

>  <r_epik_Ionization_Penalty>  (81) 
1.51315e-06

>  <r_epik_Ionization_Penalty_Charging>  (81) 
0

>  <r_epik_Ionization_Penalty_Neutral>  (81) 
1.51315e-06

>  <r_epik_State_Penalty>  (81) 
-0

>  <r_epik_Charging_Adjusted_Penalty>  (81) 
0

>  <i_epik_Tot_Q>  (81) 
0

>  <i_epik_Tot_abs_Q>  (81) 
0

>  <s_lp_Force_Field>  (81) 
OPLS3e

>  <r_lp_Energy>  (81) 
58.0676

>  <b_lp_Chiralities_Consistent>  (81) 
1

>  <s_lp_Variant>  (81) 
23:0-1

>  <s_i_glide_gridfile>  (81) 
pfpi4k_grid

>  <i_i_glide_lignum>  (81) 
38

>  <i_i_glide_rotatable_bonds>  (81) 
4

>  <r_i_docking_score>  (81) 
-4.15438

>  <r_i_glide_ligand_efficiency>  (81) 
-0.143254

>  <r_i_glide_ligand_efficiency_sa>  (81) 
-0.440123

>  <r_i_glide_ligand_efficiency_ln>  (81) 
-0.951247

>  <r_i_glide_gscore>  (81) 
-4.15438

>  <r_i_glide_lipo>  (81) 
-1.05891

>  <r_i_glide_hbond>  (81) 
-0.221278

>  <r_i_glide_metal>  (81) 
-0

>  <r_i_glide_rewards>  (81) 
-0.704964

>  <r_i_glide_evdw>  (81) 
-31.6487

>  <r_i_glide_ecoul>  (81) 
-5.57051

>  <r_i_glide_erotb>  (81) 
0.248786

>  <r_i_glide_esite>  (81) 
0

>  <r_i_glide_emodel>  (81) 
-44.8707

>  <r_i_glide_energy>  (81) 
-37.2192

>  <r_i_glide_einternal>  (81) 
3.38764

>  <r_i_glide_intrahb_reward>  (81) 
-0

>  <i_i_glide_confnum>  (81) 
5

>  <i_i_glide_posenum>  (81) 
1

>  <r_i_glide_eff_state_penalty>  (81) 
0

>  <ligand_id>  (81) 
23

>  <original_smiles>  (81) 
C=C(C)C(O)C1CC(C)C2C1=CC1(C)C2=CCC23CCCC(C)(C)C2CCC13O

>  <smiles>  (81) 
[H]OC([H])(C(=C([H])[H])C([H])([H])[H])C1([H])C2=C([H])C3(C([H])([H])[H])C(=C([H])C([H])([H])C45C([H])([H])C([H])([H])C([H])([H])C(C([H])([H])[H])(C([H])([H])[H])C4([H])C([H])([H])C([H])([H])C35O[H])C2([H])C([H])(C([H])([H])[H])C1([H])[H]

$$$$
23:0:1
     RDKit          3D

 69 73  0  0  1  0  0  0  0  0999 V2000
    3.8118   -1.1794   -3.9305 C   0  0  0  0  0  0  0  0  0  0  0  0
    4.4447   -1.9543   -3.0409 C   0  0  0  0  0  0  0  0  0  0  0  0
    4.5822   -3.4517   -3.2918 C   0  0  0  0  0  0  0  0  0  0  0  0
    5.0188   -1.4135   -1.7239 C   0  0  2  0  0  0  0  0  0  0  0  0
    6.3487   -1.8606   -1.5288 O   0  0  0  0  0  0  0  0  0  0  0  0
    4.1794   -1.7463   -0.4501 C   0  0  2  0  0  0  0  0  0  0  0  0
    4.2216   -0.6644    0.6595 C   0  0  0  0  0  0  0  0  0  0  0  0
    4.0283   -1.3963    2.0195 C   0  0  1  0  0  0  0  0  0  0  0  0
    2.5263   -1.5761    2.3212 C   0  0  0  0  0  0  0  0  0  0  0  0
    4.8904   -2.6606    1.7747 C   0  0  2  0  0  0  0  0  0  0  0  0
    4.6261   -2.9721    0.3278 C   0  0  0  0  0  0  0  0  0  0  0  0
    4.7368   -4.2874    0.0403 C   0  0  0  0  0  0  0  0  0  0  0  0
    5.1601   -5.0613    1.2810 C   0  0  1  0  0  0  0  0  0  0  0  0
    6.7048   -5.0908    1.2398 C   0  0  0  0  0  0  0  0  0  0  0  0
    4.6736   -4.0580    2.3355 C   0  0  0  0  0  0  0  0  0  0  0  0
    3.9316   -4.4212    3.4077 C   0  0  0  0  0  0  0  0  0  0  0  0
    3.5272   -5.8694    3.6139 C   0  0  0  0  0  0  0  0  0  0  0  0
    3.2619   -6.6495    2.2829 C   0  0  2  0  0  0  0  0  0  0  0  0
    1.9403   -6.1875    1.6204 C   0  0  0  0  0  0  0  0  0  0  0  0
    0.7027   -6.6653    2.4152 C   0  0  0  0  0  0  0  0  0  0  0  0
    0.6828   -8.1953    2.6437 C   0  0  0  0  0  0  0  0  0  0  0  0
    1.9805   -8.7655    3.2839 C   0  0  0  0  0  0  0  0  0  0  0  0
    2.0263   -8.4402    4.7934 C   0  0  0  0  0  0  0  0  0  0  0  0
    1.9369  -10.3034    3.1486 C   0  0  0  0  0  0  0  0  0  0  0  0
    3.1664   -8.1912    2.4488 C   0  0  2  0  0  0  0  0  0  0  0  0
    4.5958   -8.6864    2.6723 C   0  0  0  0  0  0  0  0  0  0  0  0
    5.4800   -7.5736    2.0768 C   0  0  0  0  0  0  0  0  0  0  0  0
    4.5514   -6.5166    1.4147 C   0  0  2  0  0  0  0  0  0  0  0  0
    4.3747   -7.0405    0.1032 O   0  0  0  0  0  0  0  0  0  0  0  0
    3.4182   -1.6176   -4.8307 H   0  0  0  0  0  0  0  0  0  0  0  0
    3.6765   -0.1182   -3.7956 H   0  0  0  0  0  0  0  0  0  0  0  0
    4.0727   -3.9684   -2.4877 H   0  0  0  0  0  0  0  0  0  0  0  0
    5.6392   -3.7366   -3.3384 H   0  0  0  0  0  0  0  0  0  0  0  0
    4.1218   -3.7436   -4.2539 H   0  0  0  0  0  0  0  0  0  0  0  0
    5.0392   -0.3322   -1.8396 H   0  0  0  0  0  0  0  0  0  0  0  0
    6.3052   -2.7947   -1.3439 H   0  0  0  0  0  0  0  0  0  0  0  0
    3.1333   -1.8503   -0.7287 H   0  0  0  0  0  0  0  0  0  0  0  0
    5.2087   -0.2118    0.6647 H   0  0  0  0  0  0  0  0  0  0  0  0
    3.5214    0.1529    0.5034 H   0  0  0  0  0  0  0  0  0  0  0  0
    4.4522   -0.8130    2.8408 H   0  0  0  0  0  0  0  0  0  0  0  0
    2.0182   -2.1767    1.5661 H   0  0  0  0  0  0  0  0  0  0  0  0
    2.0250   -0.6047    2.3377 H   0  0  0  0  0  0  0  0  0  0  0  0
    2.3468   -2.0243    3.3001 H   0  0  0  0  0  0  0  0  0  0  0  0
    5.9491   -2.3737    1.8438 H   0  0  0  0  0  0  0  0  0  0  0  0
    4.5817   -4.7560   -0.9169 H   0  0  0  0  0  0  0  0  0  0  0  0
    7.1009   -4.1175    0.9617 H   0  0  0  0  0  0  0  0  0  0  0  0
    7.0565   -5.7904    0.4801 H   0  0  0  0  0  0  0  0  0  0  0  0
    7.1435   -5.3452    2.2003 H   0  0  0  0  0  0  0  0  0  0  0  0
    3.5195   -3.6981    4.1030 H   0  0  0  0  0  0  0  0  0  0  0  0
    4.3018   -6.3593    4.2014 H   0  0  0  0  0  0  0  0  0  0  0  0
    2.6465   -5.8560    4.2451 H   0  0  0  0  0  0  0  0  0  0  0  0
    1.9300   -5.1028    1.5198 H   0  0  0  0  0  0  0  0  0  0  0  0
    1.8637   -6.5965    0.6119 H   0  0  0  0  0  0  0  0  0  0  0  0
    0.6427   -6.1488    3.3720 H   0  0  0  0  0  0  0  0  0  0  0  0
   -0.1962   -6.3907    1.8674 H   0  0  0  0  0  0  0  0  0  0  0  0
   -0.1873   -8.4663    3.2448 H   0  0  0  0  0  0  0  0  0  0  0  0
    0.5254   -8.6705    1.6752 H   0  0  0  0  0  0  0  0  0  0  0  0
    3.0464   -8.3933    5.1669 H   0  0  0  0  0  0  0  0  0  0  0  0
    1.4999   -9.1967    5.3766 H   0  0  0  0  0  0  0  0  0  0  0  0
    1.5337   -7.5007    5.0248 H   0  0  0  0  0  0  0  0  0  0  0  0
    2.8070  -10.7711    3.6071 H   0  0  0  0  0  0  0  0  0  0  0  0
    1.9091  -10.6127    2.1043 H   0  0  0  0  0  0  0  0  0  0  0  0
    1.0512  -10.7203    3.6306 H   0  0  0  0  0  0  0  0  0  0  0  0
    2.9523   -8.5781    1.4538 H   0  0  0  0  0  0  0  0  0  0  0  0
    4.8260   -8.8387    3.7284 H   0  0  0  0  0  0  0  0  0  0  0  0
    4.7611   -9.6352    2.1569 H   0  0  0  0  0  0  0  0  0  0  0  0
    6.0165   -7.1236    2.9059 H   0  0  0  0  0  0  0  0  0  0  0  0
    6.2372   -7.9594    1.3887 H   0  0  0  0  0  0  0  0  0  0  0  0
    3.8393   -6.4349   -0.3969 H   0  0  0  0  0  0  0  0  0  0  0  0
  1  2  2  0
  1 30  1  0
  1 31  1  0
  2  3  1  0
  2  4  1  0
  3 32  1  0
  3 33  1  0
  3 34  1  0
  4  5  1  0
  4  6  1  0
  4 35  1  6
  5 36  1  0
  6 11  1  0
  6  7  1  0
  6 37  1  6
  7  8  1  0
  7 38  1  0
  7 39  1  0
  8  9  1  0
  8 10  1  0
  8 40  1  1
  9 41  1  0
  9 42  1  0
  9 43  1  0
 10 15  1  0
 10 11  1  0
 10 44  1  6
 11 12  2  0
 12 13  1  0
 12 45  1  0
 13 28  1  0
 13 14  1  6
 13 15  1  0
 14 46  1  0
 14 47  1  0
 14 48  1  0
 15 16  2  0
 16 17  1  0
 16 49  1  0
 18 17  1  1
 17 50  1  0
 17 51  1  0
 18 25  1  0
 18 28  1  0
 18 19  1  0
 19 20  1  0
 19 52  1  0
 19 53  1  0
 20 21  1  0
 20 54  1  0
 20 55  1  0
 21 22  1  0
 21 56  1  0
 21 57  1  0
 22 23  1  0
 22 24  1  0
 22 25  1  0
 23 58  1  0
 23 59  1  0
 23 60  1  0
 24 61  1  0
 24 62  1  0
 24 63  1  0
 25 26  1  0
 25 64  1  6
 26 27  1  0
 26 65  1  0
 26 66  1  0
 27 28  1  0
 27 67  1  0
 27 68  1  0
 28 29  1  6
 29 69  1  0
M  END
>  <i_m_ct_stereo_status>  (82) 
1

>  <s_m_source_file>  (82) 
/var/tmp/pbs.5076255.sched01/tmpikn618da/06v91y69d.sdf

>  <i_m_source_file_index>  (82) 
38

>  <i_lp_mmshare_version>  (82) 
48012

>  <i_f3d_flags>  (82) 
0

>  <s_epik_input>  (82) 
W0NIMl09QyhbQ0gzXSlbQ0BIXShbT0hdKVtDQEhdKFtDSDJdW0NASF0xW0NIM10pQyg9W0NIXTIpW0NAQEhdMUMoPVtDSF1bQ0gyXTMpW0NAQF0yKFtDSDNdKVtDQEBdNChbT0hdKVtDSDJdW0NIMl1bQ0BIXShbQ0BAXTM0NSlDKFtDSDNdKShbQ0gzXSlbQ0gyXVtDSDJdW0NIMl01

>  <s_epik_cmdline>  (82) 
J2VwaWtfcHl0aG9uJywgJy1waHQnLCAnMi4wJywgJy1waCcsICc3LjAnLCAnLXRuJywgJzgnLCAnLW1hJywgJzIwMCcsICctaW1hZScsICc8aW5maWxlLm1hZT4nLCAnLW9tYWUnLCAnPG91dGZpbGUubWFlPic=

>  <r_lp_tautomer_probability>  (82) 
1

>  <r_epik_Ionization_Penalty>  (82) 
1.51315e-06

>  <r_epik_Ionization_Penalty_Charging>  (82) 
0

>  <r_epik_Ionization_Penalty_Neutral>  (82) 
1.51315e-06

>  <r_epik_State_Penalty>  (82) 
-0

>  <r_epik_Charging_Adjusted_Penalty>  (82) 
0

>  <i_epik_Tot_Q>  (82) 
0

>  <i_epik_Tot_abs_Q>  (82) 
0

>  <s_lp_Force_Field>  (82) 
OPLS3e

>  <r_lp_Energy>  (82) 
58.0676

>  <b_lp_Chiralities_Consistent>  (82) 
1

>  <s_lp_Variant>  (82) 
23:0-1

>  <s_i_glide_gridfile>  (82) 
pfpi4k_grid

>  <i_i_glide_lignum>  (82) 
38

>  <i_i_glide_rotatable_bonds>  (82) 
4

>  <r_i_docking_score>  (82) 
-3.91858

>  <r_i_glide_ligand_efficiency>  (82) 
-0.135123

>  <r_i_glide_ligand_efficiency_sa>  (82) 
-0.415142

>  <r_i_glide_ligand_efficiency_ln>  (82) 
-0.897254

>  <r_i_glide_gscore>  (82) 
-3.91858

>  <r_i_glide_lipo>  (82) 
-0.852742

>  <r_i_glide_hbond>  (82) 
-0.193697

>  <r_i_glide_metal>  (82) 
-0

>  <r_i_glide_rewards>  (82) 
-0.704964

>  <r_i_glide_evdw>  (82) 
-32.4509

>  <r_i_glide_ecoul>  (82) 
-5.28943

>  <r_i_glide_erotb>  (82) 
0.248786

>  <r_i_glide_esite>  (82) 
0

>  <r_i_glide_emodel>  (82) 
-43.0071

>  <r_i_glide_energy>  (82) 
-37.7403

>  <r_i_glide_einternal>  (82) 
4.07564

>  <r_i_glide_intrahb_reward>  (82) 
-0

>  <i_i_glide_confnum>  (82) 
5

>  <i_i_glide_posenum>  (82) 
14

>  <r_i_glide_eff_state_penalty>  (82) 
0

>  <ligand_id>  (82) 
23

>  <original_smiles>  (82) 
C=C(C)C(O)C1CC(C)C2C1=CC1(C)C2=CCC23CCCC(C)(C)C2CCC13O

>  <smiles>  (82) 
[H]OC([H])(C(=C([H])[H])C([H])([H])[H])C1([H])C2=C([H])C3(C([H])([H])[H])C(=C([H])C([H])([H])C45C([H])([H])C([H])([H])C([H])([H])C(C([H])([H])[H])(C([H])([H])[H])C4([H])C([H])([H])C([H])([H])C35O[H])C2([H])C([H])(C([H])([H])[H])C1([H])[H]

$$$$
23:0:2
     RDKit          3D

 69 73  0  0  1  0  0  0  0  0999 V2000
    5.3835   -3.4656   -3.4880 C   0  0  0  0  0  0  0  0  0  0  0  0
    4.5153   -2.6306   -2.8881 C   0  0  0  0  0  0  0  0  0  0  0  0
    3.0869   -2.5177   -3.3935 C   0  0  0  0  0  0  0  0  0  0  0  0
    4.8880   -1.7347   -1.7014 C   0  0  2  0  0  0  0  0  0  0  0  0
    6.2687   -1.8564   -1.3836 O   0  0  0  0  0  0  0  0  0  0  0  0
    4.0615   -2.0038   -0.4163 C   0  0  2  0  0  0  0  0  0  0  0  0
    4.1177   -0.8866    0.6589 C   0  0  0  0  0  0  0  0  0  0  0  0
    3.9289   -1.5946    2.0334 C   0  0  1  0  0  0  0  0  0  0  0  0
    2.4320   -1.7590    2.3569 C   0  0  0  0  0  0  0  0  0  0  0  0
    4.7808   -2.8631    1.8020 C   0  0  2  0  0  0  0  0  0  0  0  0
    4.5108   -3.2090    0.3798 C   0  0  0  0  0  0  0  0  0  0  0  0
    4.5875   -4.5197    0.1141 C   0  0  0  0  0  0  0  0  0  0  0  0
    5.0205   -5.2814    1.3624 C   0  0  1  0  0  0  0  0  0  0  0  0
    6.5682   -5.3225    1.3289 C   0  0  0  0  0  0  0  0  0  0  0  0
    4.5583   -4.2520    2.4036 C   0  0  0  0  0  0  0  0  0  0  0  0
    3.8437   -4.5729    3.4967 C   0  0  0  0  0  0  0  0  0  0  0  0
    3.4286   -6.0069    3.7929 C   0  0  0  0  0  0  0  0  0  0  0  0
    3.1471   -6.8326    2.4932 C   0  0  2  0  0  0  0  0  0  0  0  0
    1.8187   -6.3858    1.8362 C   0  0  0  0  0  0  0  0  0  0  0  0
    0.5909   -6.8327    2.6581 C   0  0  0  0  0  0  0  0  0  0  0  0
    0.5671   -8.3512    2.9428 C   0  0  0  0  0  0  0  0  0  0  0  0
    1.8678   -8.9012    3.5889 C   0  0  0  0  0  0  0  0  0  0  0  0
    1.9313   -8.5192    5.0872 C   0  0  0  0  0  0  0  0  0  0  0  0
    1.8170  -10.4453    3.5106 C   0  0  0  0  0  0  0  0  0  0  0  0
    3.0487   -8.3655    2.7232 C   0  0  2  0  0  0  0  0  0  0  0  0
    4.4840   -8.8504    2.9522 C   0  0  0  0  0  0  0  0  0  0  0  0
    5.3641   -7.7576    2.3039 C   0  0  0  0  0  0  0  0  0  0  0  0
    4.4195   -6.7314    1.5952 C   0  0  2  0  0  0  0  0  0  0  0  0
    4.2149   -7.2995    0.3235 O   0  0  0  0  0  0  0  0  0  0  0  0
    5.0736   -4.0806   -4.3206 H   0  0  0  0  0  0  0  0  0  0  0  0
    6.4138   -3.5532   -3.1712 H   0  0  0  0  0  0  0  0  0  0  0  0
    2.8235   -1.4796   -3.5985 H   0  0  0  0  0  0  0  0  0  0  0  0
    2.3827   -2.9107   -2.6625 H   0  0  0  0  0  0  0  0  0  0  0  0
    2.9443   -3.0828   -4.3136 H   0  0  0  0  0  0  0  0  0  0  0  0
    4.7096   -0.7051   -2.0267 H   0  0  0  0  0  0  0  0  0  0  0  0
    6.4027   -2.7308   -1.0323 H   0  0  0  0  0  0  0  0  0  0  0  0
    3.0078   -2.1342   -0.6647 H   0  0  0  0  0  0  0  0  0  0  0  0
    5.1121   -0.4326    0.6399 H   0  0  0  0  0  0  0  0  0  0  0  0
    3.4013   -0.0858    0.4803 H   0  0  0  0  0  0  0  0  0  0  0  0
    4.3709   -0.9915    2.8245 H   0  0  0  0  0  0  0  0  0  0  0  0
    1.9149   -2.3829    1.6322 H   0  0  0  0  0  0  0  0  0  0  0  0
    1.9390   -0.7872    2.3422 H   0  0  0  0  0  0  0  0  0  0  0  0
    2.2638   -2.1656    3.3468 H   0  0  0  0  0  0  0  0  0  0  0  0
    5.8384   -2.5941    1.8747 H   0  0  0  0  0  0  0  0  0  0  0  0
    4.3774   -4.9822   -0.8377 H   0  0  0  0  0  0  0  0  0  0  0  0
    6.9845   -4.3583    1.0322 H   0  0  0  0  0  0  0  0  0  0  0  0
    6.9385   -6.0549    0.6107 H   0  0  0  0  0  0  0  0  0  0  0  0
    6.9932   -5.5423    2.3107 H   0  0  0  0  0  0  0  0  0  0  0  0
    3.4713   -3.8207    4.1745 H   0  0  0  0  0  0  0  0  0  0  0  0
    4.2162   -6.4645    4.3957 H   0  0  0  0  0  0  0  0  0  0  0  0
    2.5539   -5.9505    4.4328 H   0  0  0  0  0  0  0  0  0  0  0  0
    1.8117   -5.3052    1.6896 H   0  0  0  0  0  0  0  0  0  0  0  0
    1.7373   -6.8287    0.8440 H   0  0  0  0  0  0  0  0  0  0  0  0
    0.5401   -6.2806    3.5947 H   0  0  0  0  0  0  0  0  0  0  0  0
   -0.3156   -6.5732    2.1123 H   0  0  0  0  0  0  0  0  0  0  0  0
   -0.2951   -8.5969    3.5623 H   0  0  0  0  0  0  0  0  0  0  0  0
    0.3961   -8.8631    1.9966 H   0  0  0  0  0  0  0  0  0  0  0  0
    2.9577   -8.4649    5.4506 H   0  0  0  0  0  0  0  0  0  0  0  0
    1.4084   -9.2528    5.7055 H   0  0  0  0  0  0  0  0  0  0  0  0
    1.4453   -7.5654    5.2907 H   0  0  0  0  0  0  0  0  0  0  0  0
    2.6915  -10.8984    3.9799 H   0  0  0  0  0  0  0  0  0  0  0  0
    1.7716  -10.7962    2.4792 H   0  0  0  0  0  0  0  0  0  0  0  0
    0.9348  -10.8378    4.0228 H   0  0  0  0  0  0  0  0  0  0  0  0
    2.8177   -8.7859    1.7434 H   0  0  0  0  0  0  0  0  0  0  0  0
    4.7204   -8.9654    4.0093 H   0  0  0  0  0  0  0  0  0  0  0  0
    4.6359   -9.8186    2.4705 H   0  0  0  0  0  0  0  0  0  0  0  0
    5.9101   -7.2802    3.1120 H   0  0  0  0  0  0  0  0  0  0  0  0
    6.1122   -8.1820    1.6345 H   0  0  0  0  0  0  0  0  0  0  0  0
    5.0035   -7.1743   -0.1830 H   0  0  0  0  0  0  0  0  0  0  0  0
  1  2  2  0
  1 30  1  0
  1 31  1  0
  2  3  1  0
  2  4  1  0
  3 32  1  0
  3 33  1  0
  3 34  1  0
  4  5  1  0
  4  6  1  0
  4 35  1  6
  5 36  1  0
  6 11  1  0
  6  7  1  0
  6 37  1  6
  7  8  1  0
  7 38  1  0
  7 39  1  0
  8  9  1  0
  8 10  1  0
  8 40  1  1
  9 41  1  0
  9 42  1  0
  9 43  1  0
 10 15  1  0
 10 11  1  0
 10 44  1  6
 11 12  2  0
 12 13  1  0
 12 45  1  0
 13 28  1  0
 13 14  1  6
 13 15  1  0
 14 46  1  0
 14 47  1  0
 14 48  1  0
 15 16  2  0
 16 17  1  0
 16 49  1  0
 18 17  1  1
 17 50  1  0
 17 51  1  0
 18 25  1  0
 18 28  1  0
 18 19  1  0
 19 20  1  0
 19 52  1  0
 19 53  1  0
 20 21  1  0
 20 54  1  0
 20 55  1  0
 21 22  1  0
 21 56  1  0
 21 57  1  0
 22 23  1  0
 22 24  1  0
 22 25  1  0
 23 58  1  0
 23 59  1  0
 23 60  1  0
 24 61  1  0
 24 62  1  0
 24 63  1  0
 25 26  1  0
 25 64  1  6
 26 27  1  0
 26 65  1  0
 26 66  1  0
 27 28  1  0
 27 67  1  0
 27 68  1  0
 28 29  1  6
 29 69  1  0
M  END
>  <i_m_ct_stereo_status>  (83) 
1

>  <s_m_source_file>  (83) 
/var/tmp/pbs.5076255.sched01/tmpikn618da/06v91y69d.sdf

>  <i_m_source_file_index>  (83) 
38

>  <i_lp_mmshare_version>  (83) 
48012

>  <i_f3d_flags>  (83) 
0

>  <s_epik_input>  (83) 
W0NIMl09QyhbQ0gzXSlbQ0BIXShbT0hdKVtDQEhdKFtDSDJdW0NASF0xW0NIM10pQyg9W0NIXTIpW0NAQEhdMUMoPVtDSF1bQ0gyXTMpW0NAQF0yKFtDSDNdKVtDQEBdNChbT0hdKVtDSDJdW0NIMl1bQ0BIXShbQ0BAXTM0NSlDKFtDSDNdKShbQ0gzXSlbQ0gyXVtDSDJdW0NIMl01

>  <s_epik_cmdline>  (83) 
J2VwaWtfcHl0aG9uJywgJy1waHQnLCAnMi4wJywgJy1waCcsICc3LjAnLCAnLXRuJywgJzgnLCAnLW1hJywgJzIwMCcsICctaW1hZScsICc8aW5maWxlLm1hZT4nLCAnLW9tYWUnLCAnPG91dGZpbGUubWFlPic=

>  <r_lp_tautomer_probability>  (83) 
1

>  <r_epik_Ionization_Penalty>  (83) 
1.51315e-06

>  <r_epik_Ionization_Penalty_Charging>  (83) 
0

>  <r_epik_Ionization_Penalty_Neutral>  (83) 
1.51315e-06

>  <r_epik_State_Penalty>  (83) 
-0

>  <r_epik_Charging_Adjusted_Penalty>  (83) 
0

>  <i_epik_Tot_Q>  (83) 
0

>  <i_epik_Tot_abs_Q>  (83) 
0

>  <s_lp_Force_Field>  (83) 
OPLS3e

>  <r_lp_Energy>  (83) 
58.0676

>  <b_lp_Chiralities_Consistent>  (83) 
1

>  <s_lp_Variant>  (83) 
23:0-1

>  <s_i_glide_gridfile>  (83) 
pfpi4k_grid

>  <i_i_glide_lignum>  (83) 
38

>  <i_i_glide_rotatable_bonds>  (83) 
4

>  <r_i_docking_score>  (83) 
-3.53168

>  <r_i_glide_ligand_efficiency>  (83) 
-0.121782

>  <r_i_glide_ligand_efficiency_sa>  (83) 
-0.374153

>  <r_i_glide_ligand_efficiency_ln>  (83) 
-0.808665

>  <r_i_glide_gscore>  (83) 
-3.53168

>  <r_i_glide_lipo>  (83) 
-0.836775

>  <r_i_glide_hbond>  (83) 
-0.149209

>  <r_i_glide_metal>  (83) 
-0

>  <r_i_glide_rewards>  (83) 
-0.704964

>  <r_i_glide_evdw>  (83) 
-32.3208

>  <r_i_glide_ecoul>  (83) 
-3.15652

>  <r_i_glide_erotb>  (83) 
0.248786

>  <r_i_glide_esite>  (83) 
0

>  <r_i_glide_emodel>  (83) 
-41.794

>  <r_i_glide_energy>  (83) 
-35.4773

>  <r_i_glide_einternal>  (83) 
2.93339

>  <r_i_glide_intrahb_reward>  (83) 
-0

>  <i_i_glide_confnum>  (83) 
5

>  <i_i_glide_posenum>  (83) 
34

>  <r_i_glide_eff_state_penalty>  (83) 
0

>  <ligand_id>  (83) 
23

>  <original_smiles>  (83) 
C=C(C)C(O)C1CC(C)C2C1=CC1(C)C2=CCC23CCCC(C)(C)C2CCC13O

>  <smiles>  (83) 
[H]OC([H])(C(=C([H])[H])C([H])([H])[H])C1([H])C2=C([H])C3(C([H])([H])[H])C(=C([H])C([H])([H])C45C([H])([H])C([H])([H])C([H])([H])C(C([H])([H])[H])(C([H])([H])[H])C4([H])C([H])([H])C([H])([H])C35O[H])C2([H])C([H])(C([H])([H])[H])C1([H])[H]

$$$$
24:0:0
     RDKit          3D

 63 68  0  0  1  0  0  0  0  0999 V2000
    3.5725   -0.6404   -3.8296 C   0  0  0  0  0  0  0  0  0  0  0  0
    4.1683   -1.4923   -2.6999 C   0  0  2  0  0  0  0  0  0  0  0  0
    3.3403   -2.7562   -2.3987 C   0  0  0  0  0  0  0  0  0  0  0  0
    3.4727   -3.2320   -1.0222 N   0  0  0  0  0  0  0  0  0  0  0  0
    4.6684   -2.8382   -0.2693 C   0  0  1  0  0  0  0  0  0  0  0  0
    5.9587   -3.3632   -0.9856 C   0  0  0  0  0  0  0  0  0  0  0  0
    4.7479   -1.2669   -0.3244 C   0  0  2  0  0  0  0  0  0  0  0  0
    3.9326   -0.5399    0.7388 C   0  0  0  0  0  0  0  0  0  0  0  0
    4.2802   -1.0217    2.1380 C   0  0  1  0  0  0  0  0  0  0  0  0
    3.7356   -0.0093    3.1761 C   0  0  0  0  0  0  0  0  0  0  0  0
    3.8781   -2.5261    2.3069 C   0  0  1  0  0  0  0  0  0  0  0  0
    2.3830   -2.8057    2.1064 C   0  0  0  0  0  0  0  0  0  0  0  0
    2.2227   -4.1857    2.7515 C   0  0  2  0  0  0  0  0  0  0  0  0
    2.9304   -4.0351    4.1069 C   0  0  1  0  0  0  0  0  0  0  0  0
    1.9387   -3.5431    5.1822 C   0  0  0  0  0  0  0  0  0  0  0  0
    3.3561   -5.2827    4.6456 O   0  0  0  0  0  0  0  0  0  0  0  0
    3.6996   -6.3274    3.7929 C   0  0  2  0  0  0  0  0  0  0  0  0
    5.0411   -6.3050    3.4676 O   0  0  0  0  0  0  0  0  0  0  0  0
    5.4430   -5.5695    2.4213 C   0  0  0  0  0  0  0  0  0  0  0  0
    6.6372   -5.3597    2.2079 O   0  0  0  0  0  0  0  0  0  0  0  0
    4.3806   -5.0055    1.4174 C   0  0  2  0  0  0  0  0  0  0  0  0
    4.7027   -5.8920    0.1771 C   0  0  0  0  0  0  0  0  0  0  0  0
    4.6467   -3.4203    1.2354 C   0  0  1  0  0  0  0  0  0  0  0  0
    2.8877   -5.2945    1.8912 C   0  0  2  0  0  0  0  0  0  0  0  0
    1.9100   -5.7001    0.7617 C   0  0  0  0  0  0  0  0  0  0  0  0
    2.8642   -6.4483    2.6988 O   0  0  0  0  0  0  0  0  0  0  0  0
    4.0166   -2.9677    3.8080 C   0  0  1  0  0  0  0  0  0  0  0  0
    5.3249   -3.2390    4.2661 O   0  0  0  0  0  0  0  0  0  0  0  0
    4.2517   -0.6832   -1.5381 O   0  0  0  0  0  0  0  0  0  0  0  0
    3.4434   -1.2135   -4.7488 H   0  0  0  0  0  0  0  0  0  0  0  0
    4.2158    0.2124   -4.0562 H   0  0  0  0  0  0  0  0  0  0  0  0
    2.6028   -0.2273   -3.5518 H   0  0  0  0  0  0  0  0  0  0  0  0
    5.1634   -1.7764   -3.0168 H   0  0  0  0  0  0  0  0  0  0  0  0
    2.2749   -2.5762   -2.5850 H   0  0  0  0  0  0  0  0  0  0  0  0
    3.6447   -3.5471   -3.0930 H   0  0  0  0  0  0  0  0  0  0  0  0
    2.6755   -2.8636   -0.5157 H   0  0  0  0  0  0  0  0  0  0  0  0
    6.7219   -3.7048   -0.2884 H   0  0  0  0  0  0  0  0  0  0  0  0
    6.4566   -2.6073   -1.5850 H   0  0  0  0  0  0  0  0  0  0  0  0
    5.7435   -4.1881   -1.6655 H   0  0  0  0  0  0  0  0  0  0  0  0
    5.7796   -0.9495   -0.1951 H   0  0  0  0  0  0  0  0  0  0  0  0
    4.1282    0.5283    0.6429 H   0  0  0  0  0  0  0  0  0  0  0  0
    2.8615   -0.6532    0.5382 H   0  0  0  0  0  0  0  0  0  0  0  0
    5.3683   -0.9664    2.2342 H   0  0  0  0  0  0  0  0  0  0  0  0
    2.6578   -0.0666    3.3116 H   0  0  0  0  0  0  0  0  0  0  0  0
    3.9586    1.0090    2.8692 H   0  0  0  0  0  0  0  0  0  0  0  0
    4.2222   -0.1142    4.1464 H   0  0  0  0  0  0  0  0  0  0  0  0
    1.7707   -2.0708    2.6335 H   0  0  0  0  0  0  0  0  0  0  0  0
    2.0559   -2.7859    1.0685 H   0  0  0  0  0  0  0  0  0  0  0  0
    1.1683   -4.4203    2.9033 H   0  0  0  0  0  0  0  0  0  0  0  0
    1.4562   -2.6024    4.9201 H   0  0  0  0  0  0  0  0  0  0  0  0
    2.4453   -3.4008    6.1381 H   0  0  0  0  0  0  0  0  0  0  0  0
    1.1517   -4.2810    5.3462 H   0  0  0  0  0  0  0  0  0  0  0  0
    3.5392   -7.2266    4.3865 H   0  0  0  0  0  0  0  0  0  0  0  0
    4.1379   -5.6481   -0.7104 H   0  0  0  0  0  0  0  0  0  0  0  0
    4.5048   -6.9474    0.3868 H   0  0  0  0  0  0  0  0  0  0  0  0
    5.7557   -5.8538   -0.1029 H   0  0  0  0  0  0  0  0  0  0  0  0
    5.6774   -3.2421    1.5472 H   0  0  0  0  0  0  0  0  0  0  0  0
    1.8138   -4.9518   -0.0242 H   0  0  0  0  0  0  0  0  0  0  0  0
    0.9153   -5.8939    1.1628 H   0  0  0  0  0  0  0  0  0  0  0  0
    2.2118   -6.6401    0.3021 H   0  0  0  0  0  0  0  0  0  0  0  0
    3.7401   -2.1379    4.4489 H   0  0  0  0  0  0  0  0  0  0  0  0
    5.6444   -4.0148    3.8541 H   0  0  0  0  0  0  0  0  0  0  0  0
    3.4080   -4.2446   -1.0369 H   0  0  0  0  0  0  0  0  0  0  0  0
  1  2  1  0
  1 30  1  0
  1 31  1  0
  1 32  1  0
  2 29  1  0
  2  3  1  0
  2 33  1  6
  3  4  1  0
  3 34  1  0
  3 35  1  0
  4  5  1  0
  4 36  1  0
  4 63  1  0
  5 23  1  0
  5  6  1  6
  5  7  1  0
  6 37  1  0
  6 38  1  0
  6 39  1  0
  7  8  1  0
  7 29  1  0
  7 40  1  1
  8  9  1  0
  8 41  1  0
  8 42  1  0
  9 10  1  0
  9 11  1  0
  9 43  1  6
 10 44  1  0
 10 45  1  0
 10 46  1  0
 11 23  1  0
 11 27  1  0
 11 12  1  6
 12 13  1  0
 12 47  1  0
 12 48  1  0
 13 24  1  0
 13 14  1  0
 13 49  1  1
 14 15  1  1
 14 16  1  0
 14 27  1  0
 15 50  1  0
 15 51  1  0
 15 52  1  0
 16 17  1  0
 17 26  1  0
 17 18  1  0
 17 53  1  1
 18 19  1  0
 19 20  2  0
 19 21  1  0
 21 22  1  6
 21 23  1  0
 21 24  1  0
 22 54  1  0
 22 55  1  0
 22 56  1  0
 23 57  1  1
 24 25  1  6
 24 26  1  0
 25 58  1  0
 25 59  1  0
 25 60  1  0
 27 28  1  0
 27 61  1  1
 28 62  1  0
M  CHG  1   4   1
M  END
>  <i_m_ct_stereo_status>  (84) 
1

>  <s_m_source_file>  (84) 
/var/tmp/pbs.5076255.sched01/tmpikn618da/06v91y69d.sdf

>  <i_m_source_file_index>  (84) 
39

>  <i_lp_mmshare_version>  (84) 
48012

>  <i_f3d_flags>  (84) 
0

>  <s_epik_input>  (84) 
W05IXTFbQ0gyXVtDQEBIXShbQ0gzXSlPW0NAQEhdKFtDSDJdW0NASF0yW0NIM10pW0NAQF0xKFtDSDNdKVtDQEBIXShbQ0BAXTIzNClbQ0BdNShbQ0gzXSlbQ0BdNihbQ0gzXSlbQ0BIXShbQ0gyXTMpW0NAXShbQ0gzXSkoW0NASF00W09IXSlPW0NAQEhdKE82KU9DNT1P

>  <s_epik_cmdline>  (84) 
J2VwaWtfcHl0aG9uJywgJy1waHQnLCAnMi4wJywgJy1waCcsICc3LjAnLCAnLXRuJywgJzgnLCAnLW1hJywgJzIwMCcsICctaW1hZScsICc8aW5maWxlLm1hZT4nLCAnLW9tYWUnLCAnPG91dGZpbGUubWFlPic=

>  <r_epik_Ionization_Penalty>  (84) 
0.0206713

>  <r_epik_Ionization_Penalty_Charging>  (84) 
0.0206711

>  <r_epik_Ionization_Penalty_Neutral>  (84) 
2.6101e-07

>  <r_epik_State_Penalty>  (84) 
0.0165814

>  <r_epik_Charging_Adjusted_Penalty>  (84) 
0.0372525

>  <i_epik_Tot_Q>  (84) 
1

>  <i_epik_Tot_abs_Q>  (84) 
1

>  <s_epik_Chemistry_Notes>  (84) 
This compound has an ester and may undergo hydrolysis at high or low pH. This compound contains an acetal/aminal-like group ( X-CH(R)-Y where X, Y are N, S, or O) that may be acid/base labile, releasing an aldehyde.

>  <s_lp_Force_Field>  (84) 
OPLS3e

>  <r_lp_Energy>  (84) 
86.9409

>  <b_lp_Chiralities_Consistent>  (84) 
1

>  <s_lp_Variant>  (84) 
24:0-1

>  <s_i_glide_gridfile>  (84) 
pfpi4k_grid

>  <i_i_glide_lignum>  (84) 
39

>  <i_i_glide_rotatable_bonds>  (84) 
1

>  <r_i_docking_score>  (84) 
-3.16509

>  <r_i_glide_ligand_efficiency>  (84) 
-0.109141

>  <r_i_glide_ligand_efficiency_sa>  (84) 
-0.335316

>  <r_i_glide_ligand_efficiency_ln>  (84) 
-0.724725

>  <r_i_glide_gscore>  (84) 
-3.16509

>  <r_i_glide_lipo>  (84) 
-0.55935

>  <r_i_glide_hbond>  (84) 
0

>  <r_i_glide_metal>  (84) 
-0

>  <r_i_glide_rewards>  (84) 
-0.636859

>  <r_i_glide_evdw>  (84) 
-29.2349

>  <r_i_glide_ecoul>  (84) 
-3.38088

>  <r_i_glide_erotb>  (84) 
0

>  <r_i_glide_esite>  (84) 
0

>  <r_i_glide_emodel>  (84) 
-38.9655

>  <r_i_glide_energy>  (84) 
-32.6158

>  <r_i_glide_einternal>  (84) 
0.00229984

>  <r_i_glide_intrahb_reward>  (84) 
-0

>  <i_i_glide_confnum>  (84) 
1

>  <i_i_glide_posenum>  (84) 
16

>  <r_i_glide_eff_state_penalty>  (84) 
0

>  <ligand_id>  (84) 
24

>  <original_smiles>  (84) 
CC1CNC2(C)C(CC(C)C34CC5C(C)(OC6OC(=O)C(C)(C23)C5(C)O6)C4O)O1

>  <smiles>  (84) 
[H]OC1([H])C2(C([H])([H])[H])OC3([H])OC(=O)C4(C([H])([H])[H])C5([H])C1(C([H])([H])C2([H])C4(C([H])([H])[H])O3)C([H])(C([H])([H])[H])C([H])([H])C1([H])OC([H])(C([H])([H])[H])C([H])([H])[N+]([H])([H])C15C([H])([H])[H]

$$$$
24:0:1
     RDKit          3D

 63 68  0  0  1  0  0  0  0  0999 V2000
    3.5811   -0.6888   -3.8670 C   0  0  0  0  0  0  0  0  0  0  0  0
    4.1692   -1.5127   -2.7121 C   0  0  2  0  0  0  0  0  0  0  0  0
    3.3567   -2.7861   -2.4028 C   0  0  0  0  0  0  0  0  0  0  0  0
    3.4733   -3.2363   -1.0145 N   0  0  0  0  0  0  0  0  0  0  0  0
    4.6491   -2.8089   -0.2471 C   0  0  1  0  0  0  0  0  0  0  0  0
    5.9601   -3.3258   -0.9331 C   0  0  0  0  0  0  0  0  0  0  0  0
    4.7025   -1.2377   -0.3311 C   0  0  2  0  0  0  0  0  0  0  0  0
    3.8563   -0.5068    0.7046 C   0  0  0  0  0  0  0  0  0  0  0  0
    4.1872   -0.9525    2.1185 C   0  0  1  0  0  0  0  0  0  0  0  0
    3.6057    0.0737    3.1246 C   0  0  0  0  0  0  0  0  0  0  0  0
    3.8056   -2.4596    2.3092 C   0  0  1  0  0  0  0  0  0  0  0  0
    2.3202   -2.7681    2.0862 C   0  0  0  0  0  0  0  0  0  0  0  0
    2.1751   -4.1389    2.7529 C   0  0  2  0  0  0  0  0  0  0  0  0
    2.8495   -3.9518    4.1177 C   0  0  1  0  0  0  0  0  0  0  0  0
    1.8305   -3.4591    5.1665 C   0  0  0  0  0  0  0  0  0  0  0  0
    3.2799   -5.1838    4.6901 O   0  0  0  0  0  0  0  0  0  0  0  0
    3.6638   -6.2336    3.8607 C   0  0  2  0  0  0  0  0  0  0  0  0
    5.0113   -6.1989    3.5612 O   0  0  0  0  0  0  0  0  0  0  0  0
    5.4225   -5.4748    2.5078 C   0  0  0  0  0  0  0  0  0  0  0  0
    6.6192   -5.2761    2.2904 O   0  0  0  0  0  0  0  0  0  0  0  0
    4.3678   -4.9480    1.4739 C   0  0  2  0  0  0  0  0  0  0  0  0
    4.7263   -5.8542    0.2557 C   0  0  0  0  0  0  0  0  0  0  0  0
    4.6095   -3.3616    1.2680 C   0  0  1  0  0  0  0  0  0  0  0  0
    2.8710   -5.2520    1.9251 C   0  0  2  0  0  0  0  0  0  0  0  0
    1.9208   -5.6966    0.7860 C   0  0  0  0  0  0  0  0  0  0  0  0
    2.8511   -6.3912    2.7530 O   0  0  0  0  0  0  0  0  0  0  0  0
    3.9200   -2.8698    3.8222 C   0  0  1  0  0  0  0  0  0  0  0  0
    5.2231   -3.1367    4.2895 O   0  0  0  0  0  0  0  0  0  0  0  0
    4.2196   -0.6831   -1.5637 O   0  0  0  0  0  0  0  0  0  0  0  0
    3.4781   -1.2808   -4.7771 H   0  0  0  0  0  0  0  0  0  0  0  0
    4.2179    0.1693   -4.0981 H   0  0  0  0  0  0  0  0  0  0  0  0
    2.5996   -0.2878   -3.6153 H   0  0  0  0  0  0  0  0  0  0  0  0
    5.1743   -1.7864   -3.0065 H   0  0  0  0  0  0  0  0  0  0  0  0
    2.2925   -2.6294   -2.6120 H   0  0  0  0  0  0  0  0  0  0  0  0
    3.6878   -3.5840   -3.0760 H   0  0  0  0  0  0  0  0  0  0  0  0
    2.6606   -2.8726   -0.5276 H   0  0  0  0  0  0  0  0  0  0  0  0
    6.7158   -3.6430   -0.2166 H   0  0  0  0  0  0  0  0  0  0  0  0
    6.4561   -2.5731   -1.5378 H   0  0  0  0  0  0  0  0  0  0  0  0
    5.7701   -4.1662   -1.6011 H   0  0  0  0  0  0  0  0  0  0  0  0
    5.7263   -0.9011   -0.1892 H   0  0  0  0  0  0  0  0  0  0  0  0
    4.0398    0.5609    0.5932 H   0  0  0  0  0  0  0  0  0  0  0  0
    2.7902   -0.6384    0.4889 H   0  0  0  0  0  0  0  0  0  0  0  0
    5.2724   -0.8767    2.2282 H   0  0  0  0  0  0  0  0  0  0  0  0
    2.5274   -0.0083    3.2457 H   0  0  0  0  0  0  0  0  0  0  0  0
    3.8058    1.0934    2.7987 H   0  0  0  0  0  0  0  0  0  0  0  0
    4.0779   -0.0012    4.1049 H   0  0  0  0  0  0  0  0  0  0  0  0
    1.6845   -2.0360    2.5884 H   0  0  0  0  0  0  0  0  0  0  0  0
    2.0120   -2.7746    1.0427 H   0  0  0  0  0  0  0  0  0  0  0  0
    1.1233   -4.3899    2.8925 H   0  0  0  0  0  0  0  0  0  0  0  0
    1.3375   -2.5315    4.8785 H   0  0  0  0  0  0  0  0  0  0  0  0
    2.3171   -3.2928    6.1291 H   0  0  0  0  0  0  0  0  0  0  0  0
    1.0539   -4.2084    5.3281 H   0  0  0  0  0  0  0  0  0  0  0  0
    3.5077   -7.1270    4.4660 H   0  0  0  0  0  0  0  0  0  0  0  0
    4.1731   -5.6363   -0.6468 H   0  0  0  0  0  0  0  0  0  0  0  0
    4.5363   -6.9074    0.4811 H   0  0  0  0  0  0  0  0  0  0  0  0
    5.7833   -5.8098   -0.0084 H   0  0  0  0  0  0  0  0  0  0  0  0
    5.6317   -3.1639    1.5946 H   0  0  0  0  0  0  0  0  0  0  0  0
    1.8193   -4.9650   -0.0148 H   0  0  0  0  0  0  0  0  0  0  0  0
    0.9226   -5.9045    1.1718 H   0  0  0  0  0  0  0  0  0  0  0  0
    2.2518   -6.6377    0.3487 H   0  0  0  0  0  0  0  0  0  0  0  0
    3.6231   -2.0319    4.4464 H   0  0  0  0  0  0  0  0  0  0  0  0
    5.7516   -2.3758    4.1609 H   0  0  0  0  0  0  0  0  0  0  0  0
    3.4254   -4.2503   -1.0118 H   0  0  0  0  0  0  0  0  0  0  0  0
  1  2  1  0
  1 30  1  0
  1 31  1  0
  1 32  1  0
  2 29  1  0
  2  3  1  0
  2 33  1  6
  3  4  1  0
  3 34  1  0
  3 35  1  0
  4  5  1  0
  4 36  1  0
  4 63  1  0
  5 23  1  0
  5  6  1  6
  5  7  1  0
  6 37  1  0
  6 38  1  0
  6 39  1  0
  7  8  1  0
  7 29  1  0
  7 40  1  1
  8  9  1  0
  8 41  1  0
  8 42  1  0
  9 10  1  0
  9 11  1  0
  9 43  1  6
 10 44  1  0
 10 45  1  0
 10 46  1  0
 11 23  1  0
 11 27  1  0
 11 12  1  6
 12 13  1  0
 12 47  1  0
 12 48  1  0
 13 24  1  0
 13 14  1  0
 13 49  1  1
 14 15  1  1
 14 16  1  0
 14 27  1  0
 15 50  1  0
 15 51  1  0
 15 52  1  0
 16 17  1  0
 17 26  1  0
 17 18  1  0
 17 53  1  1
 18 19  1  0
 19 20  2  0
 19 21  1  0
 21 22  1  6
 21 23  1  0
 21 24  1  0
 22 54  1  0
 22 55  1  0
 22 56  1  0
 23 57  1  1
 24 25  1  6
 24 26  1  0
 25 58  1  0
 25 59  1  0
 25 60  1  0
 27 28  1  0
 27 61  1  1
 28 62  1  0
M  CHG  1   4   1
M  END
>  <i_m_ct_stereo_status>  (85) 
1

>  <s_m_source_file>  (85) 
/var/tmp/pbs.5076255.sched01/tmpikn618da/06v91y69d.sdf

>  <i_m_source_file_index>  (85) 
39

>  <i_lp_mmshare_version>  (85) 
48012

>  <i_f3d_flags>  (85) 
0

>  <s_epik_input>  (85) 
W05IXTFbQ0gyXVtDQEBIXShbQ0gzXSlPW0NAQEhdKFtDSDJdW0NASF0yW0NIM10pW0NAQF0xKFtDSDNdKVtDQEBIXShbQ0BAXTIzNClbQ0BdNShbQ0gzXSlbQ0BdNihbQ0gzXSlbQ0BIXShbQ0gyXTMpW0NAXShbQ0gzXSkoW0NASF00W09IXSlPW0NAQEhdKE82KU9DNT1P

>  <s_epik_cmdline>  (85) 
J2VwaWtfcHl0aG9uJywgJy1waHQnLCAnMi4wJywgJy1waCcsICc3LjAnLCAnLXRuJywgJzgnLCAnLW1hJywgJzIwMCcsICctaW1hZScsICc8aW5maWxlLm1hZT4nLCAnLW9tYWUnLCAnPG91dGZpbGUubWFlPic=

>  <r_epik_Ionization_Penalty>  (85) 
0.0206713

>  <r_epik_Ionization_Penalty_Charging>  (85) 
0.0206711

>  <r_epik_Ionization_Penalty_Neutral>  (85) 
2.6101e-07

>  <r_epik_State_Penalty>  (85) 
0.0165814

>  <r_epik_Charging_Adjusted_Penalty>  (85) 
0.0372525

>  <i_epik_Tot_Q>  (85) 
1

>  <i_epik_Tot_abs_Q>  (85) 
1

>  <s_epik_Chemistry_Notes>  (85) 
This compound has an ester and may undergo hydrolysis at high or low pH. This compound contains an acetal/aminal-like group ( X-CH(R)-Y where X, Y are N, S, or O) that may be acid/base labile, releasing an aldehyde.

>  <s_lp_Force_Field>  (85) 
OPLS3e

>  <r_lp_Energy>  (85) 
86.9409

>  <b_lp_Chiralities_Consistent>  (85) 
1

>  <s_lp_Variant>  (85) 
24:0-1

>  <s_i_glide_gridfile>  (85) 
pfpi4k_grid

>  <i_i_glide_lignum>  (85) 
39

>  <i_i_glide_rotatable_bonds>  (85) 
1

>  <r_i_docking_score>  (85) 
-3.09012

>  <r_i_glide_ligand_efficiency>  (85) 
-0.106556

>  <r_i_glide_ligand_efficiency_sa>  (85) 
-0.327374

>  <r_i_glide_ligand_efficiency_ln>  (85) 
-0.70756

>  <r_i_glide_gscore>  (85) 
-3.09012

>  <r_i_glide_lipo>  (85) 
-0.523749

>  <r_i_glide_hbond>  (85) 
0

>  <r_i_glide_metal>  (85) 
-0

>  <r_i_glide_rewards>  (85) 
-0.635838

>  <r_i_glide_evdw>  (85) 
-29.3276

>  <r_i_glide_ecoul>  (85) 
-3.09439

>  <r_i_glide_erotb>  (85) 
0

>  <r_i_glide_esite>  (85) 
0

>  <r_i_glide_emodel>  (85) 
-38.4742

>  <r_i_glide_energy>  (85) 
-32.422

>  <r_i_glide_einternal>  (85) 
0.327922

>  <r_i_glide_intrahb_reward>  (85) 
-0

>  <i_i_glide_confnum>  (85) 
1

>  <i_i_glide_posenum>  (85) 
6

>  <r_i_glide_eff_state_penalty>  (85) 
0

>  <ligand_id>  (85) 
24

>  <original_smiles>  (85) 
CC1CNC2(C)C(CC(C)C34CC5C(C)(OC6OC(=O)C(C)(C23)C5(C)O6)C4O)O1

>  <smiles>  (85) 
[H]OC1([H])C2(C([H])([H])[H])OC3([H])OC(=O)C4(C([H])([H])[H])C5([H])C1(C([H])([H])C2([H])C4(C([H])([H])[H])O3)C([H])(C([H])([H])[H])C([H])([H])C1([H])OC([H])(C([H])([H])[H])C([H])([H])[N+]([H])([H])C15C([H])([H])[H]

$$$$
24:0:2
     RDKit          3D

 63 68  0  0  1  0  0  0  0  0999 V2000
    2.4398   -8.8674    3.8141 C   0  0  0  0  0  0  0  0  0  0  0  0
    2.8270   -7.3859    3.6485 C   0  0  2  0  0  0  0  0  0  0  0  0
    2.1009   -6.6888    2.4808 C   0  0  0  0  0  0  0  0  0  0  0  0
    2.8321   -5.5745    1.8855 N   0  0  0  0  0  0  0  0  0  0  0  0
    3.8332   -4.9240    2.7189 C   0  0  1  0  0  0  0  0  0  0  0  0
    3.1818   -4.3238    4.0066 C   0  0  0  0  0  0  0  0  0  0  0  0
    4.8243   -6.0398    3.2125 C   0  0  2  0  0  0  0  0  0  0  0  0
    5.9440   -6.3964    2.2374 C   0  0  0  0  0  0  0  0  0  0  0  0
    6.7201   -5.1721    1.8132 C   0  0  1  0  0  0  0  0  0  0  0  0
    8.0695   -5.5908    1.1766 C   0  0  0  0  0  0  0  0  0  0  0  0
    5.8027   -4.1667    1.0357 C   0  0  1  0  0  0  0  0  0  0  0  0
    5.1894   -4.7602   -0.2272 C   0  0  0  0  0  0  0  0  0  0  0  0
    4.7842   -3.5207   -1.0211 C   0  0  2  0  0  0  0  0  0  0  0  0
    6.0056   -2.6023   -0.9399 C   0  0  1  0  0  0  0  0  0  0  0  0
    6.9443   -2.8536   -2.1121 C   0  0  0  0  0  0  0  0  0  0  0  0
    5.7001   -1.2228   -1.1118 O   0  0  0  0  0  0  0  0  0  0  0  0
    4.4451   -0.7639   -0.7311 C   0  0  2  0  0  0  0  0  0  0  0  0
    4.4285   -0.3026    0.5680 O   0  0  0  0  0  0  0  0  0  0  0  0
    4.1889   -1.1736    1.5621 C   0  0  0  0  0  0  0  0  0  0  0  0
    4.3314   -0.8971    2.7523 O   0  0  0  0  0  0  0  0  0  0  0  0
    3.6494   -2.6030    1.2074 C   0  0  2  0  0  0  0  0  0  0  0  0
    2.2263   -2.4708    1.8014 C   0  0  0  0  0  0  0  0  0  0  0  0
    4.5709   -3.7227    1.9277 C   0  0  1  0  0  0  0  0  0  0  0  0
    3.5574   -2.8616   -0.3626 C   0  0  2  0  0  0  0  0  0  0  0  0
    2.3133   -3.6350   -0.8588 C   0  0  0  0  0  0  0  0  0  0  0  0
    3.4360   -1.6398   -1.0358 O   0  0  0  0  0  0  0  0  0  0  0  0
    6.6548   -3.0145    0.3909 C   0  0  1  0  0  0  0  0  0  0  0  0
    6.8874   -1.9188    1.2235 O   0  0  0  0  0  0  0  0  0  0  0  0
    4.2224   -7.3302    3.4009 O   0  0  0  0  0  0  0  0  0  0  0  0
    1.3667   -8.9918    3.9609 H   0  0  0  0  0  0  0  0  0  0  0  0
    2.9324   -9.2983    4.6898 H   0  0  0  0  0  0  0  0  0  0  0  0
    2.7318   -9.4729    2.9539 H   0  0  0  0  0  0  0  0  0  0  0  0
    2.5884   -6.8957    4.5860 H   0  0  0  0  0  0  0  0  0  0  0  0
    1.8842   -7.4202    1.6910 H   0  0  0  0  0  0  0  0  0  0  0  0
    1.1188   -6.3686    2.8422 H   0  0  0  0  0  0  0  0  0  0  0  0
    3.3160   -5.9362    1.0831 H   0  0  0  0  0  0  0  0  0  0  0  0
    3.6046   -3.3594    4.2905 H   0  0  0  0  0  0  0  0  0  0  0  0
    3.3141   -4.9468    4.8884 H   0  0  0  0  0  0  0  0  0  0  0  0
    2.1058   -4.1847    3.9023 H   0  0  0  0  0  0  0  0  0  0  0  0
    5.3039   -5.7290    4.1395 H   0  0  0  0  0  0  0  0  0  0  0  0
    6.6031   -7.1205    2.7154 H   0  0  0  0  0  0  0  0  0  0  0  0
    5.5380   -6.9155    1.3640 H   0  0  0  0  0  0  0  0  0  0  0  0
    7.0059   -4.7120    2.7490 H   0  0  0  0  0  0  0  0  0  0  0  0
    7.9722   -5.9837    0.1668 H   0  0  0  0  0  0  0  0  0  0  0  0
    8.5455   -6.3697    1.7758 H   0  0  0  0  0  0  0  0  0  0  0  0
    8.7980   -4.7789    1.1760 H   0  0  0  0  0  0  0  0  0  0  0  0
    5.9562   -5.3182   -0.7254 H   0  0  0  0  0  0  0  0  0  0  0  0
    4.3663   -5.4583   -0.0890 H   0  0  0  0  0  0  0  0  0  0  0  0
    4.5644   -3.7688   -2.0606 H   0  0  0  0  0  0  0  0  0  0  0  0
    7.3105   -3.8446   -2.1651 H   0  0  0  0  0  0  0  0  0  0  0  0
    7.8404   -2.2379   -2.0717 H   0  0  0  0  0  0  0  0  0  0  0  0
    6.4317   -2.6803   -3.0599 H   0  0  0  0  0  0  0  0  0  0  0  0
    4.2710    0.1066   -1.3628 H   0  0  0  0  0  0  0  0  0  0  0  0
    1.6607   -3.3828    1.7502 H   0  0  0  0  0  0  0  0  0  0  0  0
    1.6456   -1.7047    1.2811 H   0  0  0  0  0  0  0  0  0  0  0  0
    2.2116   -2.1555    2.8439 H   0  0  0  0  0  0  0  0  0  0  0  0
    5.0961   -3.2059    2.7355 H   0  0  0  0  0  0  0  0  0  0  0  0
    2.1884   -4.6240   -0.4229 H   0  0  0  0  0  0  0  0  0  0  0  0
    2.3141   -3.7606   -1.9443 H   0  0  0  0  0  0  0  0  0  0  0  0
    1.4189   -3.0577   -0.6675 H   0  0  0  0  0  0  0  0  0  0  0  0
    7.6449   -3.3698    0.1253 H   0  0  0  0  0  0  0  0  0  0  0  0
    7.6030   -1.4097    0.8794 H   0  0  0  0  0  0  0  0  0  0  0  0
    2.1844   -4.8699    1.5985 H   0  0  0  0  0  0  0  0  0  0  0  0
  1  2  1  0
  1 30  1  0
  1 31  1  0
  1 32  1  0
  2 29  1  0
  2  3  1  0
  2 33  1  1
  3  4  1  0
  3 34  1  0
  3 35  1  0
  4  5  1  0
  4 36  1  0
  4 63  1  0
  5 23  1  0
  5  6  1  1
  5  7  1  0
  6 37  1  0
  6 38  1  0
  6 39  1  0
  7  8  1  0
  7 29  1  0
  7 40  1  1
  8  9  1  0
  8 41  1  0
  8 42  1  0
  9 10  1  0
  9 11  1  0
  9 43  1  1
 10 44  1  0
 10 45  1  0
 10 46  1  0
 11 23  1  0
 11 27  1  0
 11 12  1  6
 12 13  1  0
 12 47  1  0
 12 48  1  0
 13 24  1  0
 13 14  1  0
 13 49  1  6
 14 15  1  6
 14 16  1  0
 14 27  1  0
 15 50  1  0
 15 51  1  0
 15 52  1  0
 16 17  1  0
 17 26  1  0
 17 18  1  0
 17 53  1  6
 18 19  1  0
 19 20  2  0
 19 21  1  0
 21 22  1  1
 21 23  1  0
 21 24  1  0
 22 54  1  0
 22 55  1  0
 22 56  1  0
 23 57  1  1
 24 25  1  1
 24 26  1  0
 25 58  1  0
 25 59  1  0
 25 60  1  0
 27 28  1  0
 27 61  1  6
 28 62  1  0
M  CHG  1   4   1
M  END
>  <i_m_ct_stereo_status>  (86) 
1

>  <s_m_source_file>  (86) 
/var/tmp/pbs.5076255.sched01/tmpikn618da/06v91y69d.sdf

>  <i_m_source_file_index>  (86) 
39

>  <i_lp_mmshare_version>  (86) 
48012

>  <i_f3d_flags>  (86) 
0

>  <s_epik_input>  (86) 
W05IXTFbQ0gyXVtDQEBIXShbQ0gzXSlPW0NAQEhdKFtDSDJdW0NASF0yW0NIM10pW0NAQF0xKFtDSDNdKVtDQEBIXShbQ0BAXTIzNClbQ0BdNShbQ0gzXSlbQ0BdNihbQ0gzXSlbQ0BIXShbQ0gyXTMpW0NAXShbQ0gzXSkoW0NASF00W09IXSlPW0NAQEhdKE82KU9DNT1P

>  <s_epik_cmdline>  (86) 
J2VwaWtfcHl0aG9uJywgJy1waHQnLCAnMi4wJywgJy1waCcsICc3LjAnLCAnLXRuJywgJzgnLCAnLW1hJywgJzIwMCcsICctaW1hZScsICc8aW5maWxlLm1hZT4nLCAnLW9tYWUnLCAnPG91dGZpbGUubWFlPic=

>  <r_epik_Ionization_Penalty>  (86) 
0.0206713

>  <r_epik_Ionization_Penalty_Charging>  (86) 
0.0206711

>  <r_epik_Ionization_Penalty_Neutral>  (86) 
2.6101e-07

>  <r_epik_State_Penalty>  (86) 
0.0165814

>  <r_epik_Charging_Adjusted_Penalty>  (86) 
0.0372525

>  <i_epik_Tot_Q>  (86) 
1

>  <i_epik_Tot_abs_Q>  (86) 
1

>  <s_epik_Chemistry_Notes>  (86) 
This compound has an ester and may undergo hydrolysis at high or low pH. This compound contains an acetal/aminal-like group ( X-CH(R)-Y where X, Y are N, S, or O) that may be acid/base labile, releasing an aldehyde.

>  <s_lp_Force_Field>  (86) 
OPLS3e

>  <r_lp_Energy>  (86) 
86.9409

>  <b_lp_Chiralities_Consistent>  (86) 
1

>  <s_lp_Variant>  (86) 
24:0-1

>  <s_i_glide_gridfile>  (86) 
pfpi4k_grid

>  <i_i_glide_lignum>  (86) 
39

>  <i_i_glide_rotatable_bonds>  (86) 
1

>  <r_i_docking_score>  (86) 
-2.64423

>  <r_i_glide_ligand_efficiency>  (86) 
-0.0911805

>  <r_i_glide_ligand_efficiency_sa>  (86) 
-0.280135

>  <r_i_glide_ligand_efficiency_ln>  (86) 
-0.605463

>  <r_i_glide_gscore>  (86) 
-2.64423

>  <r_i_glide_lipo>  (86) 
-0.416826

>  <r_i_glide_hbond>  (86) 
-0.0445597

>  <r_i_glide_metal>  (86) 
-0

>  <r_i_glide_rewards>  (86) 
-0.639442

>  <r_i_glide_evdw>  (86) 
-22.5279

>  <r_i_glide_ecoul>  (86) 
-2.49306

>  <r_i_glide_erotb>  (86) 
0

>  <r_i_glide_esite>  (86) 
-0.0430512

>  <r_i_glide_emodel>  (86) 
-29.2903

>  <r_i_glide_energy>  (86) 
-25.021

>  <r_i_glide_einternal>  (86) 
0.356084

>  <r_i_glide_intrahb_reward>  (86) 
-0

>  <i_i_glide_confnum>  (86) 
1

>  <i_i_glide_posenum>  (86) 
7

>  <r_i_glide_eff_state_penalty>  (86) 
0

>  <ligand_id>  (86) 
24

>  <original_smiles>  (86) 
CC1CNC2(C)C(CC(C)C34CC5C(C)(OC6OC(=O)C(C)(C23)C5(C)O6)C4O)O1

>  <smiles>  (86) 
[H]OC1([H])C2(C([H])([H])[H])OC3([H])OC(=O)C4(C([H])([H])[H])C5([H])C1(C([H])([H])C2([H])C4(C([H])([H])[H])O3)C([H])(C([H])([H])[H])C([H])([H])C1([H])OC([H])(C([H])([H])[H])C([H])([H])[N+]([H])([H])C15C([H])([H])[H]

$$$$
24:1:0
     RDKit          3D

 62 67  0  0  1  0  0  0  0  0999 V2000
    3.5690   -1.5621   -2.3411 C   0  0  0  0  0  0  0  0  0  0  0  0
    4.9574   -2.2145   -2.2226 C   0  0  2  0  0  0  0  0  0  0  0  0
    4.9164   -3.7229   -1.9723 C   0  0  0  0  0  0  0  0  0  0  0  0
    4.5540   -3.9936   -0.5842 N   0  0  0  0  0  0  0  0  0  0  0  0
    5.4642   -3.4253    0.4181 C   0  0  1  0  0  0  0  0  0  0  0  0
    6.8912   -4.0067    0.2014 C   0  0  0  0  0  0  0  0  0  0  0  0
    5.6161   -1.8919    0.1143 C   0  0  2  0  0  0  0  0  0  0  0  0
    4.5248   -0.9988    0.6851 C   0  0  0  0  0  0  0  0  0  0  0  0
    4.4201   -1.2054    2.1899 C   0  0  1  0  0  0  0  0  0  0  0  0
    3.6018   -0.0380    2.7872 C   0  0  0  0  0  0  0  0  0  0  0  0
    3.9512   -2.6718    2.5073 C   0  0  1  0  0  0  0  0  0  0  0  0
    2.5759   -3.0322    1.9329 C   0  0  0  0  0  0  0  0  0  0  0  0
    2.1967   -4.2674    2.7549 C   0  0  2  0  0  0  0  0  0  0  0  0
    2.4789   -3.8427    4.1967 C   0  0  1  0  0  0  0  0  0  0  0  0
    1.2328   -3.1810    4.8275 C   0  0  0  0  0  0  0  0  0  0  0  0
    2.6818   -4.9644    5.0599 O   0  0  0  0  0  0  0  0  0  0  0  0
    3.2201   -6.1347    4.5507 C   0  0  2  0  0  0  0  0  0  0  0  0
    4.5920   -6.1478    4.6452 O   0  0  0  0  0  0  0  0  0  0  0  0
    5.3118   -5.6173    3.6394 C   0  0  0  0  0  0  0  0  0  0  0  0
    6.5257   -5.4633    3.7481 O   0  0  0  0  0  0  0  0  0  0  0  0
    4.6153   -5.2732    2.2907 C   0  0  2  0  0  0  0  0  0  0  0  0
    5.2578   -6.3685    1.3762 C   0  0  0  0  0  0  0  0  0  0  0  0
    4.9741   -3.7360    1.9106 C   0  0  1  0  0  0  0  0  0  0  0  0
    3.0443   -5.4972    2.3386 C   0  0  2  0  0  0  0  0  0  0  0  0
    2.4217   -6.1228    1.0639 C   0  0  0  0  0  0  0  0  0  0  0  0
    2.7351   -6.4766    3.3046 O   0  0  0  0  0  0  0  0  0  0  0  0
    3.6395   -2.8225    4.0422 C   0  0  1  0  0  0  0  0  0  0  0  0
    4.7462   -2.9632    4.8971 O   0  0  0  0  0  0  0  0  0  0  0  0
    5.8266   -1.5872   -1.2744 O   0  0  0  0  0  0  0  0  0  0  0  0
    3.1262   -1.7347   -3.3223 H   0  0  0  0  0  0  0  0  0  0  0  0
    3.6451   -0.4846   -2.2055 H   0  0  0  0  0  0  0  0  0  0  0  0
    2.8660   -1.9565   -1.6117 H   0  0  0  0  0  0  0  0  0  0  0  0
    5.4156   -2.0732   -3.1931 H   0  0  0  0  0  0  0  0  0  0  0  0
    4.1999   -4.1948   -2.6393 H   0  0  0  0  0  0  0  0  0  0  0  0
    5.8876   -4.1519   -2.2205 H   0  0  0  0  0  0  0  0  0  0  0  0
    4.4530   -5.0014   -0.4524 H   0  0  0  0  0  0  0  0  0  0  0  0
    7.4847   -4.0136    1.1147 H   0  0  0  0  0  0  0  0  0  0  0  0
    7.4622   -3.4358   -0.5332 H   0  0  0  0  0  0  0  0  0  0  0  0
    6.8695   -5.0241   -0.1853 H   0  0  0  0  0  0  0  0  0  0  0  0
    6.5343   -1.5648    0.5987 H   0  0  0  0  0  0  0  0  0  0  0  0
    4.7633    0.0382    0.4465 H   0  0  0  0  0  0  0  0  0  0  0  0
    3.5598   -1.1870    0.2361 H   0  0  0  0  0  0  0  0  0  0  0  0
    5.4222   -1.0948    2.6049 H   0  0  0  0  0  0  0  0  0  0  0  0
    2.5345   -0.1139    2.5846 H   0  0  0  0  0  0  0  0  0  0  0  0
    3.9301    0.9122    2.3711 H   0  0  0  0  0  0  0  0  0  0  0  0
    3.7547    0.0618    3.8630 H   0  0  0  0  0  0  0  0  0  0  0  0
    1.8529   -2.2312    2.1031 H   0  0  0  0  0  0  0  0  0  0  0  0
    2.5733   -3.2214    0.8591 H   0  0  0  0  0  0  0  0  0  0  0  0
    1.1325   -4.4984    2.6355 H   0  0  0  0  0  0  0  0  0  0  0  0
    0.8781   -2.3193    4.2583 H   0  0  0  0  0  0  0  0  0  0  0  0
    1.4482   -2.8437    5.8409 H   0  0  0  0  0  0  0  0  0  0  0  0
    0.4080   -3.8923    4.8923 H   0  0  0  0  0  0  0  0  0  0  0  0
    2.8689   -6.9153    5.2287 H   0  0  0  0  0  0  0  0  0  0  0  0
    4.9843   -6.3037    0.3288 H   0  0  0  0  0  0  0  0  0  0  0  0
    4.9595   -7.3664    1.7054 H   0  0  0  0  0  0  0  0  0  0  0  0
    6.3442   -6.3658    1.4261 H   0  0  0  0  0  0  0  0  0  0  0  0
    5.8646   -3.4860    2.4791 H   0  0  0  0  0  0  0  0  0  0  0  0
    2.5886   -5.5308    0.1618 H   0  0  0  0  0  0  0  0  0  0  0  0
    1.3406   -6.2558    1.1695 H   0  0  0  0  0  0  0  0  0  0  0  0
    2.8161   -7.1251    0.8809 H   0  0  0  0  0  0  0  0  0  0  0  0
    3.2104   -1.8933    4.4041 H   0  0  0  0  0  0  0  0  0  0  0  0
    5.1689   -3.8009    4.7254 H   0  0  0  0  0  0  0  0  0  0  0  0
  1  2  1  0
  1 30  1  0
  1 31  1  0
  1 32  1  0
  2 29  1  0
  2  3  1  0
  2 33  1  6
  3  4  1  0
  3 34  1  0
  3 35  1  0
  4  5  1  0
  4 36  1  0
  5 23  1  0
  5  6  1  6
  5  7  1  0
  6 37  1  0
  6 38  1  0
  6 39  1  0
  7  8  1  0
  7 29  1  0
  7 40  1  1
  8  9  1  0
  8 41  1  0
  8 42  1  0
  9 10  1  0
  9 11  1  0
  9 43  1  1
 10 44  1  0
 10 45  1  0
 10 46  1  0
 11 23  1  0
 11 27  1  0
 11 12  1  6
 12 13  1  0
 12 47  1  0
 12 48  1  0
 13 24  1  0
 13 14  1  0
 13 49  1  1
 14 15  1  1
 14 16  1  0
 14 27  1  0
 15 50  1  0
 15 51  1  0
 15 52  1  0
 16 17  1  0
 17 26  1  0
 17 18  1  0
 17 53  1  1
 18 19  1  0
 19 20  2  0
 19 21  1  0
 21 22  1  6
 21 23  1  0
 21 24  1  0
 22 54  1  0
 22 55  1  0
 22 56  1  0
 23 57  1  1
 24 25  1  6
 24 26  1  0
 25 58  1  0
 25 59  1  0
 25 60  1  0
 27 28  1  0
 27 61  1  1
 28 62  1  0
M  END
>  <i_m_ct_stereo_status>  (87) 
1

>  <s_m_source_file>  (87) 
/var/tmp/pbs.5076255.sched01/tmpikn618da/06v91y69d.sdf

>  <i_m_source_file_index>  (87) 
40

>  <i_lp_mmshare_version>  (87) 
48012

>  <i_f3d_flags>  (87) 
0

>  <s_epik_input>  (87) 
W05IXTFbQ0gyXVtDQEBIXShbQ0gzXSlPW0NAQEhdKFtDSDJdW0NASF0yW0NIM10pW0NAQF0xKFtDSDNdKVtDQEBIXShbQ0BAXTIzNClbQ0BdNShbQ0gzXSlbQ0BdNihbQ0gzXSlbQ0BIXShbQ0gyXTMpW0NAXShbQ0gzXSkoW0NASF00W09IXSlPW0NAQEhdKE82KU9DNT1P

>  <s_epik_cmdline>  (87) 
J2VwaWtfcHl0aG9uJywgJy1waHQnLCAnMi4wJywgJy1waCcsICc3LjAnLCAnLXRuJywgJzgnLCAnLW1hJywgJzIwMCcsICctaW1hZScsICc8aW5maWxlLm1hZT4nLCAnLW9tYWUnLCAnPG91dGZpbGUubWFlPic=

>  <r_epik_Ionization_Penalty>  (87) 
1.99845

>  <r_epik_Ionization_Penalty_Charging>  (87) 
0

>  <r_epik_Ionization_Penalty_Neutral>  (87) 
1.99845

>  <r_epik_State_Penalty>  (87) 
2.12703

>  <r_epik_Charging_Adjusted_Penalty>  (87) 
2.12703

>  <i_epik_Tot_Q>  (87) 
0

>  <i_epik_Tot_abs_Q>  (87) 
0

>  <s_epik_Chemistry_Notes>  (87) 
This compound has an ester and may undergo hydrolysis at high or low pH. This compound contains an acetal/aminal-like group ( X-CH(R)-Y where X, Y are N, S, or O) that may be acid/base labile, releasing an aldehyde.

>  <s_lp_Force_Field>  (87) 
OPLS3e

>  <r_lp_Energy>  (87) 
88.1669

>  <b_lp_Chiralities_Consistent>  (87) 
1

>  <s_lp_Variant>  (87) 
24:0-2

>  <s_i_glide_gridfile>  (87) 
pfpi4k_grid

>  <i_i_glide_lignum>  (87) 
40

>  <i_i_glide_rotatable_bonds>  (87) 
1

>  <r_i_docking_score>  (87) 
-2.83634

>  <r_i_glide_ligand_efficiency>  (87) 
-0.0978047

>  <r_i_glide_ligand_efficiency_sa>  (87) 
-0.300487

>  <r_i_glide_ligand_efficiency_ln>  (87) 
-0.649449

>  <r_i_glide_gscore>  (87) 
-2.83634

>  <r_i_glide_lipo>  (87) 
-0.459918

>  <r_i_glide_hbond>  (87) 
-0.0650851

>  <r_i_glide_metal>  (87) 
-0

>  <r_i_glide_rewards>  (87) 
-0.631816

>  <r_i_glide_evdw>  (87) 
-26.6621

>  <r_i_glide_ecoul>  (87) 
-2.30942

>  <r_i_glide_erotb>  (87) 
0

>  <r_i_glide_esite>  (87) 
0

>  <r_i_glide_emodel>  (87) 
-33.8376

>  <r_i_glide_energy>  (87) 
-28.9715

>  <r_i_glide_einternal>  (87) 
0.000565801

>  <r_i_glide_intrahb_reward>  (87) 
-0

>  <i_i_glide_confnum>  (87) 
1

>  <i_i_glide_posenum>  (87) 
6

>  <r_i_glide_eff_state_penalty>  (87) 
0

>  <ligand_id>  (87) 
24

>  <original_smiles>  (87) 
CC1CNC2(C)C(CC(C)C34CC5C(C)(OC6OC(=O)C(C)(C23)C5(C)O6)C4O)O1

>  <smiles>  (87) 
[H]OC1([H])C2(C([H])([H])[H])OC3([H])OC(=O)C4(C([H])([H])[H])C5([H])C6(C([H])([H])[H])N([H])C([H])([H])C([H])(C([H])([H])[H])OC6([H])C([H])([H])C([H])(C([H])([H])[H])C15C([H])([H])C2([H])C4(C([H])([H])[H])O3

$$$$
24:1:1
     RDKit          3D

 62 67  0  0  1  0  0  0  0  0999 V2000
    3.6380   -8.6065    1.7701 C   0  0  0  0  0  0  0  0  0  0  0  0
    3.1471   -7.7518    2.9572 C   0  0  2  0  0  0  0  0  0  0  0  0
    2.1253   -6.6733    2.5813 C   0  0  0  0  0  0  0  0  0  0  0  0
    2.7929   -5.5579    1.9129 N   0  0  0  0  0  0  0  0  0  0  0  0
    3.8358   -4.8975    2.7151 C   0  0  1  0  0  0  0  0  0  0  0  0
    3.1821   -4.3390    4.0156 C   0  0  0  0  0  0  0  0  0  0  0  0
    4.8313   -5.9989    3.2107 C   0  0  2  0  0  0  0  0  0  0  0  0
    5.9265   -6.3939    2.2310 C   0  0  0  0  0  0  0  0  0  0  0  0
    6.7039   -5.1655    1.7995 C   0  0  1  0  0  0  0  0  0  0  0  0
    8.0308   -5.6193    1.1448 C   0  0  0  0  0  0  0  0  0  0  0  0
    5.7823   -4.1658    1.0182 C   0  0  1  0  0  0  0  0  0  0  0  0
    5.1542   -4.7587   -0.2358 C   0  0  0  0  0  0  0  0  0  0  0  0
    4.7675   -3.5131   -1.0331 C   0  0  2  0  0  0  0  0  0  0  0  0
    5.9842   -2.5978   -0.9342 C   0  0  1  0  0  0  0  0  0  0  0  0
    6.9258   -2.8260   -2.1078 C   0  0  0  0  0  0  0  0  0  0  0  0
    5.6829   -1.2178   -1.1133 O   0  0  0  0  0  0  0  0  0  0  0  0
    4.4310   -0.7661   -0.7468 C   0  0  2  0  0  0  0  0  0  0  0  0
    4.3969   -0.3087    0.5555 O   0  0  0  0  0  0  0  0  0  0  0  0
    4.1786   -1.1968    1.5442 C   0  0  0  0  0  0  0  0  0  0  0  0
    4.3758   -0.9079    2.7208 O   0  0  0  0  0  0  0  0  0  0  0  0
    3.6280   -2.5978    1.1822 C   0  0  2  0  0  0  0  0  0  0  0  0
    2.2102   -2.4533    1.7900 C   0  0  0  0  0  0  0  0  0  0  0  0
    4.5516   -3.7110    1.9137 C   0  0  1  0  0  0  0  0  0  0  0  0
    3.5333   -2.8624   -0.3822 C   0  0  2  0  0  0  0  0  0  0  0  0
    2.2943   -3.6412   -0.8806 C   0  0  0  0  0  0  0  0  0  0  0  0
    3.4175   -1.6316   -1.0615 O   0  0  0  0  0  0  0  0  0  0  0  0
    6.6369   -3.0078    0.3897 C   0  0  1  0  0  0  0  0  0  0  0  0
    7.0055   -1.9274    1.2206 O   0  0  0  0  0  0  0  0  0  0  0  0
    4.2004   -7.1701    3.7279 O   0  0  0  0  0  0  0  0  0  0  0  0
    2.9137   -9.3747    1.4934 H   0  0  0  0  0  0  0  0  0  0  0  0
    4.5675   -9.1209    2.0195 H   0  0  0  0  0  0  0  0  0  0  0  0
    3.8084   -8.0029    0.8799 H   0  0  0  0  0  0  0  0  0  0  0  0
    2.6478   -8.4473    3.6307 H   0  0  0  0  0  0  0  0  0  0  0  0
    1.3741   -7.0999    1.9211 H   0  0  0  0  0  0  0  0  0  0  0  0
    1.6004   -6.3526    3.4853 H   0  0  0  0  0  0  0  0  0  0  0  0
    2.1269   -4.8635    1.5954 H   0  0  0  0  0  0  0  0  0  0  0  0
    3.7269   -3.4811    4.4132 H   0  0  0  0  0  0  0  0  0  0  0  0
    3.1644   -5.0793    4.8135 H   0  0  0  0  0  0  0  0  0  0  0  0
    2.1423   -4.0438    3.8841 H   0  0  0  0  0  0  0  0  0  0  0  0
    5.3541   -5.5813    4.0704 H   0  0  0  0  0  0  0  0  0  0  0  0
    6.5778   -7.1266    2.7143 H   0  0  0  0  0  0  0  0  0  0  0  0
    5.5319   -6.8821    1.3510 H   0  0  0  0  0  0  0  0  0  0  0  0
    7.0063   -4.6579    2.7082 H   0  0  0  0  0  0  0  0  0  0  0  0
    7.9006   -6.0237    0.1420 H   0  0  0  0  0  0  0  0  0  0  0  0
    8.4986   -6.4002    1.7471 H   0  0  0  0  0  0  0  0  0  0  0  0
    8.7706   -4.8198    1.1197 H   0  0  0  0  0  0  0  0  0  0  0  0
    5.9026   -5.3243   -0.7507 H   0  0  0  0  0  0  0  0  0  0  0  0
    4.3255   -5.4470   -0.0871 H   0  0  0  0  0  0  0  0  0  0  0  0
    4.5407   -3.7608   -2.0769 H   0  0  0  0  0  0  0  0  0  0  0  0
    7.3015   -3.8560   -2.1608 H   0  0  0  0  0  0  0  0  0  0  0  0
    7.8278   -2.2335   -2.0602 H   0  0  0  0  0  0  0  0  0  0  0  0
    6.4277   -2.6791   -3.0576 H   0  0  0  0  0  0  0  0  0  0  0  0
    4.2506    0.1079   -1.3783 H   0  0  0  0  0  0  0  0  0  0  0  0
    1.6467   -3.3703    1.7511 H   0  0  0  0  0  0  0  0  0  0  0  0
    1.6212   -1.7016    1.2659 H   0  0  0  0  0  0  0  0  0  0  0  0
    2.2042   -2.1287    2.8266 H   0  0  0  0  0  0  0  0  0  0  0  0
    5.0772   -3.1979    2.7154 H   0  0  0  0  0  0  0  0  0  0  0  0
    2.1685   -4.6242   -0.4268 H   0  0  0  0  0  0  0  0  0  0  0  0
    2.2989   -3.7788   -1.9632 H   0  0  0  0  0  0  0  0  0  0  0  0
    1.4078   -3.0497   -0.6958 H   0  0  0  0  0  0  0  0  0  0  0  0
    7.6047   -3.3989    0.0985 H   0  0  0  0  0  0  0  0  0  0  0  0
    6.2284   -1.5313    1.5785 H   0  0  0  0  0  0  0  0  0  0  0  0
  1  2  1  0
  1 30  1  0
  1 31  1  0
  1 32  1  0
  2 29  1  0
  2  3  1  0
  2 33  1  1
  3  4  1  0
  3 34  1  0
  3 35  1  0
  4  5  1  0
  4 36  1  0
  5 23  1  0
  5  6  1  1
  5  7  1  0
  6 37  1  0
  6 38  1  0
  6 39  1  0
  7  8  1  0
  7 29  1  0
  7 40  1  1
  8  9  1  0
  8 41  1  0
  8 42  1  0
  9 10  1  0
  9 11  1  0
  9 43  1  1
 10 44  1  0
 10 45  1  0
 10 46  1  0
 11 23  1  0
 11 27  1  0
 11 12  1  6
 12 13  1  0
 12 47  1  0
 12 48  1  0
 13 24  1  0
 13 14  1  0
 13 49  1  6
 14 15  1  6
 14 16  1  0
 14 27  1  0
 15 50  1  0
 15 51  1  0
 15 52  1  0
 16 17  1  0
 17 26  1  0
 17 18  1  0
 17 53  1  6
 18 19  1  0
 19 20  2  0
 19 21  1  0
 21 22  1  1
 21 23  1  0
 21 24  1  0
 22 54  1  0
 22 55  1  0
 22 56  1  0
 23 57  1  1
 24 25  1  1
 24 26  1  0
 25 58  1  0
 25 59  1  0
 25 60  1  0
 27 28  1  0
 27 61  1  6
 28 62  1  0
M  END
>  <i_m_ct_stereo_status>  (88) 
1

>  <s_m_source_file>  (88) 
/var/tmp/pbs.5076255.sched01/tmpikn618da/06v91y69d.sdf

>  <i_m_source_file_index>  (88) 
40

>  <i_lp_mmshare_version>  (88) 
48012

>  <i_f3d_flags>  (88) 
0

>  <s_epik_input>  (88) 
W05IXTFbQ0gyXVtDQEBIXShbQ0gzXSlPW0NAQEhdKFtDSDJdW0NASF0yW0NIM10pW0NAQF0xKFtDSDNdKVtDQEBIXShbQ0BAXTIzNClbQ0BdNShbQ0gzXSlbQ0BdNihbQ0gzXSlbQ0BIXShbQ0gyXTMpW0NAXShbQ0gzXSkoW0NASF00W09IXSlPW0NAQEhdKE82KU9DNT1P

>  <s_epik_cmdline>  (88) 
J2VwaWtfcHl0aG9uJywgJy1waHQnLCAnMi4wJywgJy1waCcsICc3LjAnLCAnLXRuJywgJzgnLCAnLW1hJywgJzIwMCcsICctaW1hZScsICc8aW5maWxlLm1hZT4nLCAnLW9tYWUnLCAnPG91dGZpbGUubWFlPic=

>  <r_epik_Ionization_Penalty>  (88) 
1.99845

>  <r_epik_Ionization_Penalty_Charging>  (88) 
0

>  <r_epik_Ionization_Penalty_Neutral>  (88) 
1.99845

>  <r_epik_State_Penalty>  (88) 
2.12703

>  <r_epik_Charging_Adjusted_Penalty>  (88) 
2.12703

>  <i_epik_Tot_Q>  (88) 
0

>  <i_epik_Tot_abs_Q>  (88) 
0

>  <s_epik_Chemistry_Notes>  (88) 
This compound has an ester and may undergo hydrolysis at high or low pH. This compound contains an acetal/aminal-like group ( X-CH(R)-Y where X, Y are N, S, or O) that may be acid/base labile, releasing an aldehyde.

>  <s_lp_Force_Field>  (88) 
OPLS3e

>  <r_lp_Energy>  (88) 
88.1669

>  <b_lp_Chiralities_Consistent>  (88) 
1

>  <s_lp_Variant>  (88) 
24:0-2

>  <s_i_glide_gridfile>  (88) 
pfpi4k_grid

>  <i_i_glide_lignum>  (88) 
40

>  <i_i_glide_rotatable_bonds>  (88) 
1

>  <r_i_docking_score>  (88) 
-2.49779

>  <r_i_glide_ligand_efficiency>  (88) 
-0.0861305

>  <r_i_glide_ligand_efficiency_sa>  (88) 
-0.26462

>  <r_i_glide_ligand_efficiency_ln>  (88) 
-0.57193

>  <r_i_glide_gscore>  (88) 
-2.49779

>  <r_i_glide_lipo>  (88) 
-0.408379

>  <r_i_glide_hbond>  (88) 
-0.041311

>  <r_i_glide_metal>  (88) 
-0

>  <r_i_glide_rewards>  (88) 
-0.640897

>  <r_i_glide_evdw>  (88) 
-23.3483

>  <r_i_glide_ecoul>  (88) 
-1.35121

>  <r_i_glide_erotb>  (88) 
0

>  <r_i_glide_esite>  (88) 
-0.0371022

>  <r_i_glide_emodel>  (88) 
-28.8105

>  <r_i_glide_energy>  (88) 
-24.6995

>  <r_i_glide_einternal>  (88) 
0.00497569

>  <r_i_glide_intrahb_reward>  (88) 
-0

>  <i_i_glide_confnum>  (88) 
2

>  <i_i_glide_posenum>  (88) 
18

>  <r_i_glide_eff_state_penalty>  (88) 
0

>  <ligand_id>  (88) 
24

>  <original_smiles>  (88) 
CC1CNC2(C)C(CC(C)C34CC5C(C)(OC6OC(=O)C(C)(C23)C5(C)O6)C4O)O1

>  <smiles>  (88) 
[H]OC1([H])C2(C([H])([H])[H])OC3([H])OC(=O)C4(C([H])([H])[H])C5([H])C6(C([H])([H])[H])N([H])C([H])([H])C([H])(C([H])([H])[H])OC6([H])C([H])([H])C([H])(C([H])([H])[H])C15C([H])([H])C2([H])C4(C([H])([H])[H])O3

$$$$
24:1:2
     RDKit          3D

 62 67  0  0  1  0  0  0  0  0999 V2000
    3.6400   -8.6069    1.7703 C   0  0  0  0  0  0  0  0  0  0  0  0
    3.1524   -7.7506    2.9588 C   0  0  2  0  0  0  0  0  0  0  0  0
    2.1270   -6.6754    2.5826 C   0  0  0  0  0  0  0  0  0  0  0  0
    2.7987   -5.5584    1.9137 N   0  0  0  0  0  0  0  0  0  0  0  0
    3.8401   -4.8974    2.7122 C   0  0  1  0  0  0  0  0  0  0  0  0
    3.1892   -4.3395    4.0127 C   0  0  0  0  0  0  0  0  0  0  0  0
    4.8364   -5.9956    3.2100 C   0  0  2  0  0  0  0  0  0  0  0  0
    5.9303   -6.3922    2.2320 C   0  0  0  0  0  0  0  0  0  0  0  0
    6.7059   -5.1669    1.7928 C   0  0  1  0  0  0  0  0  0  0  0  0
    8.0313   -5.6201    1.1417 C   0  0  0  0  0  0  0  0  0  0  0  0
    5.7812   -4.1718    1.0130 C   0  0  1  0  0  0  0  0  0  0  0  0
    5.1505   -4.7573   -0.2417 C   0  0  0  0  0  0  0  0  0  0  0  0
    4.7615   -3.5170   -1.0365 C   0  0  2  0  0  0  0  0  0  0  0  0
    5.9827   -2.6087   -0.9542 C   0  0  1  0  0  0  0  0  0  0  0  0
    6.9326   -2.8504   -2.1191 C   0  0  0  0  0  0  0  0  0  0  0  0
    5.6770   -1.2260   -1.1221 O   0  0  0  0  0  0  0  0  0  0  0  0
    4.4322   -0.7684   -0.7446 C   0  0  2  0  0  0  0  0  0  0  0  0
    4.4099   -0.2963    0.5494 O   0  0  0  0  0  0  0  0  0  0  0  0
    4.1833   -1.1776    1.5519 C   0  0  0  0  0  0  0  0  0  0  0  0
    4.3220   -0.8958    2.7365 O   0  0  0  0  0  0  0  0  0  0  0  0
    3.6373   -2.5920    1.1904 C   0  0  2  0  0  0  0  0  0  0  0  0
    2.2166   -2.4548    1.7912 C   0  0  0  0  0  0  0  0  0  0  0  0
    4.5593   -3.7092    1.9093 C   0  0  1  0  0  0  0  0  0  0  0  0
    3.5393   -2.8604   -0.3741 C   0  0  2  0  0  0  0  0  0  0  0  0
    2.3022   -3.6408   -0.8768 C   0  0  0  0  0  0  0  0  0  0  0  0
    3.4235   -1.6451   -1.0555 O   0  0  0  0  0  0  0  0  0  0  0  0
    6.6377   -3.0219    0.3626 C   0  0  1  0  0  0  0  0  0  0  0  0
    6.9009   -1.9123    1.1716 O   0  0  0  0  0  0  0  0  0  0  0  0
    4.2034   -7.1718    3.7295 O   0  0  0  0  0  0  0  0  0  0  0  0
    2.9123   -9.3746    1.4951 H   0  0  0  0  0  0  0  0  0  0  0  0
    4.5682   -9.1232    2.0192 H   0  0  0  0  0  0  0  0  0  0  0  0
    3.8088   -8.0060    0.8795 H   0  0  0  0  0  0  0  0  0  0  0  0
    2.6526   -8.4461    3.6325 H   0  0  0  0  0  0  0  0  0  0  0  0
    1.3779   -7.1030    1.9175 H   0  0  0  0  0  0  0  0  0  0  0  0
    1.6008   -6.3557    3.4834 H   0  0  0  0  0  0  0  0  0  0  0  0
    2.1298   -4.8625    1.5997 H   0  0  0  0  0  0  0  0  0  0  0  0
    3.7285   -3.4850    4.4143 H   0  0  0  0  0  0  0  0  0  0  0  0
    3.1660   -5.0809    4.8138 H   0  0  0  0  0  0  0  0  0  0  0  0
    2.1469   -4.0448    3.8858 H   0  0  0  0  0  0  0  0  0  0  0  0
    5.3578   -5.5807    4.0705 H   0  0  0  0  0  0  0  0  0  0  0  0
    6.5794   -7.1237    2.7129 H   0  0  0  0  0  0  0  0  0  0  0  0
    5.5348   -6.8810    1.3558 H   0  0  0  0  0  0  0  0  0  0  0  0
    7.0079   -4.6550    2.7026 H   0  0  0  0  0  0  0  0  0  0  0  0
    7.9032   -6.0227    0.1425 H   0  0  0  0  0  0  0  0  0  0  0  0
    8.5006   -6.4011    1.7440 H   0  0  0  0  0  0  0  0  0  0  0  0
    8.7744   -4.8226    1.1182 H   0  0  0  0  0  0  0  0  0  0  0  0
    5.8963   -5.3356   -0.7452 H   0  0  0  0  0  0  0  0  0  0  0  0
    4.3283   -5.4466   -0.0849 H   0  0  0  0  0  0  0  0  0  0  0  0
    4.5382   -3.7668   -2.0806 H   0  0  0  0  0  0  0  0  0  0  0  0
    7.2945   -3.8549   -2.1655 H   0  0  0  0  0  0  0  0  0  0  0  0
    7.8284   -2.2427   -2.0655 H   0  0  0  0  0  0  0  0  0  0  0  0
    6.4314   -2.6611   -3.0630 H   0  0  0  0  0  0  0  0  0  0  0  0
    4.2558    0.1034   -1.3707 H   0  0  0  0  0  0  0  0  0  0  0  0
    1.6511   -3.3696    1.7523 H   0  0  0  0  0  0  0  0  0  0  0  0
    1.6300   -1.7019    1.2694 H   0  0  0  0  0  0  0  0  0  0  0  0
    2.2080   -2.1318    2.8272 H   0  0  0  0  0  0  0  0  0  0  0  0
    5.0846   -3.1946    2.7099 H   0  0  0  0  0  0  0  0  0  0  0  0
    2.1734   -4.6226   -0.4239 H   0  0  0  0  0  0  0  0  0  0  0  0
    2.3045   -3.7806   -1.9623 H   0  0  0  0  0  0  0  0  0  0  0  0
    1.4082   -3.0776   -0.6945 H   0  0  0  0  0  0  0  0  0  0  0  0
    7.6216   -3.3830    0.1063 H   0  0  0  0  0  0  0  0  0  0  0  0
    7.6160   -1.4103    0.8148 H   0  0  0  0  0  0  0  0  0  0  0  0
  1  2  1  0
  1 30  1  0
  1 31  1  0
  1 32  1  0
  2 29  1  0
  2  3  1  0
  2 33  1  1
  3  4  1  0
  3 34  1  0
  3 35  1  0
  4  5  1  0
  4 36  1  0
  5 23  1  0
  5  6  1  1
  5  7  1  0
  6 37  1  0
  6 38  1  0
  6 39  1  0
  7  8  1  0
  7 29  1  0
  7 40  1  1
  8  9  1  0
  8 41  1  0
  8 42  1  0
  9 10  1  0
  9 11  1  0
  9 43  1  1
 10 44  1  0
 10 45  1  0
 10 46  1  0
 11 23  1  0
 11 27  1  0
 11 12  1  6
 12 13  1  0
 12 47  1  0
 12 48  1  0
 13 24  1  0
 13 14  1  0
 13 49  1  6
 14 15  1  6
 14 16  1  0
 14 27  1  0
 15 50  1  0
 15 51  1  0
 15 52  1  0
 16 17  1  0
 17 26  1  0
 17 18  1  0
 17 53  1  6
 18 19  1  0
 19 20  2  0
 19 21  1  0
 21 22  1  1
 21 23  1  0
 21 24  1  0
 22 54  1  0
 22 55  1  0
 22 56  1  0
 23 57  1  1
 24 25  1  1
 24 26  1  0
 25 58  1  0
 25 59  1  0
 25 60  1  0
 27 28  1  0
 27 61  1  6
 28 62  1  0
M  END
>  <i_m_ct_stereo_status>  (89) 
1

>  <s_m_source_file>  (89) 
/var/tmp/pbs.5076255.sched01/tmpikn618da/06v91y69d.sdf

>  <i_m_source_file_index>  (89) 
40

>  <i_lp_mmshare_version>  (89) 
48012

>  <i_f3d_flags>  (89) 
0

>  <s_epik_input>  (89) 
W05IXTFbQ0gyXVtDQEBIXShbQ0gzXSlPW0NAQEhdKFtDSDJdW0NASF0yW0NIM10pW0NAQF0xKFtDSDNdKVtDQEBIXShbQ0BAXTIzNClbQ0BdNShbQ0gzXSlbQ0BdNihbQ0gzXSlbQ0BIXShbQ0gyXTMpW0NAXShbQ0gzXSkoW0NASF00W09IXSlPW0NAQEhdKE82KU9DNT1P

>  <s_epik_cmdline>  (89) 
J2VwaWtfcHl0aG9uJywgJy1waHQnLCAnMi4wJywgJy1waCcsICc3LjAnLCAnLXRuJywgJzgnLCAnLW1hJywgJzIwMCcsICctaW1hZScsICc8aW5maWxlLm1hZT4nLCAnLW9tYWUnLCAnPG91dGZpbGUubWFlPic=

>  <r_epik_Ionization_Penalty>  (89) 
1.99845

>  <r_epik_Ionization_Penalty_Charging>  (89) 
0

>  <r_epik_Ionization_Penalty_Neutral>  (89) 
1.99845

>  <r_epik_State_Penalty>  (89) 
2.12703

>  <r_epik_Charging_Adjusted_Penalty>  (89) 
2.12703

>  <i_epik_Tot_Q>  (89) 
0

>  <i_epik_Tot_abs_Q>  (89) 
0

>  <s_epik_Chemistry_Notes>  (89) 
This compound has an ester and may undergo hydrolysis at high or low pH. This compound contains an acetal/aminal-like group ( X-CH(R)-Y where X, Y are N, S, or O) that may be acid/base labile, releasing an aldehyde.

>  <s_lp_Force_Field>  (89) 
OPLS3e

>  <r_lp_Energy>  (89) 
88.1669

>  <b_lp_Chiralities_Consistent>  (89) 
1

>  <s_lp_Variant>  (89) 
24:0-2

>  <s_i_glide_gridfile>  (89) 
pfpi4k_grid

>  <i_i_glide_lignum>  (89) 
40

>  <i_i_glide_rotatable_bonds>  (89) 
1

>  <r_i_docking_score>  (89) 
-2.46686

>  <r_i_glide_ligand_efficiency>  (89) 
-0.0850643

>  <r_i_glide_ligand_efficiency_sa>  (89) 
-0.261344

>  <r_i_glide_ligand_efficiency_ln>  (89) 
-0.564849

>  <r_i_glide_gscore>  (89) 
-2.46686

>  <r_i_glide_lipo>  (89) 
-0.407298

>  <r_i_glide_hbond>  (89) 
-0.0404227

>  <r_i_glide_metal>  (89) 
-0

>  <r_i_glide_rewards>  (89) 
-0.644739

>  <r_i_glide_evdw>  (89) 
-24.2821

>  <r_i_glide_ecoul>  (89) 
-0.821206

>  <r_i_glide_erotb>  (89) 
0

>  <r_i_glide_esite>  (89) 
-0.0371178

>  <r_i_glide_emodel>  (89) 
-27.9376

>  <r_i_glide_energy>  (89) 
-25.1033

>  <r_i_glide_einternal>  (89) 
0.353296

>  <r_i_glide_intrahb_reward>  (89) 
-0

>  <i_i_glide_confnum>  (89) 
2

>  <i_i_glide_posenum>  (89) 
31

>  <r_i_glide_eff_state_penalty>  (89) 
0

>  <ligand_id>  (89) 
24

>  <original_smiles>  (89) 
CC1CNC2(C)C(CC(C)C34CC5C(C)(OC6OC(=O)C(C)(C23)C5(C)O6)C4O)O1

>  <smiles>  (89) 
[H]OC1([H])C2(C([H])([H])[H])OC3([H])OC(=O)C4(C([H])([H])[H])C5([H])C6(C([H])([H])[H])N([H])C([H])([H])C([H])(C([H])([H])[H])OC6([H])C([H])([H])C([H])(C([H])([H])[H])C15C([H])([H])C2([H])C4(C([H])([H])[H])O3

$$$$
25:0:0
     RDKit          3D

 62 66  0  0  1  0  0  0  0  0999 V2000
    7.1987   -2.3992   -0.9543 O   0  0  0  0  0  0  0  0  0  0  0  0
    6.1300   -2.9787   -0.7480 C   0  0  0  0  0  0  0  0  0  0  0  0
    4.8904   -2.5752   -1.5724 C   0  0  0  0  0  0  0  0  0  0  0  0
    4.8718   -3.3646   -2.9017 C   0  0  0  0  0  0  0  0  0  0  0  0
    3.6791   -2.9615   -3.7794 C   0  0  0  0  0  0  0  0  0  0  0  0
    3.6786   -1.4509   -4.0430 C   0  0  0  0  0  0  0  0  0  0  0  0
    3.6887   -0.6641   -2.7311 C   0  0  0  0  0  0  0  0  0  0  0  0
    4.8657   -1.0562   -1.8371 C   0  0  0  0  0  0  0  0  0  0  0  0
    6.0231   -3.9691    0.1555 N   0  0  0  0  0  0  0  0  0  0  0  0
    7.1676   -4.5141    0.8810 C   0  0  0  0  0  0  0  0  0  0  0  0
    6.6002   -5.4420    1.9371 C   0  0  0  0  0  0  0  0  0  0  0  0
    5.2379   -5.8658    1.3875 C   0  0  1  0  0  0  0  0  0  0  0  0
    4.2275   -6.2934    2.4837 C   0  0  0  0  0  0  0  0  0  0  0  0
    4.2594   -7.7308    2.7292 N   0  0  0  0  0  0  0  0  0  0  0  0
    3.5061   -8.2397    3.8804 C   0  0  2  0  0  0  0  0  0  0  0  0
    3.5481   -9.7886    3.9228 C   0  0  2  0  0  0  0  0  0  0  0  0
    2.8827  -10.3605    2.6523 C   0  0  0  0  0  0  0  0  0  0  0  0
    1.4104   -9.8885    2.5967 C   0  0  1  0  0  0  0  0  0  0  0  0
    0.6652  -10.4361    3.8282 C   0  0  0  0  0  0  0  0  0  0  0  0
    1.3313   -9.8950    5.1121 C   0  0  1  0  0  0  0  0  0  0  0  0
    2.8132  -10.3285    5.1675 C   0  0  0  0  0  0  0  0  0  0  0  0
    1.2680   -8.3560    5.1128 C   0  0  0  0  0  0  0  0  0  0  0  0
    2.0124   -7.8028    3.8725 C   0  0  2  0  0  0  0  0  0  0  0  0
    1.3289   -8.3498    2.5934 C   0  0  0  0  0  0  0  0  0  0  0  0
    4.7989   -4.6563    0.5564 C   0  0  0  0  0  0  0  0  0  0  0  0
    3.9758   -2.7910   -1.0261 H   0  0  0  0  0  0  0  0  0  0  0  0
    5.8013   -3.2030   -3.4490 H   0  0  0  0  0  0  0  0  0  0  0  0
    4.8226   -4.4367   -2.7018 H   0  0  0  0  0  0  0  0  0  0  0  0
    3.7107   -3.5066   -4.7204 H   0  0  0  0  0  0  0  0  0  0  0  0
    2.7474   -3.2510   -3.2873 H   0  0  0  0  0  0  0  0  0  0  0  0
    4.5478   -1.1754   -4.6385 H   0  0  0  0  0  0  0  0  0  0  0  0
    2.7995   -1.1733   -4.6259 H   0  0  0  0  0  0  0  0  0  0  0  0
    3.7517    0.4016   -2.9515 H   0  0  0  0  0  0  0  0  0  0  0  0
    2.7485   -0.8252   -2.1989 H   0  0  0  0  0  0  0  0  0  0  0  0
    4.8094   -0.5109   -0.8902 H   0  0  0  0  0  0  0  0  0  0  0  0
    5.7853   -0.7391   -2.3158 H   0  0  0  0  0  0  0  0  0  0  0  0
    7.7980   -5.0693    0.1786 H   0  0  0  0  0  0  0  0  0  0  0  0
    7.7682   -3.7221    1.3375 H   0  0  0  0  0  0  0  0  0  0  0  0
    7.2525   -6.2913    2.1560 H   0  0  0  0  0  0  0  0  0  0  0  0
    6.4672   -4.8762    2.8655 H   0  0  0  0  0  0  0  0  0  0  0  0
    5.3891   -6.6802    0.6723 H   0  0  0  0  0  0  0  0  0  0  0  0
    4.4121   -5.7464    3.4121 H   0  0  0  0  0  0  0  0  0  0  0  0
    3.2202   -6.0102    2.1636 H   0  0  0  0  0  0  0  0  0  0  0  0
    3.8713   -8.1908    1.9115 H   0  0  0  0  0  0  0  0  0  0  0  0
    3.9777   -7.8483    4.7880 H   0  0  0  0  0  0  0  0  0  0  0  0
    4.5905  -10.1276    3.9696 H   0  0  0  0  0  0  0  0  0  0  0  0
    3.4051  -10.0510    1.7440 H   0  0  0  0  0  0  0  0  0  0  0  0
    2.9331  -11.4526    2.6491 H   0  0  0  0  0  0  0  0  0  0  0  0
    0.9437  -10.2639    1.6844 H   0  0  0  0  0  0  0  0  0  0  0  0
   -0.3808  -10.1276    3.7934 H   0  0  0  0  0  0  0  0  0  0  0  0
    0.6678  -11.5274    3.8272 H   0  0  0  0  0  0  0  0  0  0  0  0
    0.8047  -10.2914    5.9871 H   0  0  0  0  0  0  0  0  0  0  0  0
    2.8771  -11.4162    5.2229 H   0  0  0  0  0  0  0  0  0  0  0  0
    3.2756   -9.9471    6.0827 H   0  0  0  0  0  0  0  0  0  0  0  0
    0.2246   -8.0358    5.1003 H   0  0  0  0  0  0  0  0  0  0  0  0
    1.7023   -7.9632    6.0361 H   0  0  0  0  0  0  0  0  0  0  0  0
    1.9304   -6.7151    3.9060 H   0  0  0  0  0  0  0  0  0  0  0  0
    1.7994   -7.9589    1.6895 H   0  0  0  0  0  0  0  0  0  0  0  0
    0.2870   -8.0248    2.5532 H   0  0  0  0  0  0  0  0  0  0  0  0
    4.1879   -3.9651    1.1486 H   0  0  0  0  0  0  0  0  0  0  0  0
    4.2071   -4.9889   -0.3035 H   0  0  0  0  0  0  0  0  0  0  0  0
    5.2258   -8.0380    2.8125 H   0  0  0  0  0  0  0  0  0  0  0  0
  1  2  2  0
  2  3  1  0
  2  9  1  0
  3  8  1  0
  3  4  1  0
  3 26  1  0
  4  5  1  0
  4 27  1  0
  4 28  1  0
  5  6  1  0
  5 29  1  0
  5 30  1  0
  6  7  1  0
  6 31  1  0
  6 32  1  0
  7  8  1  0
  7 33  1  0
  7 34  1  0
  8 35  1  0
  8 36  1  0
  9 25  1  0
  9 10  1  0
 10 11  1  0
 10 37  1  0
 10 38  1  0
 11 12  1  0
 11 39  1  0
 11 40  1  0
 12 13  1  0
 12 25  1  0
 12 41  1  6
 13 14  1  0
 13 42  1  0
 13 43  1  0
 14 15  1  0
 14 44  1  0
 14 62  1  0
 15 23  1  0
 15 16  1  0
 15 45  1  1
 16 21  1  0
 16 17  1  0
 16 46  1  1
 17 18  1  0
 17 47  1  0
 17 48  1  0
 18 24  1  0
 18 19  1  0
 18 49  1  6
 19 20  1  0
 19 50  1  0
 19 51  1  0
 20 21  1  0
 20 22  1  0
 20 52  1  1
 21 53  1  0
 21 54  1  0
 22 23  1  0
 22 55  1  0
 22 56  1  0
 23 24  1  0
 23 57  1  6
 24 58  1  0
 24 59  1  0
 25 60  1  0
 25 61  1  0
M  CHG  1  14   1
M  END
>  <i_m_ct_stereo_status>  (90) 
1

>  <s_m_source_file>  (90) 
/var/tmp/pbs.5076255.sched01/tmpikn618da/06v91y69d.sdf

>  <i_m_source_file_index>  (90) 
41

>  <i_lp_mmshare_version>  (90) 
48012

>  <i_f3d_flags>  (90) 
0

>  <s_epik_input>  (90) 
W0NIMl0xW0NIMl1bQ0gyXVtDSDJdW0NIMl1bQ0hdMUMoPU8pTjJbQ0gyXVtDSDJdW0NASF0oW0NIMl0yKVtDSDJdW05IXVtDQEhdKFtDQEBIXTM0KVtDQEhdNVtDSDJdW0NAQEhdKFtDSDJdNClbQ0gyXVtDQEBIXShbQ0gyXTMpW0NIMl01

>  <s_epik_cmdline>  (90) 
J2VwaWtfcHl0aG9uJywgJy1waHQnLCAnMi4wJywgJy1waCcsICc3LjAnLCAnLXRuJywgJzgnLCAnLW1hJywgJzIwMCcsICctaW1hZScsICc8aW5maWxlLm1hZT4nLCAnLW9tYWUnLCAnPG91dGZpbGUubWFlPic=

>  <r_lp_tautomer_probability>  (90) 
1

>  <r_epik_Ionization_Penalty>  (90) 
0.000161598

>  <r_epik_Ionization_Penalty_Charging>  (90) 
0.000161535

>  <r_epik_Ionization_Penalty_Neutral>  (90) 
6.32165e-08

>  <r_epik_State_Penalty>  (90) 
-0

>  <r_epik_Charging_Adjusted_Penalty>  (90) 
0.000161535

>  <i_epik_Tot_Q>  (90) 
1

>  <i_epik_Tot_abs_Q>  (90) 
1

>  <s_lp_Force_Field>  (90) 
OPLS3e

>  <r_lp_Energy>  (90) 
26.1033

>  <b_lp_Chiralities_Consistent>  (90) 
1

>  <s_lp_Variant>  (90) 
25:0-1

>  <s_i_glide_gridfile>  (90) 
pfpi4k_grid

>  <i_i_glide_lignum>  (90) 
41

>  <i_i_glide_rotatable_bonds>  (90) 
5

>  <r_i_docking_score>  (90) 
-3.73336

>  <r_i_glide_ligand_efficiency>  (90) 
-0.149334

>  <r_i_glide_ligand_efficiency_sa>  (90) 
-0.436656

>  <r_i_glide_ligand_efficiency_ln>  (90) 
-0.884917

>  <r_i_glide_gscore>  (90) 
-3.73336

>  <r_i_glide_lipo>  (90) 
-0.772904

>  <r_i_glide_hbond>  (90) 
-0.16

>  <r_i_glide_metal>  (90) 
-0

>  <r_i_glide_rewards>  (90) 
-1.19463

>  <r_i_glide_evdw>  (90) 
-34.8882

>  <r_i_glide_ecoul>  (90) 
-4.37374

>  <r_i_glide_erotb>  (90) 
0.795695

>  <r_i_glide_esite>  (90) 
-0.00104102

>  <r_i_glide_emodel>  (90) 
-47.4033

>  <r_i_glide_energy>  (90) 
-39.262

>  <r_i_glide_einternal>  (90) 
2.91868

>  <r_i_glide_intrahb_reward>  (90) 
-0

>  <i_i_glide_confnum>  (90) 
5

>  <i_i_glide_posenum>  (90) 
1

>  <r_i_glide_eff_state_penalty>  (90) 
0

>  <ligand_id>  (90) 
25

>  <original_smiles>  (90) 
O=C(C1CCCCC1)N1CCC(CNC2C3CC4CC(C3)CC2C4)C1

>  <smiles>  (90) 
[H]C1([H])N(C(=O)C2([H])C([H])([H])C([H])([H])C([H])([H])C([H])([H])C2([H])[H])C([H])([H])C([H])(C([H])([H])[N+]([H])([H])C2([H])C3([H])C([H])([H])C4([H])C([H])([H])C([H])(C3([H])[H])C([H])([H])C2([H])C4([H])[H])C1([H])[H]

$$$$
25:0:1
     RDKit          3D

 62 66  0  0  1  0  0  0  0  0999 V2000
    8.2277   -3.3008   -0.0653 O   0  0  0  0  0  0  0  0  0  0  0  0
    7.1561   -3.8524    0.1761 C   0  0  0  0  0  0  0  0  0  0  0  0
    5.8480   -3.1910   -0.3193 C   0  0  0  0  0  0  0  0  0  0  0  0
    5.7839   -3.2044   -1.8624 C   0  0  0  0  0  0  0  0  0  0  0  0
    4.5072   -2.5280   -2.3739 C   0  0  0  0  0  0  0  0  0  0  0  0
    4.3860   -1.0982   -1.8296 C   0  0  0  0  0  0  0  0  0  0  0  0
    4.4468   -1.0764   -0.2939 C   0  0  0  0  0  0  0  0  0  0  0  0
    5.7242   -1.7515    0.2237 C   0  0  0  0  0  0  0  0  0  0  0  0
    7.1022   -5.0056    0.8599 N   0  0  0  0  0  0  0  0  0  0  0  0
    8.2807   -5.6608    1.4225 C   0  0  0  0  0  0  0  0  0  0  0  0
    7.7722   -6.7788    2.3017 C   0  0  0  0  0  0  0  0  0  0  0  0
    6.4028   -7.1264    1.7223 C   0  0  1  0  0  0  0  0  0  0  0  0
    5.4156   -7.7950    2.7087 C   0  0  0  0  0  0  0  0  0  0  0  0
    4.1999   -8.2609    2.0666 N   0  0  0  0  0  0  0  0  0  0  0  0
    3.2227   -8.9757    2.8800 C   0  0  2  0  0  0  0  0  0  0  0  0
    1.8982   -9.2057    2.1081 C   0  0  2  0  0  0  0  0  0  0  0  0
    1.2558   -7.8451    1.7435 C   0  0  0  0  0  0  0  0  0  0  0  0
    0.9461   -7.0693    3.0470 C   0  0  1  0  0  0  0  0  0  0  0  0
   -0.0577   -7.8857    3.8849 C   0  0  0  0  0  0  0  0  0  0  0  0
    0.5560   -9.2591    4.2316 C   0  0  1  0  0  0  0  0  0  0  0  0
    0.8974  -10.0328    2.9376 C   0  0  0  0  0  0  0  0  0  0  0  0
    1.8502   -9.0586    5.0389 C   0  0  0  0  0  0  0  0  0  0  0  0
    2.8619   -8.2396    4.2039 C   0  0  2  0  0  0  0  0  0  0  0  0
    2.2362   -6.8577    3.8670 C   0  0  0  0  0  0  0  0  0  0  0  0
    5.9103   -5.7901    1.1589 C   0  0  0  0  0  0  0  0  0  0  0  0
    4.9641   -3.7082    0.0373 H   0  0  0  0  0  0  0  0  0  0  0  0
    6.6618   -2.7134   -2.2877 H   0  0  0  0  0  0  0  0  0  0  0  0
    5.8022   -4.2323   -2.2248 H   0  0  0  0  0  0  0  0  0  0  0  0
    4.5081   -2.5199   -3.4629 H   0  0  0  0  0  0  0  0  0  0  0  0
    3.6350   -3.1130   -2.0715 H   0  0  0  0  0  0  0  0  0  0  0  0
    5.1890   -0.4842   -2.2343 H   0  0  0  0  0  0  0  0  0  0  0  0
    3.4504   -0.6549   -2.1690 H   0  0  0  0  0  0  0  0  0  0  0  0
    4.4060   -0.0505    0.0707 H   0  0  0  0  0  0  0  0  0  0  0  0
    3.5666   -1.5821    0.1116 H   0  0  0  0  0  0  0  0  0  0  0  0
    5.7089   -1.7718    1.3164 H   0  0  0  0  0  0  0  0  0  0  0  0
    6.5946   -1.1582   -0.0619 H   0  0  0  0  0  0  0  0  0  0  0  0
    8.8959   -6.0629    0.6085 H   0  0  0  0  0  0  0  0  0  0  0  0
    8.8934   -4.9656    2.0120 H   0  0  0  0  0  0  0  0  0  0  0  0
    8.4459   -7.6436    2.3211 H   0  0  0  0  0  0  0  0  0  0  0  0
    7.6594   -6.4180    3.3327 H   0  0  0  0  0  0  0  0  0  0  0  0
    6.5749   -7.8099    0.8843 H   0  0  0  0  0  0  0  0  0  0  0  0
    5.9066   -8.6265    3.2236 H   0  0  0  0  0  0  0  0  0  0  0  0
    5.1845   -7.0474    3.4789 H   0  0  0  0  0  0  0  0  0  0  0  0
    3.7137   -7.4484    1.6902 H   0  0  0  0  0  0  0  0  0  0  0  0
    3.6557   -9.9526    3.1378 H   0  0  0  0  0  0  0  0  0  0  0  0
    2.1121   -9.7693    1.1852 H   0  0  0  0  0  0  0  0  0  0  0  0
    1.9082   -7.2488    1.1018 H   0  0  0  0  0  0  0  0  0  0  0  0
    0.3356   -7.9851    1.1743 H   0  0  0  0  0  0  0  0  0  0  0  0
    0.5113   -6.0986    2.7951 H   0  0  0  0  0  0  0  0  0  0  0  0
   -0.2940   -7.3479    4.8047 H   0  0  0  0  0  0  0  0  0  0  0  0
   -0.9947   -8.0143    3.3425 H   0  0  0  0  0  0  0  0  0  0  0  0
   -0.1608   -9.8408    4.8232 H   0  0  0  0  0  0  0  0  0  0  0  0
   -0.0139  -10.2319    2.3733 H   0  0  0  0  0  0  0  0  0  0  0  0
    1.3240  -11.0085    3.1920 H   0  0  0  0  0  0  0  0  0  0  0  0
    1.6254   -8.5347    5.9693 H   0  0  0  0  0  0  0  0  0  0  0  0
    2.2715  -10.0280    5.3249 H   0  0  0  0  0  0  0  0  0  0  0  0
    3.7519   -8.1138    4.8269 H   0  0  0  0  0  0  0  0  0  0  0  0
    2.9315   -6.2302    3.3045 H   0  0  0  0  0  0  0  0  0  0  0  0
    2.0226   -6.3147    4.7907 H   0  0  0  0  0  0  0  0  0  0  0  0
    5.3162   -5.2358    1.8971 H   0  0  0  0  0  0  0  0  0  0  0  0
    5.2991   -5.9540    0.2630 H   0  0  0  0  0  0  0  0  0  0  0  0
    4.4399   -8.8519    1.2708 H   0  0  0  0  0  0  0  0  0  0  0  0
  1  2  2  0
  2  3  1  0
  2  9  1  0
  3  8  1  0
  3  4  1  0
  3 26  1  0
  4  5  1  0
  4 27  1  0
  4 28  1  0
  5  6  1  0
  5 29  1  0
  5 30  1  0
  6  7  1  0
  6 31  1  0
  6 32  1  0
  7  8  1  0
  7 33  1  0
  7 34  1  0
  8 35  1  0
  8 36  1  0
  9 25  1  0
  9 10  1  0
 10 11  1  0
 10 37  1  0
 10 38  1  0
 11 12  1  0
 11 39  1  0
 11 40  1  0
 12 13  1  0
 12 25  1  0
 12 41  1  6
 13 14  1  0
 13 42  1  0
 13 43  1  0
 14 15  1  0
 14 44  1  0
 14 62  1  0
 15 23  1  0
 15 16  1  0
 15 45  1  1
 16 21  1  0
 16 17  1  0
 16 46  1  6
 17 18  1  0
 17 47  1  0
 17 48  1  0
 18 24  1  0
 18 19  1  0
 18 49  1  6
 19 20  1  0
 19 50  1  0
 19 51  1  0
 20 21  1  0
 20 22  1  0
 20 52  1  1
 21 53  1  0
 21 54  1  0
 22 23  1  0
 22 55  1  0
 22 56  1  0
 23 24  1  0
 23 57  1  1
 24 58  1  0
 24 59  1  0
 25 60  1  0
 25 61  1  0
M  CHG  1  14   1
M  END
>  <i_m_ct_stereo_status>  (91) 
1

>  <s_m_source_file>  (91) 
/var/tmp/pbs.5076255.sched01/tmpikn618da/06v91y69d.sdf

>  <i_m_source_file_index>  (91) 
41

>  <i_lp_mmshare_version>  (91) 
48012

>  <i_f3d_flags>  (91) 
0

>  <s_epik_input>  (91) 
W0NIMl0xW0NIMl1bQ0gyXVtDSDJdW0NIMl1bQ0hdMUMoPU8pTjJbQ0gyXVtDSDJdW0NASF0oW0NIMl0yKVtDSDJdW05IXVtDQEhdKFtDQEBIXTM0KVtDQEhdNVtDSDJdW0NAQEhdKFtDSDJdNClbQ0gyXVtDQEBIXShbQ0gyXTMpW0NIMl01

>  <s_epik_cmdline>  (91) 
J2VwaWtfcHl0aG9uJywgJy1waHQnLCAnMi4wJywgJy1waCcsICc3LjAnLCAnLXRuJywgJzgnLCAnLW1hJywgJzIwMCcsICctaW1hZScsICc8aW5maWxlLm1hZT4nLCAnLW9tYWUnLCAnPG91dGZpbGUubWFlPic=

>  <r_lp_tautomer_probability>  (91) 
1

>  <r_epik_Ionization_Penalty>  (91) 
0.000161598

>  <r_epik_Ionization_Penalty_Charging>  (91) 
0.000161535

>  <r_epik_Ionization_Penalty_Neutral>  (91) 
6.32165e-08

>  <r_epik_State_Penalty>  (91) 
-0

>  <r_epik_Charging_Adjusted_Penalty>  (91) 
0.000161535

>  <i_epik_Tot_Q>  (91) 
1

>  <i_epik_Tot_abs_Q>  (91) 
1

>  <s_lp_Force_Field>  (91) 
OPLS3e

>  <r_lp_Energy>  (91) 
26.1033

>  <b_lp_Chiralities_Consistent>  (91) 
1

>  <s_lp_Variant>  (91) 
25:0-1

>  <s_i_glide_gridfile>  (91) 
pfpi4k_grid

>  <i_i_glide_lignum>  (91) 
41

>  <i_i_glide_rotatable_bonds>  (91) 
5

>  <r_i_docking_score>  (91) 
-3.2855

>  <r_i_glide_ligand_efficiency>  (91) 
-0.13142

>  <r_i_glide_ligand_efficiency_sa>  (91) 
-0.384274

>  <r_i_glide_ligand_efficiency_ln>  (91) 
-0.778762

>  <r_i_glide_gscore>  (91) 
-3.2855

>  <r_i_glide_lipo>  (91) 
-0.630977

>  <r_i_glide_hbond>  (91) 
0

>  <r_i_glide_metal>  (91) 
-0

>  <r_i_glide_rewards>  (91) 
-1.38475

>  <r_i_glide_evdw>  (91) 
-33.848

>  <r_i_glide_ecoul>  (91) 
-2.44577

>  <r_i_glide_erotb>  (91) 
0.795695

>  <r_i_glide_esite>  (91) 
-0.00620138

>  <r_i_glide_emodel>  (91) 
-44.3174

>  <r_i_glide_energy>  (91) 
-36.2938

>  <r_i_glide_einternal>  (91) 
0.83679

>  <r_i_glide_intrahb_reward>  (91) 
-0

>  <i_i_glide_confnum>  (91) 
1

>  <i_i_glide_posenum>  (91) 
11

>  <r_i_glide_eff_state_penalty>  (91) 
0

>  <ligand_id>  (91) 
25

>  <original_smiles>  (91) 
O=C(C1CCCCC1)N1CCC(CNC2C3CC4CC(C3)CC2C4)C1

>  <smiles>  (91) 
[H]C1([H])N(C(=O)C2([H])C([H])([H])C([H])([H])C([H])([H])C([H])([H])C2([H])[H])C([H])([H])C([H])(C([H])([H])[N+]([H])([H])C2([H])C3([H])C([H])([H])C4([H])C([H])([H])C([H])(C3([H])[H])C([H])([H])C2([H])C4([H])[H])C1([H])[H]

$$$$
25:0:2
     RDKit          3D

 62 66  0  0  1  0  0  0  0  0999 V2000
    6.6079   -1.1631    0.1109 O   0  0  0  0  0  0  0  0  0  0  0  0
    5.4431   -1.5447    0.2358 C   0  0  0  0  0  0  0  0  0  0  0  0
    4.7206   -2.1783   -0.9734 C   0  0  0  0  0  0  0  0  0  0  0  0
    5.7181   -2.8526   -1.9408 C   0  0  0  0  0  0  0  0  0  0  0  0
    5.0064   -3.4331   -3.1651 C   0  0  0  0  0  0  0  0  0  0  0  0
    4.1675   -2.3667   -3.8882 C   0  0  0  0  0  0  0  0  0  0  0  0
    3.1679   -1.7082   -2.9374 C   0  0  0  0  0  0  0  0  0  0  0  0
    3.8796   -1.1173   -1.7156 C   0  0  0  0  0  0  0  0  0  0  0  0
    4.7851   -1.4267    1.3989 N   0  0  0  0  0  0  0  0  0  0  0  0
    5.3835   -0.8220    2.5884 C   0  0  0  0  0  0  0  0  0  0  0  0
    4.2613   -0.6044    3.5798 C   0  0  0  0  0  0  0  0  0  0  0  0
    3.1801   -1.6069    3.1460 C   0  0  1  0  0  0  0  0  0  0  0  0
    1.7343   -1.2267    3.5208 C   0  0  0  0  0  0  0  0  0  0  0  0
    1.3468    0.0565    2.9449 N   0  0  0  0  0  0  0  0  0  0  0  0
    0.0819    0.6479    3.3462 C   0  0  2  0  0  0  0  0  0  0  0  0
   -0.0617    2.0761    2.7698 C   0  0  2  0  0  0  0  0  0  0  0  0
    1.0623    2.9865    3.3183 C   0  0  0  0  0  0  0  0  0  0  0  0
    0.9448    3.0550    4.8599 C   0  0  1  0  0  0  0  0  0  0  0  0
   -0.4216    3.6635    5.2347 C   0  0  0  0  0  0  0  0  0  0  0  0
   -1.5552    2.7803    4.6659 C   0  0  1  0  0  0  0  0  0  0  0  0
   -1.4316    2.6800    3.1294 C   0  0  0  0  0  0  0  0  0  0  0  0
   -1.4451    1.3646    5.2600 C   0  0  0  0  0  0  0  0  0  0  0  0
   -0.0816    0.7488    4.8918 C   0  0  2  0  0  0  0  0  0  0  0  0
    1.0513    1.6396    5.4686 C   0  0  0  0  0  0  0  0  0  0  0  0
    3.3942   -1.7910    1.6459 C   0  0  0  0  0  0  0  0  0  0  0  0
    4.0571   -2.9716   -0.6371 H   0  0  0  0  0  0  0  0  0  0  0  0
    6.4641   -2.1314   -2.2806 H   0  0  0  0  0  0  0  0  0  0  0  0
    6.2592   -3.6448   -1.4169 H   0  0  0  0  0  0  0  0  0  0  0  0
    5.7465   -3.8555   -3.8428 H   0  0  0  0  0  0  0  0  0  0  0  0
    4.3599   -4.2546   -2.8572 H   0  0  0  0  0  0  0  0  0  0  0  0
    4.8176   -1.5936   -4.2981 H   0  0  0  0  0  0  0  0  0  0  0  0
    3.6337   -2.8190   -4.7224 H   0  0  0  0  0  0  0  0  0  0  0  0
    2.6176   -0.9222   -3.4543 H   0  0  0  0  0  0  0  0  0  0  0  0
    2.4247   -2.4409   -2.6160 H   0  0  0  0  0  0  0  0  0  0  0  0
    3.1186   -0.7025   -1.0546 H   0  0  0  0  0  0  0  0  0  0  0  0
    4.5092   -0.2784   -2.0177 H   0  0  0  0  0  0  0  0  0  0  0  0
    6.1424   -1.5076    2.9781 H   0  0  0  0  0  0  0  0  0  0  0  0
    5.8666    0.1314    2.3564 H   0  0  0  0  0  0  0  0  0  0  0  0
    4.5779   -0.7482    4.6173 H   0  0  0  0  0  0  0  0  0  0  0  0
    3.9138    0.4311    3.4864 H   0  0  0  0  0  0  0  0  0  0  0  0
    3.4208   -2.5592    3.6208 H   0  0  0  0  0  0  0  0  0  0  0  0
    1.0359   -2.0089    3.2073 H   0  0  0  0  0  0  0  0  0  0  0  0
    1.7171   -1.2061    4.6141 H   0  0  0  0  0  0  0  0  0  0  0  0
    2.0648    0.7295    3.2082 H   0  0  0  0  0  0  0  0  0  0  0  0
   -0.7232    0.0217    2.9441 H   0  0  0  0  0  0  0  0  0  0  0  0
    0.0131    2.0402    1.6733 H   0  0  0  0  0  0  0  0  0  0  0  0
    2.0528    2.6260    3.0321 H   0  0  0  0  0  0  0  0  0  0  0  0
    0.9903    3.9885    2.8842 H   0  0  0  0  0  0  0  0  0  0  0  0
    1.7473    3.6861    5.2541 H   0  0  0  0  0  0  0  0  0  0  0  0
   -0.5107    3.7258    6.3207 H   0  0  0  0  0  0  0  0  0  0  0  0
   -0.4981    4.6815    4.8519 H   0  0  0  0  0  0  0  0  0  0  0  0
   -2.5253    3.2146    4.9284 H   0  0  0  0  0  0  0  0  0  0  0  0
   -1.5504    3.6643    2.6757 H   0  0  0  0  0  0  0  0  0  0  0  0
   -2.2359    2.0564    2.7294 H   0  0  0  0  0  0  0  0  0  0  0  0
   -1.5548    1.4106    6.3445 H   0  0  0  0  0  0  0  0  0  0  0  0
   -2.2529    0.7327    4.8851 H   0  0  0  0  0  0  0  0  0  0  0  0
   -0.0619   -0.2400    5.3511 H   0  0  0  0  0  0  0  0  0  0  0  0
    2.0354    1.2166    5.2558 H   0  0  0  0  0  0  0  0  0  0  0  0
    0.9748    1.6826    6.5571 H   0  0  0  0  0  0  0  0  0  0  0  0
    2.7445   -1.1291    1.0628 H   0  0  0  0  0  0  0  0  0  0  0  0
    3.1646   -2.8234    1.3699 H   0  0  0  0  0  0  0  0  0  0  0  0
    1.3780   -0.0066    1.9250 H   0  0  0  0  0  0  0  0  0  0  0  0
  1  2  2  0
  2  3  1  0
  2  9  1  0
  3  8  1  0
  3  4  1  0
  3 26  1  0
  4  5  1  0
  4 27  1  0
  4 28  1  0
  5  6  1  0
  5 29  1  0
  5 30  1  0
  6  7  1  0
  6 31  1  0
  6 32  1  0
  7  8  1  0
  7 33  1  0
  7 34  1  0
  8 35  1  0
  8 36  1  0
  9 25  1  0
  9 10  1  0
 10 11  1  0
 10 37  1  0
 10 38  1  0
 11 12  1  0
 11 39  1  0
 11 40  1  0
 12 13  1  0
 12 25  1  0
 12 41  1  1
 13 14  1  0
 13 42  1  0
 13 43  1  0
 14 15  1  0
 14 44  1  0
 14 62  1  0
 15 23  1  0
 15 16  1  0
 15 45  1  6
 16 21  1  0
 16 17  1  0
 16 46  1  6
 17 18  1  0
 17 47  1  0
 17 48  1  0
 18 24  1  0
 18 19  1  0
 18 49  1  1
 19 20  1  0
 19 50  1  0
 19 51  1  0
 20 21  1  0
 20 22  1  0
 20 52  1  6
 21 53  1  0
 21 54  1  0
 22 23  1  0
 22 55  1  0
 22 56  1  0
 23 24  1  0
 23 57  1  1
 24 58  1  0
 24 59  1  0
 25 60  1  0
 25 61  1  0
M  CHG  1  14   1
M  END
>  <i_m_ct_stereo_status>  (92) 
1

>  <s_m_source_file>  (92) 
/var/tmp/pbs.5076255.sched01/tmpikn618da/06v91y69d.sdf

>  <i_m_source_file_index>  (92) 
41

>  <i_lp_mmshare_version>  (92) 
48012

>  <i_f3d_flags>  (92) 
0

>  <s_epik_input>  (92) 
W0NIMl0xW0NIMl1bQ0gyXVtDSDJdW0NIMl1bQ0hdMUMoPU8pTjJbQ0gyXVtDSDJdW0NASF0oW0NIMl0yKVtDSDJdW05IXVtDQEhdKFtDQEBIXTM0KVtDQEhdNVtDSDJdW0NAQEhdKFtDSDJdNClbQ0gyXVtDQEBIXShbQ0gyXTMpW0NIMl01

>  <s_epik_cmdline>  (92) 
J2VwaWtfcHl0aG9uJywgJy1waHQnLCAnMi4wJywgJy1waCcsICc3LjAnLCAnLXRuJywgJzgnLCAnLW1hJywgJzIwMCcsICctaW1hZScsICc8aW5maWxlLm1hZT4nLCAnLW9tYWUnLCAnPG91dGZpbGUubWFlPic=

>  <r_lp_tautomer_probability>  (92) 
1

>  <r_epik_Ionization_Penalty>  (92) 
0.000161598

>  <r_epik_Ionization_Penalty_Charging>  (92) 
0.000161535

>  <r_epik_Ionization_Penalty_Neutral>  (92) 
6.32165e-08

>  <r_epik_State_Penalty>  (92) 
-0

>  <r_epik_Charging_Adjusted_Penalty>  (92) 
0.000161535

>  <i_epik_Tot_Q>  (92) 
1

>  <i_epik_Tot_abs_Q>  (92) 
1

>  <s_lp_Force_Field>  (92) 
OPLS3e

>  <r_lp_Energy>  (92) 
26.1033

>  <b_lp_Chiralities_Consistent>  (92) 
1

>  <s_lp_Variant>  (92) 
25:0-1

>  <s_i_glide_gridfile>  (92) 
pfpi4k_grid

>  <i_i_glide_lignum>  (92) 
41

>  <i_i_glide_rotatable_bonds>  (92) 
5

>  <r_i_docking_score>  (92) 
-3.2403

>  <r_i_glide_ligand_efficiency>  (92) 
-0.129612

>  <r_i_glide_ligand_efficiency_sa>  (92) 
-0.378988

>  <r_i_glide_ligand_efficiency_ln>  (92) 
-0.768048

>  <r_i_glide_gscore>  (92) 
-3.2403

>  <r_i_glide_lipo>  (92) 
-0.450673

>  <r_i_glide_hbond>  (92) 
-0.0474831

>  <r_i_glide_metal>  (92) 
-0

>  <r_i_glide_rewards>  (92) 
-1.1783

>  <r_i_glide_evdw>  (92) 
-33.1132

>  <r_i_glide_ecoul>  (92) 
-4.54814

>  <r_i_glide_erotb>  (92) 
0.795695

>  <r_i_glide_esite>  (92) 
-0.0216626

>  <r_i_glide_emodel>  (92) 
-43.758

>  <r_i_glide_energy>  (92) 
-37.6613

>  <r_i_glide_einternal>  (92) 
4.41268

>  <r_i_glide_intrahb_reward>  (92) 
-0

>  <i_i_glide_confnum>  (92) 
4

>  <i_i_glide_posenum>  (92) 
4

>  <r_i_glide_eff_state_penalty>  (92) 
0

>  <ligand_id>  (92) 
25

>  <original_smiles>  (92) 
O=C(C1CCCCC1)N1CCC(CNC2C3CC4CC(C3)CC2C4)C1

>  <smiles>  (92) 
[H]C1([H])N(C(=O)C2([H])C([H])([H])C([H])([H])C([H])([H])C([H])([H])C2([H])[H])C([H])([H])C([H])(C([H])([H])[N+]([H])([H])C2([H])C3([H])C([H])([H])C4([H])C([H])([H])C([H])(C3([H])[H])C([H])([H])C2([H])C4([H])[H])C1([H])[H]

$$$$
26:0:0
     RDKit          3D

 42 46  0  0  1  0  0  0  0  0999 V2000
    0.0272   -6.6569    3.0228 O   0  0  0  0  0  0  0  0  0  0  0  0
    1.1481   -6.8734    2.1792 C   0  0  2  0  0  0  0  0  0  0  0  0
    2.0259   -8.0331    2.7125 C   0  0  1  0  0  0  0  0  0  0  0  0
    3.0952   -8.3148    1.6801 C   0  0  0  0  0  0  0  0  0  0  0  0
    3.9432   -7.2861    1.6950 C   0  0  0  0  0  0  0  0  0  0  0  0
    3.4420   -6.3005    2.7368 C   0  0  2  0  0  0  0  0  0  0  0  0
    2.8664   -7.2887    3.7564 C   0  0  0  0  0  0  0  0  0  0  0  0
    2.1258   -5.6459    2.2257 C   0  0  1  0  0  0  0  0  0  0  0  0
    2.3162   -5.0746    0.9034 N   0  0  0  0  0  0  0  0  0  0  0  0
    2.9132   -3.9473    0.6592 C   0  0  0  0  0  0  0  0  0  0  0  0
    3.2504   -3.5964   -0.7073 C   0  0  0  0  0  0  0  0  0  0  0  0
    3.9241   -2.4526   -1.0191 C   0  0  0  0  0  0  0  0  0  0  0  0
    4.2712   -2.0532   -2.4444 C   0  0  2  0  0  0  0  0  0  0  0  0
    3.8087   -0.6551   -2.8086 C   0  0  0  0  0  0  0  0  0  0  0  0
    3.8087   -0.6987   -4.3267 C   0  0  0  0  0  0  0  0  0  0  0  0
    3.5248   -2.0448   -4.6775 O   0  0  0  0  0  0  0  0  0  0  0  0
    3.6060   -2.8904   -3.5419 C   0  0  0  0  0  0  0  0  0  0  0  0
    4.3040   -1.5229   -0.0296 N   0  0  0  0  0  0  0  0  0  0  0  0
    3.9743   -1.7495    1.1986 C   0  0  0  0  0  0  0  0  0  0  0  0
    4.1366   -0.9231    2.3114 N   0  0  0  0  0  0  0  0  0  0  0  0
    3.5728   -1.5927    3.2648 C   0  0  0  0  0  0  0  0  0  0  0  0
    3.0592   -2.8119    2.8797 N   0  0  0  0  0  0  0  0  0  0  0  0
    3.3474   -2.9370    1.5346 N   0  0  0  0  0  0  0  0  0  0  0  0
   -0.3276   -7.5019    3.2621 H   0  0  0  0  0  0  0  0  0  0  0  0
    0.7738   -7.0924    1.1810 H   0  0  0  0  0  0  0  0  0  0  0  0
    1.5084   -8.9219    3.0689 H   0  0  0  0  0  0  0  0  0  0  0  0
    3.1173   -9.1778    1.0318 H   0  0  0  0  0  0  0  0  0  0  0  0
    4.7973   -7.1247    1.0531 H   0  0  0  0  0  0  0  0  0  0  0  0
    4.2068   -5.6214    3.1196 H   0  0  0  0  0  0  0  0  0  0  0  0
    2.2829   -6.8179    4.5492 H   0  0  0  0  0  0  0  0  0  0  0  0
    3.6346   -7.9214    4.2087 H   0  0  0  0  0  0  0  0  0  0  0  0
    1.7345   -4.9154    2.9303 H   0  0  0  0  0  0  0  0  0  0  0  0
    2.9618   -4.2537   -1.5077 H   0  0  0  0  0  0  0  0  0  0  0  0
    5.3553   -2.1127   -2.5544 H   0  0  0  0  0  0  0  0  0  0  0  0
    2.7901   -0.4911   -2.4423 H   0  0  0  0  0  0  0  0  0  0  0  0
    4.4499    0.1309   -2.4029 H   0  0  0  0  0  0  0  0  0  0  0  0
    3.0957    0.0003   -4.7653 H   0  0  0  0  0  0  0  0  0  0  0  0
    4.7927   -0.4816   -4.7202 H   0  0  0  0  0  0  0  0  0  0  0  0
    4.1725   -3.7988   -3.7507 H   0  0  0  0  0  0  0  0  0  0  0  0
    2.5839   -3.1640   -3.2902 H   0  0  0  0  0  0  0  0  0  0  0  0
    3.4503   -1.2791    4.3031 H   0  0  0  0  0  0  0  0  0  0  0  0
    2.9494   -3.6335    3.4624 H   0  0  0  0  0  0  0  0  0  0  0  0
  1  2  1  0
  1 24  1  0
  2  8  1  0
  2  3  1  0
  2 25  1  6
  3  7  1  0
  3  4  1  0
  3 26  1  1
  4  5  2  0
  4 27  1  0
  5  6  1  0
  5 28  1  0
  6  7  1  0
  6  8  1  0
  6 29  1  1
  7 30  1  0
  7 31  1  0
  8  9  1  0
  8 32  1  1
  9 10  2  3
 10 23  1  0
 10 11  1  0
 11 12  2  0
 11 33  1  0
 12 13  1  0
 12 18  1  0
 13 17  1  0
 13 14  1  0
 13 34  1  1
 14 15  1  0
 14 35  1  0
 14 36  1  0
 15 16  1  0
 15 37  1  0
 15 38  1  0
 16 17  1  0
 17 39  1  0
 17 40  1  0
 18 19  2  0
 19 23  1  0
 19 20  1  0
 20 21  2  0
 21 22  1  0
 21 41  1  0
 22 23  1  0
 22 42  1  0
M  END
>  <i_m_ct_stereo_status>  (93) 
1

>  <s_m_source_file>  (93) 
/var/tmp/pbs.5076255.sched01/tmpikn618da/06v91y69d.sdf

>  <i_m_source_file_index>  (93) 
42

>  <i_lp_mmshare_version>  (93) 
48012

>  <i_f3d_flags>  (93) 
0

>  <s_epik_input>  (93) 
W0NIXTE9W0NIXVtDQEhdKFtDSDJdMilbQ0BIXShbQ0BIXShbT0hdKVtDQEBIXTEyKS9OPWMobihjMzQpbltjSF1uNCkvW2NIXWMoW25IXTMpW0NAQEhdNVtDSDJdW0NIMl1PW0NIMl01

>  <s_epik_cmdline>  (93) 
J2VwaWtfcHl0aG9uJywgJy1waHQnLCAnMi4wJywgJy1waCcsICc3LjAnLCAnLXRuJywgJzgnLCAnLW1hJywgJzIwMCcsICctaW1hZScsICc8aW5maWxlLm1hZT4nLCAnLW9tYWUnLCAnPG91dGZpbGUubWFlPic=

>  <r_lp_tautomer_probability>  (93) 
1

>  <r_epik_Ionization_Penalty>  (93) 
21.5884

>  <r_epik_Ionization_Penalty_Charging>  (93) 
21.5884

>  <r_epik_Ionization_Penalty_Neutral>  (93) 
2.69925e-06

>  <r_epik_State_Penalty>  (93) 
-0

>  <r_epik_Charging_Adjusted_Penalty>  (93) 
21.5884

>  <i_epik_Tot_Q>  (93) 
0

>  <i_epik_Tot_abs_Q>  (93) 
0

>  <s_lp_Force_Field>  (93) 
OPLS3e

>  <r_lp_Energy>  (93) 
47.8489

>  <b_lp_Chiralities_Consistent>  (93) 
1

>  <s_lp_Variant>  (93) 
26:0-1

>  <s_i_glide_gridfile>  (93) 
pfpi4k_grid

>  <i_i_glide_lignum>  (93) 
42

>  <i_i_glide_rotatable_bonds>  (93) 
3

>  <r_i_docking_score>  (93) 
-4.19184

>  <r_i_glide_ligand_efficiency>  (93) 
-0.182254

>  <r_i_glide_ligand_efficiency_sa>  (93) 
-0.518306

>  <r_i_glide_ligand_efficiency_ln>  (93) 
-1.01362

>  <r_i_glide_gscore>  (93) 
-4.19184

>  <r_i_glide_lipo>  (93) 
-0.544909

>  <r_i_glide_hbond>  (93) 
-0.419519

>  <r_i_glide_metal>  (93) 
-0

>  <r_i_glide_rewards>  (93) 
-1.27258

>  <r_i_glide_evdw>  (93) 
-28.0377

>  <r_i_glide_ecoul>  (93) 
-6.10882

>  <r_i_glide_erotb>  (93) 
0.378301

>  <r_i_glide_esite>  (93) 
-0.0149194

>  <r_i_glide_emodel>  (93) 
-42.4351

>  <r_i_glide_energy>  (93) 
-34.1465

>  <r_i_glide_einternal>  (93) 
1.85427

>  <r_i_glide_intrahb_reward>  (93) 
-0

>  <i_i_glide_confnum>  (93) 
5

>  <i_i_glide_posenum>  (93) 
22

>  <r_i_glide_eff_state_penalty>  (93) 
0

>  <ligand_id>  (93) 
26

>  <original_smiles>  (93) 
OC1C2C=CC(C2)C1N=c1cc(C2CCOC2)[nH]c2ncnn12

>  <smiles>  (93) 
[H]OC1([H])C([H])(N=c2c([H])c(C3([H])C([H])([H])OC([H])([H])C3([H])[H])nc3nc([H])n([H])n23)C2([H])C([H])=C([H])C1([H])C2([H])[H]

$$$$
26:0:1
     RDKit          3D

 42 46  0  0  1  0  0  0  0  0999 V2000
    4.3825   -3.4612   -2.5496 O   0  0  0  0  0  0  0  0  0  0  0  0
    3.7436   -3.1438   -1.3273 C   0  0  2  0  0  0  0  0  0  0  0  0
    4.2516   -1.7851   -0.7845 C   0  0  1  0  0  0  0  0  0  0  0  0
    3.4260   -1.4404    0.4372 C   0  0  0  0  0  0  0  0  0  0  0  0
    3.7811   -2.2829    1.4064 C   0  0  0  0  0  0  0  0  0  0  0  0
    4.8384   -3.2121    0.8363 C   0  0  2  0  0  0  0  0  0  0  0  0
    5.5511   -2.2326   -0.1039 C   0  0  0  0  0  0  0  0  0  0  0  0
    4.1685   -4.1566   -0.2072 C   0  0  1  0  0  0  0  0  0  0  0  0
    3.0079   -4.8268    0.3561 N   0  0  0  0  0  0  0  0  0  0  0  0
    3.0662   -5.8261    1.1872 C   0  0  0  0  0  0  0  0  0  0  0  0
    1.8579   -6.2663    1.8630 C   0  0  0  0  0  0  0  0  0  0  0  0
    1.8785   -7.2729    2.7860 C   0  0  0  0  0  0  0  0  0  0  0  0
    0.6378   -7.7507    3.5109 C   0  0  2  0  0  0  0  0  0  0  0  0
   -0.4560   -8.2404    2.5830 C   0  0  0  0  0  0  0  0  0  0  0  0
   -1.6735   -8.1462    3.4860 C   0  0  0  0  0  0  0  0  0  0  0  0
   -1.4400   -7.0261    4.3399 O   0  0  0  0  0  0  0  0  0  0  0  0
   -0.0650   -6.6626    4.3209 C   0  0  0  0  0  0  0  0  0  0  0  0
    3.0578   -7.9666    3.1084 N   0  0  0  0  0  0  0  0  0  0  0  0
    4.1544   -7.6536    2.4995 C   0  0  0  0  0  0  0  0  0  0  0  0
    5.3982   -8.2770    2.5747 N   0  0  0  0  0  0  0  0  0  0  0  0
    6.1106   -7.6335    1.7009 C   0  0  0  0  0  0  0  0  0  0  0  0
    5.4395   -6.6171    1.0590 N   0  0  0  0  0  0  0  0  0  0  0  0
    4.1672   -6.5938    1.6012 N   0  0  0  0  0  0  0  0  0  0  0  0
    4.1007   -4.3326   -2.8024 H   0  0  0  0  0  0  0  0  0  0  0  0
    2.6693   -3.1269   -1.5035 H   0  0  0  0  0  0  0  0  0  0  0  0
    4.3483   -0.9754   -1.5068 H   0  0  0  0  0  0  0  0  0  0  0  0
    2.6604   -0.6795    0.4706 H   0  0  0  0  0  0  0  0  0  0  0  0
    3.3598   -2.3611    2.3969 H   0  0  0  0  0  0  0  0  0  0  0  0
    5.4720   -3.6885    1.5873 H   0  0  0  0  0  0  0  0  0  0  0  0
    6.2682   -2.7083   -0.7753 H   0  0  0  0  0  0  0  0  0  0  0  0
    6.0475   -1.4213    0.4330 H   0  0  0  0  0  0  0  0  0  0  0  0
    4.8791   -4.8659   -0.6277 H   0  0  0  0  0  0  0  0  0  0  0  0
    0.9110   -5.7828    1.6629 H   0  0  0  0  0  0  0  0  0  0  0  0
    0.9078   -8.5645    4.1877 H   0  0  0  0  0  0  0  0  0  0  0  0
   -0.5773   -7.5788    1.7249 H   0  0  0  0  0  0  0  0  0  0  0  0
   -0.2741   -9.2490    2.2092 H   0  0  0  0  0  0  0  0  0  0  0  0
   -2.5892   -8.0122    2.9137 H   0  0  0  0  0  0  0  0  0  0  0  0
   -1.7722   -9.0471    4.0891 H   0  0  0  0  0  0  0  0  0  0  0  0
    0.3555   -6.5693    5.3236 H   0  0  0  0  0  0  0  0  0  0  0  0
    0.0169   -5.6909    3.8367 H   0  0  0  0  0  0  0  0  0  0  0  0
    7.1517   -7.8421    1.4330 H   0  0  0  0  0  0  0  0  0  0  0  0
    5.8496   -5.7724    0.6899 H   0  0  0  0  0  0  0  0  0  0  0  0
  1  2  1  0
  1 24  1  0
  2  8  1  0
  2  3  1  0
  2 25  1  6
  3  7  1  0
  3  4  1  0
  3 26  1  6
  4  5  2  0
  4 27  1  0
  5  6  1  0
  5 28  1  0
  6  7  1  0
  6  8  1  0
  6 29  1  1
  7 30  1  0
  7 31  1  0
  8  9  1  0
  8 32  1  6
  9 10  2  3
 10 23  1  0
 10 11  1  0
 11 12  2  0
 11 33  1  0
 12 13  1  0
 12 18  1  0
 13 17  1  0
 13 14  1  0
 13 34  1  1
 14 15  1  0
 14 35  1  0
 14 36  1  0
 15 16  1  0
 15 37  1  0
 15 38  1  0
 16 17  1  0
 17 39  1  0
 17 40  1  0
 18 19  2  0
 19 23  1  0
 19 20  1  0
 20 21  2  0
 21 22  1  0
 21 41  1  0
 22 23  1  0
 22 42  1  0
M  END
>  <i_m_ct_stereo_status>  (94) 
1

>  <s_m_source_file>  (94) 
/var/tmp/pbs.5076255.sched01/tmpikn618da/06v91y69d.sdf

>  <i_m_source_file_index>  (94) 
42

>  <i_lp_mmshare_version>  (94) 
48012

>  <i_f3d_flags>  (94) 
0

>  <s_epik_input>  (94) 
W0NIXTE9W0NIXVtDQEhdKFtDSDJdMilbQ0BIXShbQ0BIXShbT0hdKVtDQEBIXTEyKS9OPWMobihjMzQpbltjSF1uNCkvW2NIXWMoW25IXTMpW0NAQEhdNVtDSDJdW0NIMl1PW0NIMl01

>  <s_epik_cmdline>  (94) 
J2VwaWtfcHl0aG9uJywgJy1waHQnLCAnMi4wJywgJy1waCcsICc3LjAnLCAnLXRuJywgJzgnLCAnLW1hJywgJzIwMCcsICctaW1hZScsICc8aW5maWxlLm1hZT4nLCAnLW9tYWUnLCAnPG91dGZpbGUubWFlPic=

>  <r_lp_tautomer_probability>  (94) 
1

>  <r_epik_Ionization_Penalty>  (94) 
21.5884

>  <r_epik_Ionization_Penalty_Charging>  (94) 
21.5884

>  <r_epik_Ionization_Penalty_Neutral>  (94) 
2.69925e-06

>  <r_epik_State_Penalty>  (94) 
-0

>  <r_epik_Charging_Adjusted_Penalty>  (94) 
21.5884

>  <i_epik_Tot_Q>  (94) 
0

>  <i_epik_Tot_abs_Q>  (94) 
0

>  <s_lp_Force_Field>  (94) 
OPLS3e

>  <r_lp_Energy>  (94) 
47.8489

>  <b_lp_Chiralities_Consistent>  (94) 
1

>  <s_lp_Variant>  (94) 
26:0-1

>  <s_i_glide_gridfile>  (94) 
pfpi4k_grid

>  <i_i_glide_lignum>  (94) 
42

>  <i_i_glide_rotatable_bonds>  (94) 
3

>  <r_i_docking_score>  (94) 
-3.26834

>  <r_i_glide_ligand_efficiency>  (94) 
-0.142102

>  <r_i_glide_ligand_efficiency_sa>  (94) 
-0.404119

>  <r_i_glide_ligand_efficiency_ln>  (94) 
-0.790315

>  <r_i_glide_gscore>  (94) 
-3.26834

>  <r_i_glide_lipo>  (94) 
-0.0285946

>  <r_i_glide_hbond>  (94) 
-0.262009

>  <r_i_glide_metal>  (94) 
-0

>  <r_i_glide_rewards>  (94) 
-1.4676

>  <r_i_glide_evdw>  (94) 
-29.5628

>  <r_i_glide_ecoul>  (94) 
-2.72693

>  <r_i_glide_erotb>  (94) 
0.378301

>  <r_i_glide_esite>  (94) 
-0.00125601

>  <r_i_glide_emodel>  (94) 
-39.3858

>  <r_i_glide_energy>  (94) 
-32.2898

>  <r_i_glide_einternal>  (94) 
0.361597

>  <r_i_glide_intrahb_reward>  (94) 
-0

>  <i_i_glide_confnum>  (94) 
1

>  <i_i_glide_posenum>  (94) 
7

>  <r_i_glide_eff_state_penalty>  (94) 
0

>  <ligand_id>  (94) 
26

>  <original_smiles>  (94) 
OC1C2C=CC(C2)C1N=c1cc(C2CCOC2)[nH]c2ncnn12

>  <smiles>  (94) 
[H]OC1([H])C([H])(N=c2c([H])c(C3([H])C([H])([H])OC([H])([H])C3([H])[H])nc3nc([H])n([H])n23)C2([H])C([H])=C([H])C1([H])C2([H])[H]

$$$$
26:0:2
     RDKit          3D

 42 46  0  0  1  0  0  0  0  0999 V2000
    0.4074   -8.1905    5.8763 O   0  0  0  0  0  0  0  0  0  0  0  0
    0.1387   -7.6205    4.6091 C   0  0  2  0  0  0  0  0  0  0  0  0
   -1.0156   -8.3875    3.9268 C   0  0  1  0  0  0  0  0  0  0  0  0
   -1.3823   -7.6496    2.6622 C   0  0  0  0  0  0  0  0  0  0  0  0
   -0.3790   -7.8227    1.8011 C   0  0  0  0  0  0  0  0  0  0  0  0
    0.6746   -8.6722    2.4900 C   0  0  2  0  0  0  0  0  0  0  0  0
   -0.2390   -9.5669    3.3250 C   0  0  0  0  0  0  0  0  0  0  0  0
    1.3368   -7.8317    3.6186 C   0  0  1  0  0  0  0  0  0  0  0  0
    1.8031   -6.5594    3.0934 N   0  0  0  0  0  0  0  0  0  0  0  0
    2.8766   -6.4119    2.3777 C   0  0  0  0  0  0  0  0  0  0  0  0
    3.1355   -5.1351    1.7267 C   0  0  0  0  0  0  0  0  0  0  0  0
    4.2214   -4.9531    0.9220 C   0  0  0  0  0  0  0  0  0  0  0  0
    4.5054   -3.6468    0.1972 C   0  0  2  0  0  0  0  0  0  0  0  0
    3.2674   -2.9058   -0.2609 C   0  0  0  0  0  0  0  0  0  0  0  0
    3.8301   -1.9886   -1.3356 C   0  0  0  0  0  0  0  0  0  0  0  0
    4.9127   -2.6958   -1.9348 O   0  0  0  0  0  0  0  0  0  0  0  0
    5.2767   -3.8045   -1.1202 C   0  0  0  0  0  0  0  0  0  0  0  0
    5.1581   -5.9797    0.6957 N   0  0  0  0  0  0  0  0  0  0  0  0
    5.0038   -7.1162    1.2848 C   0  0  0  0  0  0  0  0  0  0  0  0
    5.8667   -8.2171    1.2839 N   0  0  0  0  0  0  0  0  0  0  0  0
    5.2885   -9.0465    2.0799 C   0  0  0  0  0  0  0  0  0  0  0  0
    4.0871   -8.5996    2.5966 N   0  0  0  0  0  0  0  0  0  0  0  0
    3.8838   -7.3441    2.0581 N   0  0  0  0  0  0  0  0  0  0  0  0
    0.5171   -9.1246    5.7691 H   0  0  0  0  0  0  0  0  0  0  0  0
   -0.1153   -6.5711    4.7528 H   0  0  0  0  0  0  0  0  0  0  0  0
   -1.8668   -8.6547    4.5516 H   0  0  0  0  0  0  0  0  0  0  0  0
   -2.2875   -7.0853    2.5170 H   0  0  0  0  0  0  0  0  0  0  0  0
   -0.2816   -7.4250    0.8030 H   0  0  0  0  0  0  0  0  0  0  0  0
    1.3455   -9.2013    1.8102 H   0  0  0  0  0  0  0  0  0  0  0  0
    0.2829  -10.1811    4.0610 H   0  0  0  0  0  0  0  0  0  0  0  0
   -0.8689  -10.2194    2.7158 H   0  0  0  0  0  0  0  0  0  0  0  0
    2.1247   -8.3814    4.1325 H   0  0  0  0  0  0  0  0  0  0  0  0
    2.4474   -4.3079    1.8684 H   0  0  0  0  0  0  0  0  0  0  0  0
    5.0845   -3.0104    0.8691 H   0  0  0  0  0  0  0  0  0  0  0  0
    2.5499   -3.5999   -0.7000 H   0  0  0  0  0  0  0  0  0  0  0  0
    2.7761   -2.3582    0.5431 H   0  0  0  0  0  0  0  0  0  0  0  0
    3.0762   -1.7133   -2.0714 H   0  0  0  0  0  0  0  0  0  0  0  0
    4.2225   -1.0770   -0.8842 H   0  0  0  0  0  0  0  0  0  0  0  0
    6.3556   -3.8524   -0.9591 H   0  0  0  0  0  0  0  0  0  0  0  0
    4.9803   -4.7127   -1.6469 H   0  0  0  0  0  0  0  0  0  0  0  0
    5.6573  -10.0308    2.4010 H   0  0  0  0  0  0  0  0  0  0  0  0
    3.3228   -9.1812    2.9131 H   0  0  0  0  0  0  0  0  0  0  0  0
  1  2  1  0
  1 24  1  0
  2  8  1  0
  2  3  1  0
  2 25  1  1
  3  7  1  0
  3  4  1  0
  3 26  1  1
  4  5  2  0
  4 27  1  0
  5  6  1  0
  5 28  1  0
  6  7  1  0
  6  8  1  0
  6 29  1  6
  7 30  1  0
  7 31  1  0
  8  9  1  0
  8 32  1  1
  9 10  2  3
 10 23  1  0
 10 11  1  0
 11 12  2  0
 11 33  1  0
 12 13  1  0
 12 18  1  0
 13 17  1  0
 13 14  1  0
 13 34  1  1
 14 15  1  0
 14 35  1  0
 14 36  1  0
 15 16  1  0
 15 37  1  0
 15 38  1  0
 16 17  1  0
 17 39  1  0
 17 40  1  0
 18 19  2  0
 19 23  1  0
 19 20  1  0
 20 21  2  0
 21 22  1  0
 21 41  1  0
 22 23  1  0
 22 42  1  0
M  END
>  <i_m_ct_stereo_status>  (95) 
1

>  <s_m_source_file>  (95) 
/var/tmp/pbs.5076255.sched01/tmpikn618da/06v91y69d.sdf

>  <i_m_source_file_index>  (95) 
42

>  <i_lp_mmshare_version>  (95) 
48012

>  <i_f3d_flags>  (95) 
0

>  <s_epik_input>  (95) 
W0NIXTE9W0NIXVtDQEhdKFtDSDJdMilbQ0BIXShbQ0BIXShbT0hdKVtDQEBIXTEyKS9OPWMobihjMzQpbltjSF1uNCkvW2NIXWMoW25IXTMpW0NAQEhdNVtDSDJdW0NIMl1PW0NIMl01

>  <s_epik_cmdline>  (95) 
J2VwaWtfcHl0aG9uJywgJy1waHQnLCAnMi4wJywgJy1waCcsICc3LjAnLCAnLXRuJywgJzgnLCAnLW1hJywgJzIwMCcsICctaW1hZScsICc8aW5maWxlLm1hZT4nLCAnLW9tYWUnLCAnPG91dGZpbGUubWFlPic=

>  <r_lp_tautomer_probability>  (95) 
1

>  <r_epik_Ionization_Penalty>  (95) 
21.5884

>  <r_epik_Ionization_Penalty_Charging>  (95) 
21.5884

>  <r_epik_Ionization_Penalty_Neutral>  (95) 
2.69925e-06

>  <r_epik_State_Penalty>  (95) 
-0

>  <r_epik_Charging_Adjusted_Penalty>  (95) 
21.5884

>  <i_epik_Tot_Q>  (95) 
0

>  <i_epik_Tot_abs_Q>  (95) 
0

>  <s_lp_Force_Field>  (95) 
OPLS3e

>  <r_lp_Energy>  (95) 
47.8489

>  <b_lp_Chiralities_Consistent>  (95) 
1

>  <s_lp_Variant>  (95) 
26:0-1

>  <s_i_glide_gridfile>  (95) 
pfpi4k_grid

>  <i_i_glide_lignum>  (95) 
42

>  <i_i_glide_rotatable_bonds>  (95) 
3

>  <r_i_docking_score>  (95) 
-3.05726

>  <r_i_glide_ligand_efficiency>  (95) 
-0.132924

>  <r_i_glide_ligand_efficiency_sa>  (95) 
-0.378019

>  <r_i_glide_ligand_efficiency_ln>  (95) 
-0.739273

>  <r_i_glide_gscore>  (95) 
-3.05726

>  <r_i_glide_lipo>  (95) 
-0.0986214

>  <r_i_glide_hbond>  (95) 
0

>  <r_i_glide_metal>  (95) 
-0

>  <r_i_glide_rewards>  (95) 
-1.42827

>  <r_i_glide_evdw>  (95) 
-29.0007

>  <r_i_glide_ecoul>  (95) 
-2.89085

>  <r_i_glide_erotb>  (95) 
0.378301

>  <r_i_glide_esite>  (95) 
-0.025005

>  <r_i_glide_emodel>  (95) 
-38.2255

>  <r_i_glide_energy>  (95) 
-31.8916

>  <r_i_glide_einternal>  (95) 
0.819059

>  <r_i_glide_intrahb_reward>  (95) 
-0

>  <i_i_glide_confnum>  (95) 
4

>  <i_i_glide_posenum>  (95) 
26

>  <r_i_glide_eff_state_penalty>  (95) 
0

>  <ligand_id>  (95) 
26

>  <original_smiles>  (95) 
OC1C2C=CC(C2)C1N=c1cc(C2CCOC2)[nH]c2ncnn12

>  <smiles>  (95) 
[H]OC1([H])C([H])(N=c2c([H])c(C3([H])C([H])([H])OC([H])([H])C3([H])[H])nc3nc([H])n([H])n23)C2([H])C([H])=C([H])C1([H])C2([H])[H]

$$$$
26:1:0
     RDKit          3D

 42 46  0  0  1  0  0  0  0  0999 V2000
    1.7538   -5.8451    0.0962 O   0  0  0  0  0  0  0  0  0  0  0  0
    2.6476   -5.9238    1.1876 C   0  0  2  0  0  0  0  0  0  0  0  0
    2.7732   -7.3723    1.7113 C   0  0  1  0  0  0  0  0  0  0  0  0
    3.8242   -7.3746    2.8048 C   0  0  0  0  0  0  0  0  0  0  0  0
    3.3072   -6.7353    3.8568 C   0  0  0  0  0  0  0  0  0  0  0  0
    1.9129   -6.2822    3.4710 C   0  0  2  0  0  0  0  0  0  0  0  0
    1.5057   -7.4550    2.5660 C   0  0  0  0  0  0  0  0  0  0  0  0
    2.0374   -5.1326    2.4130 C   0  0  1  0  0  0  0  0  0  0  0  0
    2.8569   -4.0129    2.9125 N   0  0  0  0  0  0  0  0  0  0  0  0
    3.2565   -3.0671    2.1121 C   0  0  0  0  0  0  0  0  0  0  0  0
    2.9901   -2.9114    0.6863 C   0  0  0  0  0  0  0  0  0  0  0  0
    3.5791   -1.9357   -0.0628 C   0  0  0  0  0  0  0  0  0  0  0  0
    3.4098   -1.8333   -1.5806 C   0  0  2  0  0  0  0  0  0  0  0  0
    2.8207   -3.0495   -2.2544 C   0  0  0  0  0  0  0  0  0  0  0  0
    3.2215   -2.8618   -3.7001 C   0  0  0  0  0  0  0  0  0  0  0  0
    4.4870   -2.2022   -3.6512 O   0  0  0  0  0  0  0  0  0  0  0  0
    4.7249   -1.6703   -2.3508 C   0  0  0  0  0  0  0  0  0  0  0  0
    4.4452   -0.9865    0.5098 N   0  0  0  0  0  0  0  0  0  0  0  0
    4.6728   -1.0383    1.7860 C   0  0  0  0  0  0  0  0  0  0  0  0
    5.5037   -0.2521    2.5698 N   0  0  0  0  0  0  0  0  0  0  0  0
    5.3614   -0.7412    3.7719 C   0  0  0  0  0  0  0  0  0  0  0  0
    4.5166   -1.8195    3.8347 N   0  0  0  0  0  0  0  0  0  0  0  0
    4.0732   -2.0195    2.5399 N   0  0  0  0  0  0  0  0  0  0  0  0
    2.2431   -5.9371   -0.7009 H   0  0  0  0  0  0  0  0  0  0  0  0
    3.6335   -5.5854    0.8791 H   0  0  0  0  0  0  0  0  0  0  0  0
    2.9052   -8.1544    0.9682 H   0  0  0  0  0  0  0  0  0  0  0  0
    4.8219   -7.7782    2.7057 H   0  0  0  0  0  0  0  0  0  0  0  0
    3.7855   -6.5113    4.8006 H   0  0  0  0  0  0  0  0  0  0  0  0
    1.2397   -6.0880    4.3051 H   0  0  0  0  0  0  0  0  0  0  0  0
    0.5838   -7.2921    2.0048 H   0  0  0  0  0  0  0  0  0  0  0  0
    1.4201   -8.4035    3.0977 H   0  0  0  0  0  0  0  0  0  0  0  0
    1.0262   -4.7756    2.1866 H   0  0  0  0  0  0  0  0  0  0  0  0
    2.3234   -3.5857    0.1644 H   0  0  0  0  0  0  0  0  0  0  0  0
    2.7729   -0.9776   -1.7928 H   0  0  0  0  0  0  0  0  0  0  0  0
    3.2961   -3.9696   -1.8801 H   0  0  0  0  0  0  0  0  0  0  0  0
    1.7377   -3.1374   -2.1119 H   0  0  0  0  0  0  0  0  0  0  0  0
    3.2832   -3.8083   -4.2272 H   0  0  0  0  0  0  0  0  0  0  0  0
    2.4982   -2.2221   -4.2044 H   0  0  0  0  0  0  0  0  0  0  0  0
    5.0281   -0.6240   -2.3876 H   0  0  0  0  0  0  0  0  0  0  0  0
    5.5230   -2.2395   -1.8921 H   0  0  0  0  0  0  0  0  0  0  0  0
    5.8513   -0.3993    4.6843 H   0  0  0  0  0  0  0  0  0  0  0  0
    3.9607   -2.1287    4.6311 H   0  0  0  0  0  0  0  0  0  0  0  0
  1  2  1  0
  1 24  1  0
  2  8  1  0
  2  3  1  0
  2 25  1  6
  3  7  1  0
  3  4  1  0
  3 26  1  6
  4  5  2  0
  4 27  1  0
  5  6  1  0
  5 28  1  0
  6  7  1  0
  6  8  1  0
  6 29  1  1
  7 30  1  0
  7 31  1  0
  8  9  1  0
  8 32  1  6
  9 10  2  3
 10 23  1  0
 10 11  1  0
 11 12  2  0
 11 33  1  0
 12 13  1  0
 12 18  1  0
 13 17  1  0
 13 14  1  0
 13 34  1  1
 14 15  1  0
 14 35  1  0
 14 36  1  0
 15 16  1  0
 15 37  1  0
 15 38  1  0
 16 17  1  0
 17 39  1  0
 17 40  1  0
 18 19  2  0
 19 23  1  0
 19 20  1  0
 20 21  2  0
 21 22  1  0
 21 41  1  0
 22 23  1  0
 22 42  1  0
M  END
>  <i_m_ct_stereo_status>  (96) 
1

>  <s_m_source_file>  (96) 
/var/tmp/pbs.5076255.sched01/tmpikn618da/06v91y69d.sdf

>  <i_m_source_file_index>  (96) 
43

>  <i_lp_mmshare_version>  (96) 
48012

>  <i_f3d_flags>  (96) 
0

>  <s_epik_input>  (96) 
W0NIXTE9W0NIXVtDQEhdKFtDSDJdMilbQ0BIXShbQ0BIXShbT0hdKVtDQEBIXTEyKS9OPWMobihjMzQpbltjSF1uNCkvW2NIXWMoW25IXTMpW0NAQEhdNVtDSDJdW0NIMl1PW0NIMl01

>  <s_epik_cmdline>  (96) 
J2VwaWtfcHl0aG9uJywgJy1waHQnLCAnMi4wJywgJy1waCcsICc3LjAnLCAnLXRuJywgJzgnLCAnLW1hJywgJzIwMCcsICctaW1hZScsICc8aW5maWxlLm1hZT4nLCAnLW9tYWUnLCAnPG91dGZpbGUubWFlPic=

>  <r_lp_tautomer_probability>  (96) 
1

>  <r_epik_Ionization_Penalty>  (96) 
21.5884

>  <r_epik_Ionization_Penalty_Charging>  (96) 
21.5884

>  <r_epik_Ionization_Penalty_Neutral>  (96) 
2.69925e-06

>  <r_epik_State_Penalty>  (96) 
-0

>  <r_epik_Charging_Adjusted_Penalty>  (96) 
21.5884

>  <i_epik_Tot_Q>  (96) 
0

>  <i_epik_Tot_abs_Q>  (96) 
0

>  <s_lp_Force_Field>  (96) 
OPLS3e

>  <r_lp_Energy>  (96) 
43.0912

>  <b_lp_Chiralities_Consistent>  (96) 
1

>  <s_lp_Variant>  (96) 
26:0-2

>  <s_i_glide_gridfile>  (96) 
pfpi4k_grid

>  <i_i_glide_lignum>  (96) 
43

>  <i_i_glide_rotatable_bonds>  (96) 
3

>  <r_i_docking_score>  (96) 
-4.15123

>  <r_i_glide_ligand_efficiency>  (96) 
-0.180488

>  <r_i_glide_ligand_efficiency_sa>  (96) 
-0.513285

>  <r_i_glide_ligand_efficiency_ln>  (96) 
-1.00381

>  <r_i_glide_gscore>  (96) 
-4.15123

>  <r_i_glide_lipo>  (96) 
-0.214333

>  <r_i_glide_hbond>  (96) 
-0.52365

>  <r_i_glide_metal>  (96) 
-0

>  <r_i_glide_rewards>  (96) 
-1.50714

>  <r_i_glide_evdw>  (96) 
-26.0409

>  <r_i_glide_ecoul>  (96) 
-6.54912

>  <r_i_glide_erotb>  (96) 
0.378301

>  <r_i_glide_esite>  (96) 
0

>  <r_i_glide_emodel>  (96) 
-39.728

>  <r_i_glide_energy>  (96) 
-32.5901

>  <r_i_glide_einternal>  (96) 
3.40377

>  <r_i_glide_intrahb_reward>  (96) 
-0

>  <i_i_glide_confnum>  (96) 
3

>  <i_i_glide_posenum>  (96) 
5

>  <r_i_glide_eff_state_penalty>  (96) 
0

>  <ligand_id>  (96) 
26

>  <original_smiles>  (96) 
OC1C2C=CC(C2)C1N=c1cc(C2CCOC2)[nH]c2ncnn12

>  <smiles>  (96) 
[H]OC1([H])C([H])(N=c2c([H])c(C3([H])C([H])([H])OC([H])([H])C3([H])[H])nc3nc([H])n([H])n23)C2([H])C([H])=C([H])C1([H])C2([H])[H]

$$$$
26:1:1
     RDKit          3D

 42 46  0  0  1  0  0  0  0  0999 V2000
    1.9049    0.5440    1.2854 O   0  0  0  0  0  0  0  0  0  0  0  0
    2.7510   -0.2888    2.0577 C   0  0  2  0  0  0  0  0  0  0  0  0
    4.1293   -0.4311    1.3754 C   0  0  1  0  0  0  0  0  0  0  0  0
    5.0234   -1.2159    2.3127 C   0  0  0  0  0  0  0  0  0  0  0  0
    4.5769   -2.4732    2.3285 C   0  0  0  0  0  0  0  0  0  0  0  0
    3.3734   -2.5369    1.4088 C   0  0  2  0  0  0  0  0  0  0  0  0
    3.8121   -1.5205    0.3461 C   0  0  0  0  0  0  0  0  0  0  0  0
    2.1947   -1.7617    2.0753 C   0  0  1  0  0  0  0  0  0  0  0  0
    1.8925   -2.2929    3.4126 N   0  0  0  0  0  0  0  0  0  0  0  0
    0.9850   -1.7292    4.1628 C   0  0  0  0  0  0  0  0  0  0  0  0
    0.1614   -0.5696    3.8384 C   0  0  0  0  0  0  0  0  0  0  0  0
   -0.7170   -0.0362    4.7486 C   0  0  0  0  0  0  0  0  0  0  0  0
   -1.5427    1.2085    4.4777 C   0  0  2  0  0  0  0  0  0  0  0  0
   -1.1303    1.9998    3.2496 C   0  0  0  0  0  0  0  0  0  0  0  0
   -1.7584    3.3537    3.5184 C   0  0  0  0  0  0  0  0  0  0  0  0
   -1.7295    3.5229    4.9351 O   0  0  0  0  0  0  0  0  0  0  0  0
   -1.4607    2.2779    5.5750 C   0  0  0  0  0  0  0  0  0  0  0  0
   -0.8786   -0.5839    6.0355 N   0  0  0  0  0  0  0  0  0  0  0  0
   -0.1680   -1.6105    6.3691 C   0  0  0  0  0  0  0  0  0  0  0  0
   -0.1139   -2.2799    7.5896 N   0  0  0  0  0  0  0  0  0  0  0  0
    0.7718   -3.2060    7.3826 C   0  0  0  0  0  0  0  0  0  0  0  0
    1.3142   -3.2138    6.1140 N   0  0  0  0  0  0  0  0  0  0  0  0
    0.7001   -2.1724    5.4494 N   0  0  0  0  0  0  0  0  0  0  0  0
    1.5513    0.0383    0.5462 H   0  0  0  0  0  0  0  0  0  0  0  0
    2.8597    0.1537    3.0492 H   0  0  0  0  0  0  0  0  0  0  0  0
    4.5754    0.4802    0.9774 H   0  0  0  0  0  0  0  0  0  0  0  0
    5.8327   -0.7978    2.8935 H   0  0  0  0  0  0  0  0  0  0  0  0
    4.9414   -3.3016    2.9169 H   0  0  0  0  0  0  0  0  0  0  0  0
    3.1381   -3.5300    1.0256 H   0  0  0  0  0  0  0  0  0  0  0  0
    3.0274   -1.2496   -0.3622 H   0  0  0  0  0  0  0  0  0  0  0  0
    4.6898   -1.8388   -0.2190 H   0  0  0  0  0  0  0  0  0  0  0  0
    1.3157   -1.8534    1.4291 H   0  0  0  0  0  0  0  0  0  0  0  0
    0.2215   -0.0972    2.8705 H   0  0  0  0  0  0  0  0  0  0  0  0
   -2.5787    0.8974    4.3842 H   0  0  0  0  0  0  0  0  0  0  0  0
   -0.0483    2.1169    3.2032 H   0  0  0  0  0  0  0  0  0  0  0  0
   -1.4752    1.5414    2.3232 H   0  0  0  0  0  0  0  0  0  0  0  0
   -1.2177    4.1511    3.0086 H   0  0  0  0  0  0  0  0  0  0  0  0
   -2.7946    3.3625    3.1792 H   0  0  0  0  0  0  0  0  0  0  0  0
   -2.1704    2.0868    6.3838 H   0  0  0  0  0  0  0  0  0  0  0  0
   -0.4626    2.3160    6.0118 H   0  0  0  0  0  0  0  0  0  0  0  0
    1.1343   -3.9452    8.1073 H   0  0  0  0  0  0  0  0  0  0  0  0
    1.6359   -4.0194    5.5928 H   0  0  0  0  0  0  0  0  0  0  0  0
  1  2  1  0
  1 24  1  0
  2  8  1  0
  2  3  1  0
  2 25  1  1
  3  7  1  0
  3  4  1  0
  3 26  1  6
  4  5  2  0
  4 27  1  0
  5  6  1  0
  5 28  1  0
  6  7  1  0
  6  8  1  0
  6 29  1  6
  7 30  1  0
  7 31  1  0
  8  9  1  0
  8 32  1  6
  9 10  2  3
 10 23  1  0
 10 11  1  0
 11 12  2  0
 11 33  1  0
 12 13  1  0
 12 18  1  0
 13 17  1  0
 13 14  1  0
 13 34  1  6
 14 15  1  0
 14 35  1  0
 14 36  1  0
 15 16  1  0
 15 37  1  0
 15 38  1  0
 16 17  1  0
 17 39  1  0
 17 40  1  0
 18 19  2  0
 19 23  1  0
 19 20  1  0
 20 21  2  0
 21 22  1  0
 21 41  1  0
 22 23  1  0
 22 42  1  0
M  END
>  <i_m_ct_stereo_status>  (97) 
1

>  <s_m_source_file>  (97) 
/var/tmp/pbs.5076255.sched01/tmpikn618da/06v91y69d.sdf

>  <i_m_source_file_index>  (97) 
43

>  <i_lp_mmshare_version>  (97) 
48012

>  <i_f3d_flags>  (97) 
0

>  <s_epik_input>  (97) 
W0NIXTE9W0NIXVtDQEhdKFtDSDJdMilbQ0BIXShbQ0BIXShbT0hdKVtDQEBIXTEyKS9OPWMobihjMzQpbltjSF1uNCkvW2NIXWMoW25IXTMpW0NAQEhdNVtDSDJdW0NIMl1PW0NIMl01

>  <s_epik_cmdline>  (97) 
J2VwaWtfcHl0aG9uJywgJy1waHQnLCAnMi4wJywgJy1waCcsICc3LjAnLCAnLXRuJywgJzgnLCAnLW1hJywgJzIwMCcsICctaW1hZScsICc8aW5maWxlLm1hZT4nLCAnLW9tYWUnLCAnPG91dGZpbGUubWFlPic=

>  <r_lp_tautomer_probability>  (97) 
1

>  <r_epik_Ionization_Penalty>  (97) 
21.5884

>  <r_epik_Ionization_Penalty_Charging>  (97) 
21.5884

>  <r_epik_Ionization_Penalty_Neutral>  (97) 
2.69925e-06

>  <r_epik_State_Penalty>  (97) 
-0

>  <r_epik_Charging_Adjusted_Penalty>  (97) 
21.5884

>  <i_epik_Tot_Q>  (97) 
0

>  <i_epik_Tot_abs_Q>  (97) 
0

>  <s_lp_Force_Field>  (97) 
OPLS3e

>  <r_lp_Energy>  (97) 
43.0912

>  <b_lp_Chiralities_Consistent>  (97) 
1

>  <s_lp_Variant>  (97) 
26:0-2

>  <s_i_glide_gridfile>  (97) 
pfpi4k_grid

>  <i_i_glide_lignum>  (97) 
43

>  <i_i_glide_rotatable_bonds>  (97) 
3

>  <r_i_docking_score>  (97) 
-3.83386

>  <r_i_glide_ligand_efficiency>  (97) 
-0.16669

>  <r_i_glide_ligand_efficiency_sa>  (97) 
-0.474043

>  <r_i_glide_ligand_efficiency_ln>  (97) 
-0.927063

>  <r_i_glide_gscore>  (97) 
-3.83386

>  <r_i_glide_lipo>  (97) 
-0.230359

>  <r_i_glide_hbond>  (97) 
-0.206595

>  <r_i_glide_metal>  (97) 
-0

>  <r_i_glide_rewards>  (97) 
-1.27258

>  <r_i_glide_evdw>  (97) 
-23.4989

>  <r_i_glide_ecoul>  (97) 
-8.49804

>  <r_i_glide_erotb>  (97) 
0.378301

>  <r_i_glide_esite>  (97) 
-0.0529727

>  <r_i_glide_emodel>  (97) 
-39.4165

>  <r_i_glide_energy>  (97) 
-31.997

>  <r_i_glide_einternal>  (97) 
1.7091

>  <r_i_glide_intrahb_reward>  (97) 
-0

>  <i_i_glide_confnum>  (97) 
3

>  <i_i_glide_posenum>  (97) 
24

>  <r_i_glide_eff_state_penalty>  (97) 
0

>  <ligand_id>  (97) 
26

>  <original_smiles>  (97) 
OC1C2C=CC(C2)C1N=c1cc(C2CCOC2)[nH]c2ncnn12

>  <smiles>  (97) 
[H]OC1([H])C([H])(N=c2c([H])c(C3([H])C([H])([H])OC([H])([H])C3([H])[H])nc3nc([H])n([H])n23)C2([H])C([H])=C([H])C1([H])C2([H])[H]

$$$$
26:1:2
     RDKit          3D

 42 46  0  0  1  0  0  0  0  0999 V2000
    2.4166   -2.6527    0.5281 O   0  0  0  0  0  0  0  0  0  0  0  0
    3.8260   -2.6698    0.3861 C   0  0  2  0  0  0  0  0  0  0  0  0
    4.3005   -1.3686   -0.3032 C   0  0  1  0  0  0  0  0  0  0  0  0
    5.8136   -1.3716   -0.2914 C   0  0  0  0  0  0  0  0  0  0  0  0
    6.2158   -2.3131   -1.1471 C   0  0  0  0  0  0  0  0  0  0  0  0
    4.9732   -2.9553   -1.7301 C   0  0  2  0  0  0  0  0  0  0  0  0
    4.0477   -1.7322   -1.7719 C   0  0  0  0  0  0  0  0  0  0  0  0
    4.2780   -3.7966   -0.6178 C   0  0  1  0  0  0  0  0  0  0  0  0
    5.2094   -4.7767   -0.0363 N   0  0  0  0  0  0  0  0  0  0  0  0
    4.7717   -5.7027    0.7661 C   0  0  0  0  0  0  0  0  0  0  0  0
    3.3978   -5.9303    1.1908 C   0  0  0  0  0  0  0  0  0  0  0  0
    3.0814   -6.9417    2.0632 C   0  0  0  0  0  0  0  0  0  0  0  0
    1.6713   -7.2391    2.5391 C   0  0  2  0  0  0  0  0  0  0  0  0
    1.3143   -8.7137    2.5332 C   0  0  0  0  0  0  0  0  0  0  0  0
   -0.2070   -8.6712    2.5379 C   0  0  0  0  0  0  0  0  0  0  0  0
   -0.5739   -7.4810    1.8416 O   0  0  0  0  0  0  0  0  0  0  0  0
    0.5644   -6.6577    1.6679 C   0  0  0  0  0  0  0  0  0  0  0  0
    4.0683   -7.7933    2.6023 N   0  0  0  0  0  0  0  0  0  0  0  0
    5.3053   -7.6282    2.2637 C   0  0  0  0  0  0  0  0  0  0  0  0
    6.4468   -8.2929    2.7081 N   0  0  0  0  0  0  0  0  0  0  0  0
    7.4134   -7.6904    2.0814 C   0  0  0  0  0  0  0  0  0  0  0  0
    7.0020   -6.6711    1.2538 N   0  0  0  0  0  0  0  0  0  0  0  0
    5.6284   -6.6318    1.3605 N   0  0  0  0  0  0  0  0  0  0  0  0
    2.0300   -2.0191   -0.0837 H   0  0  0  0  0  0  0  0  0  0  0  0
    4.2661   -2.7799    1.3756 H   0  0  0  0  0  0  0  0  0  0  0  0
    3.8493   -0.4373    0.0365 H   0  0  0  0  0  0  0  0  0  0  0  0
    6.4235   -0.7457    0.3440 H   0  0  0  0  0  0  0  0  0  0  0  0
    7.2235   -2.6373   -1.3616 H   0  0  0  0  0  0  0  0  0  0  0  0
    5.1188   -3.4623   -2.6843 H   0  0  0  0  0  0  0  0  0  0  0  0
    3.0067   -1.9659   -2.0014 H   0  0  0  0  0  0  0  0  0  0  0  0
    4.3865   -0.9604   -2.4647 H   0  0  0  0  0  0  0  0  0  0  0  0
    3.4098   -4.2924   -1.0616 H   0  0  0  0  0  0  0  0  0  0  0  0
    2.6003   -5.2964    0.8231 H   0  0  0  0  0  0  0  0  0  0  0  0
    1.5686   -6.8557    3.5588 H   0  0  0  0  0  0  0  0  0  0  0  0
    1.6821   -9.1890    1.6207 H   0  0  0  0  0  0  0  0  0  0  0  0
    1.7276   -9.2589    3.3838 H   0  0  0  0  0  0  0  0  0  0  0  0
   -0.6411   -9.5587    2.0804 H   0  0  0  0  0  0  0  0  0  0  0  0
   -0.5779   -8.5912    3.5594 H   0  0  0  0  0  0  0  0  0  0  0  0
    0.3630   -5.6264    1.9611 H   0  0  0  0  0  0  0  0  0  0  0  0
    0.8356   -6.6845    0.6143 H   0  0  0  0  0  0  0  0  0  0  0  0
    8.4818   -7.9074    2.1562 H   0  0  0  0  0  0  0  0  0  0  0  0
    7.4386   -6.4167    0.3812 H   0  0  0  0  0  0  0  0  0  0  0  0
  1  2  1  0
  1 24  1  0
  2  8  1  0
  2  3  1  0
  2 25  1  1
  3  7  1  0
  3  4  1  0
  3 26  1  1
  4  5  2  0
  4 27  1  0
  5  6  1  0
  5 28  1  0
  6  7  1  0
  6  8  1  0
  6 29  1  6
  7 30  1  0
  7 31  1  0
  8  9  1  0
  8 32  1  6
  9 10  2  3
 10 23  1  0
 10 11  1  0
 11 12  2  0
 11 33  1  0
 12 13  1  0
 12 18  1  0
 13 17  1  0
 13 14  1  0
 13 34  1  1
 14 15  1  0
 14 35  1  0
 14 36  1  0
 15 16  1  0
 15 37  1  0
 15 38  1  0
 16 17  1  0
 17 39  1  0
 17 40  1  0
 18 19  2  0
 19 23  1  0
 19 20  1  0
 20 21  2  0
 21 22  1  0
 21 41  1  0
 22 23  1  0
 22 42  1  0
M  END
>  <i_m_ct_stereo_status>  (98) 
1

>  <s_m_source_file>  (98) 
/var/tmp/pbs.5076255.sched01/tmpikn618da/06v91y69d.sdf

>  <i_m_source_file_index>  (98) 
43

>  <i_lp_mmshare_version>  (98) 
48012

>  <i_f3d_flags>  (98) 
0

>  <s_epik_input>  (98) 
W0NIXTE9W0NIXVtDQEhdKFtDSDJdMilbQ0BIXShbQ0BIXShbT0hdKVtDQEBIXTEyKS9OPWMobihjMzQpbltjSF1uNCkvW2NIXWMoW25IXTMpW0NAQEhdNVtDSDJdW0NIMl1PW0NIMl01

>  <s_epik_cmdline>  (98) 
J2VwaWtfcHl0aG9uJywgJy1waHQnLCAnMi4wJywgJy1waCcsICc3LjAnLCAnLXRuJywgJzgnLCAnLW1hJywgJzIwMCcsICctaW1hZScsICc8aW5maWxlLm1hZT4nLCAnLW9tYWUnLCAnPG91dGZpbGUubWFlPic=

>  <r_lp_tautomer_probability>  (98) 
1

>  <r_epik_Ionization_Penalty>  (98) 
21.5884

>  <r_epik_Ionization_Penalty_Charging>  (98) 
21.5884

>  <r_epik_Ionization_Penalty_Neutral>  (98) 
2.69925e-06

>  <r_epik_State_Penalty>  (98) 
-0

>  <r_epik_Charging_Adjusted_Penalty>  (98) 
21.5884

>  <i_epik_Tot_Q>  (98) 
0

>  <i_epik_Tot_abs_Q>  (98) 
0

>  <s_lp_Force_Field>  (98) 
OPLS3e

>  <r_lp_Energy>  (98) 
43.0912

>  <b_lp_Chiralities_Consistent>  (98) 
1

>  <s_lp_Variant>  (98) 
26:0-2

>  <s_i_glide_gridfile>  (98) 
pfpi4k_grid

>  <i_i_glide_lignum>  (98) 
43

>  <i_i_glide_rotatable_bonds>  (98) 
3

>  <r_i_docking_score>  (98) 
-3.39464

>  <r_i_glide_ligand_efficiency>  (98) 
-0.147593

>  <r_i_glide_ligand_efficiency_sa>  (98) 
-0.419735

>  <r_i_glide_ligand_efficiency_ln>  (98) 
-0.820856

>  <r_i_glide_gscore>  (98) 
-3.39464

>  <r_i_glide_lipo>  (98) 
-0.16043

>  <r_i_glide_hbond>  (98) 
-0.16

>  <r_i_glide_metal>  (98) 
-0

>  <r_i_glide_rewards>  (98) 
-1.42195

>  <r_i_glide_evdw>  (98) 
-29.2884

>  <r_i_glide_ecoul>  (98) 
-3.0006

>  <r_i_glide_erotb>  (98) 
0.264811

>  <r_i_glide_esite>  (98) 
-0.00256481

>  <r_i_glide_emodel>  (98) 
-38.65

>  <r_i_glide_energy>  (98) 
-32.289

>  <r_i_glide_einternal>  (98) 
1.7569

>  <r_i_glide_intrahb_reward>  (98) 
-0

>  <i_i_glide_confnum>  (98) 
4

>  <i_i_glide_posenum>  (98) 
2

>  <r_i_glide_eff_state_penalty>  (98) 
0

>  <ligand_id>  (98) 
26

>  <original_smiles>  (98) 
OC1C2C=CC(C2)C1N=c1cc(C2CCOC2)[nH]c2ncnn12

>  <smiles>  (98) 
[H]OC1([H])C([H])(N=c2c([H])c(C3([H])C([H])([H])OC([H])([H])C3([H])[H])nc3nc([H])n([H])n23)C2([H])C([H])=C([H])C1([H])C2([H])[H]

$$$$
27:0:0
     RDKit          3D

 54 56  0  0  1  0  0  0  0  0999 V2000
    3.2046   -1.4155   -3.7791 C   0  0  0  0  0  0  0  0  0  0  0  0
    3.3452   -2.5702   -3.0967 C   0  0  0  0  0  0  0  0  0  0  0  0
    4.2463   -2.8023   -1.8874 C   0  0  1  0  0  0  0  0  0  0  0  0
    5.3849   -3.7478   -2.3592 C   0  0  0  0  0  0  0  0  0  0  0  0
    4.7861   -1.4592   -1.3579 C   0  0  0  0  0  0  0  0  0  0  0  0
    5.5429   -1.6342   -0.0529 C   0  0  0  0  0  0  0  0  0  0  0  0
    6.6257   -1.0827    0.1302 O   0  0  0  0  0  0  0  0  0  0  0  0
    4.8876   -2.5414    0.9945 C   0  0  2  0  0  0  0  0  0  0  0  0
    4.0471   -3.7045    0.4037 C   0  0  2  0  0  0  0  0  0  0  0  0
    4.8674   -4.8562    0.3113 O   0  0  0  0  0  0  0  0  0  0  0  0
    3.4464   -3.3654   -0.8300 O   0  0  0  0  0  0  0  0  0  0  0  0
    2.8992   -3.9148    1.4306 C   0  0  1  0  0  0  0  0  0  0  0  0
    2.6039   -5.2978    1.6412 O   0  0  0  0  0  0  0  0  0  0  0  0
    1.9827   -5.9653    0.5504 C   0  0  0  0  0  0  0  0  0  0  0  0
    3.3255   -3.1624    2.7383 C   0  0  2  0  0  0  0  0  0  0  0  0
    4.4984   -4.2459    3.5689 Cl  0  0  0  0  0  0  0  0  0  0  0  0
    2.1400   -2.8572    3.7498 C   0  0  0  0  0  0  0  0  0  0  0  0
    1.3026   -4.1235    4.0516 C   0  0  0  0  0  0  0  0  0  0  0  0
    2.6228   -2.3437    5.1339 C   0  0  0  0  0  0  0  0  0  0  0  0
    1.1833   -1.8021    3.1493 C   0  0  0  0  0  0  0  0  0  0  0  0
    1.9004   -0.5386    2.6667 C   0  0  0  0  0  0  0  0  0  0  0  0
    3.0047   -0.8594    1.6443 C   0  0  1  0  0  0  0  0  0  0  0  0
    3.5997    0.3682    1.2936 O   0  0  0  0  0  0  0  0  0  0  0  0
    4.0606   -1.9001    2.1551 C   0  0  2  0  0  0  0  0  0  0  0  0
    5.0509   -1.2024    3.1346 C   0  0  0  0  0  0  0  0  0  0  0  0
    3.7463   -0.5220   -3.5160 H   0  0  0  0  0  0  0  0  0  0  0  0
    2.5349   -1.3426   -4.6215 H   0  0  0  0  0  0  0  0  0  0  0  0
    2.7696   -3.4290   -3.4139 H   0  0  0  0  0  0  0  0  0  0  0  0
    5.8893   -3.3457   -3.2382 H   0  0  0  0  0  0  0  0  0  0  0  0
    5.0047   -4.7337   -2.6355 H   0  0  0  0  0  0  0  0  0  0  0  0
    6.1590   -3.8910   -1.6055 H   0  0  0  0  0  0  0  0  0  0  0  0
    5.4499   -1.0013   -2.0920 H   0  0  0  0  0  0  0  0  0  0  0  0
    3.9578   -0.7714   -1.1832 H   0  0  0  0  0  0  0  0  0  0  0  0
    5.7352   -3.0210    1.4890 H   0  0  0  0  0  0  0  0  0  0  0  0
    4.3190   -5.5831    0.0610 H   0  0  0  0  0  0  0  0  0  0  0  0
    2.0205   -3.4176    1.0206 H   0  0  0  0  0  0  0  0  0  0  0  0
    1.7933   -6.9983    0.8386 H   0  0  0  0  0  0  0  0  0  0  0  0
    2.6302   -5.9831   -0.3198 H   0  0  0  0  0  0  0  0  0  0  0  0
    1.0363   -5.5098    0.2634 H   0  0  0  0  0  0  0  0  0  0  0  0
    0.5467   -3.9191    4.8102 H   0  0  0  0  0  0  0  0  0  0  0  0
    1.9200   -4.9407    4.4266 H   0  0  0  0  0  0  0  0  0  0  0  0
    0.7701   -4.4814    3.1721 H   0  0  0  0  0  0  0  0  0  0  0  0
    1.7818   -2.2293    5.8170 H   0  0  0  0  0  0  0  0  0  0  0  0
    3.0938   -1.3682    5.0951 H   0  0  0  0  0  0  0  0  0  0  0  0
    3.3212   -3.0251    5.6180 H   0  0  0  0  0  0  0  0  0  0  0  0
    0.6469   -2.2294    2.3064 H   0  0  0  0  0  0  0  0  0  0  0  0
    0.4131   -1.5335    3.8726 H   0  0  0  0  0  0  0  0  0  0  0  0
    1.1632    0.1206    2.2060 H   0  0  0  0  0  0  0  0  0  0  0  0
    2.3034    0.0140    3.5127 H   0  0  0  0  0  0  0  0  0  0  0  0
    2.5305   -1.2390    0.7401 H   0  0  0  0  0  0  0  0  0  0  0  0
    2.9157    0.9558    1.0117 H   0  0  0  0  0  0  0  0  0  0  0  0
    4.5628   -0.5593    3.8606 H   0  0  0  0  0  0  0  0  0  0  0  0
    5.7423   -0.5505    2.6012 H   0  0  0  0  0  0  0  0  0  0  0  0
    5.6737   -1.9073    3.6795 H   0  0  0  0  0  0  0  0  0  0  0  0
  1  2  2  0
  1 26  1  0
  1 27  1  0
  2  3  1  0
  2 28  1  0
  3 11  1  0
  3  4  1  6
  3  5  1  0
  4 29  1  0
  4 30  1  0
  4 31  1  0
  5  6  1  0
  5 32  1  0
  5 33  1  0
  6  7  2  0
  6  8  1  0
  8 24  1  0
  8  9  1  0
  8 34  1  1
  9 10  1  6
  9 11  1  0
  9 12  1  0
 10 35  1  0
 12 13  1  0
 12 15  1  0
 12 36  1  6
 13 14  1  0
 14 37  1  0
 14 38  1  0
 14 39  1  0
 15 24  1  0
 15 16  1  1
 15 17  1  0
 17 18  1  0
 17 19  1  0
 17 20  1  0
 18 40  1  0
 18 41  1  0
 18 42  1  0
 19 43  1  0
 19 44  1  0
 19 45  1  0
 20 21  1  0
 20 46  1  0
 20 47  1  0
 21 22  1  0
 21 48  1  0
 21 49  1  0
 22 23  1  0
 22 24  1  0
 22 50  1  6
 23 51  1  0
 24 25  1  1
 25 52  1  0
 25 53  1  0
 25 54  1  0
M  END
>  <i_m_ct_stereo_status>  (99) 
1

>  <s_m_source_file>  (99) 
/var/tmp/pbs.5076255.sched01/tmpikn618da/06v91y69d.sdf

>  <i_m_source_file_index>  (99) 
44

>  <i_lp_mmshare_version>  (99) 
48012

>  <i_f3d_flags>  (99) 
0

>  <s_epik_input>  (99) 
W0NIMl09W0NIXVtDQEBdKE8xKShbQ0gzXSlbQ0gyXUMoPU8pW0NASF0oW0NAXTEyW09IXSlbQ0BdMyhbQ0gzXSlbQ0BdKENsKShbQ0BASF0yT1tDSDNdKUMoW0NIM10pKFtDSDNdKVtDSDJdW0NIMl1bQ0BIXTNbT0hd

>  <s_epik_cmdline>  (99) 
J2VwaWtfcHl0aG9uJywgJy1waHQnLCAnMi4wJywgJy1waCcsICc3LjAnLCAnLXRuJywgJzgnLCAnLW1hJywgJzIwMCcsICctaW1hZScsICc8aW5maWxlLm1hZT4nLCAnLW9tYWUnLCAnPG91dGZpbGUubWFlPic=

>  <r_lp_tautomer_probability>  (99) 
1

>  <r_epik_Ionization_Penalty>  (99) 
0.000396161

>  <r_epik_Ionization_Penalty_Charging>  (99) 
0

>  <r_epik_Ionization_Penalty_Neutral>  (99) 
0.000396161

>  <r_epik_State_Penalty>  (99) 
0.000242616

>  <r_epik_Charging_Adjusted_Penalty>  (99) 
0.000242616

>  <i_epik_Tot_Q>  (99) 
0

>  <i_epik_Tot_abs_Q>  (99) 
0

>  <s_lp_Force_Field>  (99) 
OPLS3e

>  <r_lp_Energy>  (99) 
36.7742

>  <b_lp_Chiralities_Consistent>  (99) 
1

>  <s_lp_Variant>  (99) 
27:0-1

>  <s_i_glide_gridfile>  (99) 
pfpi4k_grid

>  <i_i_glide_lignum>  (99) 
44

>  <i_i_glide_rotatable_bonds>  (99) 
4

>  <r_i_docking_score>  (99) 
-2.77522

>  <r_i_glide_ligand_efficiency>  (99) 
-0.111009

>  <r_i_glide_ligand_efficiency_sa>  (99) 
-0.324592

>  <r_i_glide_ligand_efficiency_ln>  (99) 
-0.657811

>  <r_i_glide_gscore>  (99) 
-2.77522

>  <r_i_glide_lipo>  (99) 
-0.453592

>  <r_i_glide_hbond>  (99) 
-0.0458674

>  <r_i_glide_metal>  (99) 
-0

>  <r_i_glide_rewards>  (99) 
-0.892846

>  <r_i_glide_evdw>  (99) 
-25.2322

>  <r_i_glide_ecoul>  (99) 
-1.69954

>  <r_i_glide_erotb>  (99) 
0.138944

>  <r_i_glide_esite>  (99) 
-0.00532341

>  <r_i_glide_emodel>  (99) 
-30.7259

>  <r_i_glide_energy>  (99) 
-26.9317

>  <r_i_glide_einternal>  (99) 
1.47636

>  <r_i_glide_intrahb_reward>  (99) 
-0

>  <i_i_glide_confnum>  (99) 
2

>  <i_i_glide_posenum>  (99) 
9

>  <r_i_glide_eff_state_penalty>  (99) 
0

>  <ligand_id>  (99) 
27

>  <original_smiles>  (99) 
C=CC1(C)CC(=O)C2C(O)(O1)C(OC)C1(Cl)C(C)(C)CCC(O)C21C

>  <smiles>  (99) 
[H]OC1([H])C([H])([H])C([H])([H])C(C([H])([H])[H])(C([H])([H])[H])C2(Cl)C([H])(OC([H])([H])[H])C3(O[H])OC(C([H])=C([H])[H])(C([H])([H])[H])C([H])([H])C(=O)C3([H])C12C([H])([H])[H]

$$$$
27:0:1
     RDKit          3D

 54 56  0  0  1  0  0  0  0  0999 V2000
    3.0043   -1.6480   -3.6210 C   0  0  0  0  0  0  0  0  0  0  0  0
    3.2442   -2.7807   -2.9341 C   0  0  0  0  0  0  0  0  0  0  0  0
    4.1714   -2.9253   -1.7334 C   0  0  1  0  0  0  0  0  0  0  0  0
    5.3458   -3.8328   -2.1885 C   0  0  0  0  0  0  0  0  0  0  0  0
    4.6479   -1.5379   -1.2669 C   0  0  0  0  0  0  0  0  0  0  0  0
    5.4335   -1.6315    0.0304 C   0  0  0  0  0  0  0  0  0  0  0  0
    6.5177   -1.0691    0.1644 O   0  0  0  0  0  0  0  0  0  0  0  0
    4.8307   -2.5151    1.1245 C   0  0  2  0  0  0  0  0  0  0  0  0
    4.0521   -3.7471    0.5960 C   0  0  2  0  0  0  0  0  0  0  0  0
    4.9256   -4.8655    0.5536 O   0  0  0  0  0  0  0  0  0  0  0  0
    3.4203   -3.4972   -0.6449 O   0  0  0  0  0  0  0  0  0  0  0  0
    2.9237   -3.9678    1.6479 C   0  0  1  0  0  0  0  0  0  0  0  0
    2.6873   -5.3518    1.9199 O   0  0  0  0  0  0  0  0  0  0  0  0
    2.0885   -6.0897    0.8622 C   0  0  0  0  0  0  0  0  0  0  0  0
    3.3305   -3.1436    2.9153 C   0  0  2  0  0  0  0  0  0  0  0  0
    4.5693   -4.1338    3.7689 Cl  0  0  0  0  0  0  0  0  0  0  0  0
    2.1441   -2.8567    3.9301 C   0  0  0  0  0  0  0  0  0  0  0  0
    1.3750   -4.1496    4.2948 C   0  0  0  0  0  0  0  0  0  0  0  0
    2.6241   -2.2658    5.2862 C   0  0  0  0  0  0  0  0  0  0  0  0
    1.1304   -1.8743    3.3015 C   0  0  0  0  0  0  0  0  0  0  0  0
    1.7775   -0.5955    2.7639 C   0  0  0  0  0  0  0  0  0  0  0  0
    2.8810   -0.9024    1.7392 C   0  0  1  0  0  0  0  0  0  0  0  0
    3.4127    0.3356    1.3250 O   0  0  0  0  0  0  0  0  0  0  0  0
    3.9926   -1.8689    2.2722 C   0  0  2  0  0  0  0  0  0  0  0  0
    4.9658   -1.0891    3.2048 C   0  0  0  0  0  0  0  0  0  0  0  0
    3.4621   -0.7042   -3.3759 H   0  0  0  0  0  0  0  0  0  0  0  0
    2.3177   -1.6460   -4.4523 H   0  0  0  0  0  0  0  0  0  0  0  0
    2.7407   -3.6867   -3.2430 H   0  0  0  0  0  0  0  0  0  0  0  0
    5.8041   -3.4409   -3.0950 H   0  0  0  0  0  0  0  0  0  0  0  0
    5.0126   -4.8469   -2.4192 H   0  0  0  0  0  0  0  0  0  0  0  0
    6.1459   -3.9048   -1.4549 H   0  0  0  0  0  0  0  0  0  0  0  0
    5.2786   -1.0781   -2.0275 H   0  0  0  0  0  0  0  0  0  0  0  0
    3.7932   -0.8811   -1.1020 H   0  0  0  0  0  0  0  0  0  0  0  0
    5.7074   -2.9283    1.6262 H   0  0  0  0  0  0  0  0  0  0  0  0
    5.5849   -4.7131   -0.1017 H   0  0  0  0  0  0  0  0  0  0  0  0
    2.0158   -3.5361    1.2334 H   0  0  0  0  0  0  0  0  0  0  0  0
    1.9536   -7.1225    1.1823 H   0  0  0  0  0  0  0  0  0  0  0  0
    2.7092   -6.1011   -0.0332 H   0  0  0  0  0  0  0  0  0  0  0  0
    1.1093   -5.6934    0.5995 H   0  0  0  0  0  0  0  0  0  0  0  0
    0.6225   -3.9516    5.0579 H   0  0  0  0  0  0  0  0  0  0  0  0
    2.0380   -4.9196    4.6889 H   0  0  0  0  0  0  0  0  0  0  0  0
    0.8473   -4.5652    3.4374 H   0  0  0  0  0  0  0  0  0  0  0  0
    1.7881   -2.1656    5.9778 H   0  0  0  0  0  0  0  0  0  0  0  0
    3.0480   -1.2709    5.2002 H   0  0  0  0  0  0  0  0  0  0  0  0
    3.3617   -2.8943    5.7833 H   0  0  0  0  0  0  0  0  0  0  0  0
    0.6117   -2.3562    2.4784 H   0  0  0  0  0  0  0  0  0  0  0  0
    0.3586   -1.6148    4.0263 H   0  0  0  0  0  0  0  0  0  0  0  0
    1.0058    0.0099    2.2872 H   0  0  0  0  0  0  0  0  0  0  0  0
    2.1672    0.0074    3.5818 H   0  0  0  0  0  0  0  0  0  0  0  0
    2.4045   -1.3426    0.8642 H   0  0  0  0  0  0  0  0  0  0  0  0
    2.7090    0.8567    0.9748 H   0  0  0  0  0  0  0  0  0  0  0  0
    4.4587   -0.4422    3.9123 H   0  0  0  0  0  0  0  0  0  0  0  0
    5.6168   -0.4282    2.6341 H   0  0  0  0  0  0  0  0  0  0  0  0
    5.6296   -1.7408    3.7664 H   0  0  0  0  0  0  0  0  0  0  0  0
  1  2  2  0
  1 26  1  0
  1 27  1  0
  2  3  1  0
  2 28  1  0
  3 11  1  0
  3  4  1  6
  3  5  1  0
  4 29  1  0
  4 30  1  0
  4 31  1  0
  5  6  1  0
  5 32  1  0
  5 33  1  0
  6  7  2  0
  6  8  1  0
  8 24  1  0
  8  9  1  0
  8 34  1  1
  9 10  1  6
  9 11  1  0
  9 12  1  0
 10 35  1  0
 12 13  1  0
 12 15  1  0
 12 36  1  6
 13 14  1  0
 14 37  1  0
 14 38  1  0
 14 39  1  0
 15 24  1  0
 15 16  1  1
 15 17  1  0
 17 18  1  0
 17 19  1  0
 17 20  1  0
 18 40  1  0
 18 41  1  0
 18 42  1  0
 19 43  1  0
 19 44  1  0
 19 45  1  0
 20 21  1  0
 20 46  1  0
 20 47  1  0
 21 22  1  0
 21 48  1  0
 21 49  1  0
 22 23  1  0
 22 24  1  0
 22 50  1  6
 23 51  1  0
 24 25  1  1
 25 52  1  0
 25 53  1  0
 25 54  1  0
M  END
>  <i_m_ct_stereo_status>  (100) 
1

>  <s_m_source_file>  (100) 
/var/tmp/pbs.5076255.sched01/tmpikn618da/06v91y69d.sdf

>  <i_m_source_file_index>  (100) 
44

>  <i_lp_mmshare_version>  (100) 
48012

>  <i_f3d_flags>  (100) 
0

>  <s_epik_input>  (100) 
W0NIMl09W0NIXVtDQEBdKE8xKShbQ0gzXSlbQ0gyXUMoPU8pW0NASF0oW0NAXTEyW09IXSlbQ0BdMyhbQ0gzXSlbQ0BdKENsKShbQ0BASF0yT1tDSDNdKUMoW0NIM10pKFtDSDNdKVtDSDJdW0NIMl1bQ0BIXTNbT0hd

>  <s_epik_cmdline>  (100) 
J2VwaWtfcHl0aG9uJywgJy1waHQnLCAnMi4wJywgJy1waCcsICc3LjAnLCAnLXRuJywgJzgnLCAnLW1hJywgJzIwMCcsICctaW1hZScsICc8aW5maWxlLm1hZT4nLCAnLW9tYWUnLCAnPG91dGZpbGUubWFlPic=

>  <r_lp_tautomer_probability>  (100) 
1

>  <r_epik_Ionization_Penalty>  (100) 
0.000396161

>  <r_epik_Ionization_Penalty_Charging>  (100) 
0

>  <r_epik_Ionization_Penalty_Neutral>  (100) 
0.000396161

>  <r_epik_State_Penalty>  (100) 
0.000242616

>  <r_epik_Charging_Adjusted_Penalty>  (100) 
0.000242616

>  <i_epik_Tot_Q>  (100) 
0

>  <i_epik_Tot_abs_Q>  (100) 
0

>  <s_lp_Force_Field>  (100) 
OPLS3e

>  <r_lp_Energy>  (100) 
36.7742

>  <b_lp_Chiralities_Consistent>  (100) 
1

>  <s_lp_Variant>  (100) 
27:0-1

>  <s_i_glide_gridfile>  (100) 
pfpi4k_grid

>  <i_i_glide_lignum>  (100) 
44

>  <i_i_glide_rotatable_bonds>  (100) 
4

>  <r_i_docking_score>  (100) 
-2.63071

>  <r_i_glide_ligand_efficiency>  (100) 
-0.105229

>  <r_i_glide_ligand_efficiency_sa>  (100) 
-0.30769

>  <r_i_glide_ligand_efficiency_ln>  (100) 
-0.623558

>  <r_i_glide_gscore>  (100) 
-2.63071

>  <r_i_glide_lipo>  (100) 
-0.41911

>  <r_i_glide_hbond>  (100) 
-0.0302757

>  <r_i_glide_metal>  (100) 
-0

>  <r_i_glide_rewards>  (100) 
-0.892579

>  <r_i_glide_evdw>  (100) 
-24.7558

>  <r_i_glide_ecoul>  (100) 
-1.26601

>  <r_i_glide_erotb>  (100) 
0.138944

>  <r_i_glide_esite>  (100) 
0

>  <r_i_glide_emodel>  (100) 
-29.6996

>  <r_i_glide_energy>  (100) 
-26.0218

>  <r_i_glide_einternal>  (100) 
1.25163

>  <r_i_glide_intrahb_reward>  (100) 
-0

>  <i_i_glide_confnum>  (100) 
2

>  <i_i_glide_posenum>  (100) 
28

>  <r_i_glide_eff_state_penalty>  (100) 
0

>  <ligand_id>  (100) 
27

>  <original_smiles>  (100) 
C=CC1(C)CC(=O)C2C(O)(O1)C(OC)C1(Cl)C(C)(C)CCC(O)C21C

>  <smiles>  (100) 
[H]OC1([H])C([H])([H])C([H])([H])C(C([H])([H])[H])(C([H])([H])[H])C2(Cl)C([H])(OC([H])([H])[H])C3(O[H])OC(C([H])=C([H])[H])(C([H])([H])[H])C([H])([H])C(=O)C3([H])C12C([H])([H])[H]

$$$$
27:0:2
     RDKit          3D

 54 56  0  0  1  0  0  0  0  0999 V2000
    2.9926   -3.2939   -3.9206 C   0  0  0  0  0  0  0  0  0  0  0  0
    2.9793   -2.6568   -2.7366 C   0  0  0  0  0  0  0  0  0  0  0  0
    3.9959   -2.7771   -1.6064 C   0  0  1  0  0  0  0  0  0  0  0  0
    5.2540   -3.5498   -2.1077 C   0  0  0  0  0  0  0  0  0  0  0  0
    4.3432   -1.3503   -1.1407 C   0  0  0  0  0  0  0  0  0  0  0  0
    5.1948   -1.3874    0.1243 C   0  0  0  0  0  0  0  0  0  0  0  0
    6.2049   -0.6929    0.2323 O   0  0  0  0  0  0  0  0  0  0  0  0
    4.7477   -2.3637    1.2223 C   0  0  2  0  0  0  0  0  0  0  0  0
    4.0489   -3.6475    0.6992 C   0  0  2  0  0  0  0  0  0  0  0  0
    5.0114   -4.6779    0.5665 O   0  0  0  0  0  0  0  0  0  0  0  0
    3.3375   -3.4198   -0.4980 O   0  0  0  0  0  0  0  0  0  0  0  0
    3.0086   -4.0059    1.7977 C   0  0  1  0  0  0  0  0  0  0  0  0
    2.9356   -5.4169    2.0215 O   0  0  0  0  0  0  0  0  0  0  0  0
    2.2997   -6.1644    0.9939 C   0  0  0  0  0  0  0  0  0  0  0  0
    3.4055   -3.1832    3.0698 C   0  0  2  0  0  0  0  0  0  0  0  0
    4.7724   -4.0777    3.8269 Cl  0  0  0  0  0  0  0  0  0  0  0  0
    2.2557   -3.0408    4.1541 C   0  0  0  0  0  0  0  0  0  0  0  0
    1.6296   -4.4110    4.5111 C   0  0  0  0  0  0  0  0  0  0  0  0
    2.7438   -2.4474    5.5057 C   0  0  0  0  0  0  0  0  0  0  0  0
    1.1228   -2.1439    3.6121 C   0  0  0  0  0  0  0  0  0  0  0  0
    1.6157   -0.7942    3.0816 C   0  0  0  0  0  0  0  0  0  0  0  0
    2.6897   -0.9572    1.9924 C   0  0  1  0  0  0  0  0  0  0  0  0
    3.0758    0.3439    1.6075 O   0  0  0  0  0  0  0  0  0  0  0  0
    3.9151   -1.8335    2.4369 C   0  0  2  0  0  0  0  0  0  0  0  0
    4.8553   -0.9927    3.3526 C   0  0  0  0  0  0  0  0  0  0  0  0
    3.7573   -4.0070   -4.1873 H   0  0  0  0  0  0  0  0  0  0  0  0
    2.2243   -3.1183   -4.6531 H   0  0  0  0  0  0  0  0  0  0  0  0
    2.1670   -1.9665   -2.5510 H   0  0  0  0  0  0  0  0  0  0  0  0
    5.6547   -3.0917   -3.0115 H   0  0  0  0  0  0  0  0  0  0  0  0
    5.0125   -4.5878   -2.3438 H   0  0  0  0  0  0  0  0  0  0  0  0
    6.0795   -3.5694   -1.3979 H   0  0  0  0  0  0  0  0  0  0  0  0
    4.8725   -0.8067   -1.9252 H   0  0  0  0  0  0  0  0  0  0  0  0
    3.4289   -0.7951   -0.9252 H   0  0  0  0  0  0  0  0  0  0  0  0
    5.6872   -2.7077    1.6603 H   0  0  0  0  0  0  0  0  0  0  0  0
    4.5499   -5.4833    0.3953 H   0  0  0  0  0  0  0  0  0  0  0  0
    2.0422   -3.6474    1.4451 H   0  0  0  0  0  0  0  0  0  0  0  0
    2.2807   -7.2140    1.2823 H   0  0  0  0  0  0  0  0  0  0  0  0
    2.8328   -6.0953    0.0466 H   0  0  0  0  0  0  0  0  0  0  0  0
    1.2702   -5.8435    0.8374 H   0  0  0  0  0  0  0  0  0  0  0  0
    0.9028   -4.3096    5.3167 H   0  0  0  0  0  0  0  0  0  0  0  0
    2.3791   -5.1291    4.8469 H   0  0  0  0  0  0  0  0  0  0  0  0
    1.0995   -4.8517    3.6670 H   0  0  0  0  0  0  0  0  0  0  0  0
    1.9408   -2.4487    6.2425 H   0  0  0  0  0  0  0  0  0  0  0  0
    3.0636   -1.4132    5.4336 H   0  0  0  0  0  0  0  0  0  0  0  0
    3.5642   -3.0132    5.9441 H   0  0  0  0  0  0  0  0  0  0  0  0
    0.6051   -2.6583    2.8056 H   0  0  0  0  0  0  0  0  0  0  0  0
    0.3682   -1.9804    4.3825 H   0  0  0  0  0  0  0  0  0  0  0  0
    0.7650   -0.2518    2.6694 H   0  0  0  0  0  0  0  0  0  0  0  0
    1.9888   -0.1823    3.9009 H   0  0  0  0  0  0  0  0  0  0  0  0
    2.2153   -1.4115    1.1214 H   0  0  0  0  0  0  0  0  0  0  0  0
    2.3194    0.7850    1.2490 H   0  0  0  0  0  0  0  0  0  0  0  0
    4.3255   -0.4209    4.1073 H   0  0  0  0  0  0  0  0  0  0  0  0
    5.4137   -0.2562    2.7758 H   0  0  0  0  0  0  0  0  0  0  0  0
    5.6025   -1.5957    3.8617 H   0  0  0  0  0  0  0  0  0  0  0  0
  1  2  2  0
  1 26  1  0
  1 27  1  0
  2  3  1  0
  2 28  1  0
  3 11  1  0
  3  4  1  6
  3  5  1  0
  4 29  1  0
  4 30  1  0
  4 31  1  0
  5  6  1  0
  5 32  1  0
  5 33  1  0
  6  7  2  0
  6  8  1  0
  8 24  1  0
  8  9  1  0
  8 34  1  1
  9 10  1  6
  9 11  1  0
  9 12  1  0
 10 35  1  0
 12 13  1  0
 12 15  1  0
 12 36  1  6
 13 14  1  0
 14 37  1  0
 14 38  1  0
 14 39  1  0
 15 24  1  0
 15 16  1  1
 15 17  1  0
 17 18  1  0
 17 19  1  0
 17 20  1  0
 18 40  1  0
 18 41  1  0
 18 42  1  0
 19 43  1  0
 19 44  1  0
 19 45  1  0
 20 21  1  0
 20 46  1  0
 20 47  1  0
 21 22  1  0
 21 48  1  0
 21 49  1  0
 22 23  1  0
 22 24  1  0
 22 50  1  6
 23 51  1  0
 24 25  1  1
 25 52  1  0
 25 53  1  0
 25 54  1  0
M  END
>  <i_m_ct_stereo_status>  (101) 
1

>  <s_m_source_file>  (101) 
/var/tmp/pbs.5076255.sched01/tmpikn618da/06v91y69d.sdf

>  <i_m_source_file_index>  (101) 
44

>  <i_lp_mmshare_version>  (101) 
48012

>  <i_f3d_flags>  (101) 
0

>  <s_epik_input>  (101) 
W0NIMl09W0NIXVtDQEBdKE8xKShbQ0gzXSlbQ0gyXUMoPU8pW0NASF0oW0NAXTEyW09IXSlbQ0BdMyhbQ0gzXSlbQ0BdKENsKShbQ0BASF0yT1tDSDNdKUMoW0NIM10pKFtDSDNdKVtDSDJdW0NIMl1bQ0BIXTNbT0hd

>  <s_epik_cmdline>  (101) 
J2VwaWtfcHl0aG9uJywgJy1waHQnLCAnMi4wJywgJy1waCcsICc3LjAnLCAnLXRuJywgJzgnLCAnLW1hJywgJzIwMCcsICctaW1hZScsICc8aW5maWxlLm1hZT4nLCAnLW9tYWUnLCAnPG91dGZpbGUubWFlPic=

>  <r_lp_tautomer_probability>  (101) 
1

>  <r_epik_Ionization_Penalty>  (101) 
0.000396161

>  <r_epik_Ionization_Penalty_Charging>  (101) 
0

>  <r_epik_Ionization_Penalty_Neutral>  (101) 
0.000396161

>  <r_epik_State_Penalty>  (101) 
0.000242616

>  <r_epik_Charging_Adjusted_Penalty>  (101) 
0.000242616

>  <i_epik_Tot_Q>  (101) 
0

>  <i_epik_Tot_abs_Q>  (101) 
0

>  <s_lp_Force_Field>  (101) 
OPLS3e

>  <r_lp_Energy>  (101) 
36.7742

>  <b_lp_Chiralities_Consistent>  (101) 
1

>  <s_lp_Variant>  (101) 
27:0-1

>  <s_i_glide_gridfile>  (101) 
pfpi4k_grid

>  <i_i_glide_lignum>  (101) 
44

>  <i_i_glide_rotatable_bonds>  (101) 
4

>  <r_i_docking_score>  (101) 
-2.56159

>  <r_i_glide_ligand_efficiency>  (101) 
-0.102464

>  <r_i_glide_ligand_efficiency_sa>  (101) 
-0.299606

>  <r_i_glide_ligand_efficiency_ln>  (101) 
-0.607174

>  <r_i_glide_gscore>  (101) 
-2.56159

>  <r_i_glide_lipo>  (101) 
-0.375798

>  <r_i_glide_hbond>  (101) 
0

>  <r_i_glide_metal>  (101) 
-0

>  <r_i_glide_rewards>  (101) 
-0.918707

>  <r_i_glide_evdw>  (101) 
-24.8131

>  <r_i_glide_ecoul>  (101) 
-1.1025

>  <r_i_glide_erotb>  (101) 
0.138944

>  <r_i_glide_esite>  (101) 
0

>  <r_i_glide_emodel>  (101) 
-29.4966

>  <r_i_glide_energy>  (101) 
-25.9156

>  <r_i_glide_einternal>  (101) 
1.17079

>  <r_i_glide_intrahb_reward>  (101) 
-0

>  <i_i_glide_confnum>  (101) 
4

>  <i_i_glide_posenum>  (101) 
19

>  <r_i_glide_eff_state_penalty>  (101) 
0

>  <ligand_id>  (101) 
27

>  <original_smiles>  (101) 
C=CC1(C)CC(=O)C2C(O)(O1)C(OC)C1(Cl)C(C)(C)CCC(O)C21C

>  <smiles>  (101) 
[H]OC1([H])C([H])([H])C([H])([H])C(C([H])([H])[H])(C([H])([H])[H])C2(Cl)C([H])(OC([H])([H])[H])C3(O[H])OC(C([H])=C([H])[H])(C([H])([H])[H])C([H])([H])C(=O)C3([H])C12C([H])([H])[H]

$$$$
28:0:0
     RDKit          3D

 78 83  0  0  1  0  0  0  0  0999 V2000
    0.3441   -6.6071    5.4248 C   0  0  0  0  0  0  0  0  0  0  0  0
   -0.0221   -5.2511    6.0024 C   0  0  0  0  0  0  0  0  0  0  0  0
   -0.8702   -5.1269    6.8923 O   0  0  0  0  0  0  0  0  0  0  0  0
    0.6613   -4.2430    5.4315 O   0  0  0  0  0  0  0  0  0  0  0  0
    0.5319   -2.8993    5.8949 C   0  0  2  0  0  0  0  0  0  0  0  0
   -0.7563   -2.2385    5.3417 C   0  0  0  0  0  0  0  0  0  0  0  0
   -0.9045   -0.8893    5.7748 O   0  0  0  0  0  0  0  0  0  0  0  0
    0.2685   -0.0915    5.6174 C   0  0  2  0  0  0  0  0  0  0  0  0
    0.6664    0.1011    4.1363 C   0  0  0  0  0  0  0  0  0  0  0  0
    2.1345   -0.2986    3.8473 C   0  0  1  0  0  0  0  0  0  0  0  0
    2.8953    0.7714    4.3717 O   0  0  0  0  0  0  0  0  0  0  0  0
    2.5423   -1.7618    4.3326 C   0  0  2  0  0  0  0  0  0  0  0  0
    1.8454   -2.6421    3.2749 C   0  0  0  0  0  0  0  0  0  0  0  0
    1.8691   -2.0522    5.8081 C   0  0  1  0  0  0  0  0  0  0  0  0
    1.3813   -0.7232    6.4582 C   0  0  0  0  0  0  0  0  0  0  0  0
    2.8043   -2.7193    6.8667 C   0  0  0  0  0  0  0  0  0  0  0  0
    4.3190   -2.7802    6.6438 C   0  0  1  0  0  0  0  0  0  0  0  0
    4.7752   -4.1986    6.2837 C   0  0  0  0  0  0  0  0  0  0  0  0
    4.2243   -4.5936    4.9096 C   0  0  0  0  0  0  0  0  0  0  0  0
    4.6335   -3.5427    3.8418 C   0  0  1  0  0  0  0  0  0  0  0  0
    4.6715   -4.0938    2.3347 C   0  0  1  0  0  0  0  0  0  0  0  0
    5.8613   -5.0986    2.2583 C   0  0  0  0  0  0  0  0  0  0  0  0
    3.4536   -4.9450    1.9999 C   0  0  0  0  0  0  0  0  0  0  0  0
    2.6638   -4.8138    0.9089 C   0  0  0  0  0  0  0  0  0  0  0  0
    2.9580   -3.8324   -0.1373 C   0  0  0  0  0  0  0  0  0  0  0  0
    2.1221   -3.4916   -0.9665 O   0  0  0  0  0  0  0  0  0  0  0  0
    4.3936   -3.2935   -0.2196 C   0  0  0  0  0  0  0  0  0  0  0  0
    5.2075   -4.3848   -0.9305 C   0  0  0  0  0  0  0  0  0  0  0  0
    4.4426   -2.0516   -1.1564 C   0  0  0  0  0  0  0  0  0  0  0  0
    4.9484   -2.9839    1.2250 C   0  0  1  0  0  0  0  0  0  0  0  0
    4.6375   -1.5393    1.6719 C   0  0  0  0  0  0  0  0  0  0  0  0
    5.0000   -1.2537    3.1235 C   0  0  1  0  0  0  0  0  0  0  0  0
    5.2016    0.1328    3.2668 O   0  0  0  0  0  0  0  0  0  0  0  0
    4.1645   -2.0447    4.2112 C   0  0  1  0  0  0  0  0  0  0  0  0
    4.8222   -1.7839    5.6061 C   0  0  1  0  0  0  0  0  0  0  0  0
    4.6933   -0.4917    6.1550 O   0  0  0  0  0  0  0  0  0  0  0  0
    0.2505   -6.5973    4.3386 H   0  0  0  0  0  0  0  0  0  0  0  0
   -0.3066   -7.3926    5.8166 H   0  0  0  0  0  0  0  0  0  0  0  0
    1.3737   -6.8660    5.6787 H   0  0  0  0  0  0  0  0  0  0  0  0
    0.3397   -2.9826    6.9727 H   0  0  0  0  0  0  0  0  0  0  0  0
   -0.8306   -2.3113    4.2633 H   0  0  0  0  0  0  0  0  0  0  0  0
   -1.6234   -2.7846    5.7193 H   0  0  0  0  0  0  0  0  0  0  0  0
    0.0302    0.8830    6.0429 H   0  0  0  0  0  0  0  0  0  0  0  0
   -0.0169   -0.4339    3.4728 H   0  0  0  0  0  0  0  0  0  0  0  0
    0.5056    1.1455    3.8686 H   0  0  0  0  0  0  0  0  0  0  0  0
    2.2575   -0.2223    2.7694 H   0  0  0  0  0  0  0  0  0  0  0  0
    2.6036    1.5792    3.9592 H   0  0  0  0  0  0  0  0  0  0  0  0
    1.8893   -3.6909    3.5193 H   0  0  0  0  0  0  0  0  0  0  0  0
    2.2837   -2.5195    2.3012 H   0  0  0  0  0  0  0  0  0  0  0  0
    0.8097   -2.4025    3.1038 H   0  0  0  0  0  0  0  0  0  0  0  0
    2.1916   -0.0158    6.6099 H   0  0  0  0  0  0  0  0  0  0  0  0
    0.9785   -0.8999    7.4577 H   0  0  0  0  0  0  0  0  0  0  0  0
    2.6797   -2.2313    7.8310 H   0  0  0  0  0  0  0  0  0  0  0  0
    2.4618   -3.7330    7.0855 H   0  0  0  0  0  0  0  0  0  0  0  0
    4.8013   -2.5513    7.5896 H   0  0  0  0  0  0  0  0  0  0  0  0
    5.8713   -4.2325    6.2850 H   0  0  0  0  0  0  0  0  0  0  0  0
    4.4405   -4.9087    7.0464 H   0  0  0  0  0  0  0  0  0  0  0  0
    4.6296   -5.5764    4.6710 H   0  0  0  0  0  0  0  0  0  0  0  0
    3.1436   -4.7182    4.9622 H   0  0  0  0  0  0  0  0  0  0  0  0
    5.7077   -3.4864    4.0306 H   0  0  0  0  0  0  0  0  0  0  0  0
    6.8241   -4.6336    2.4799 H   0  0  0  0  0  0  0  0  0  0  0  0
    5.9666   -5.5540    1.2771 H   0  0  0  0  0  0  0  0  0  0  0  0
    5.7471   -5.9385    2.9421 H   0  0  0  0  0  0  0  0  0  0  0  0
    3.2135   -5.7082    2.7244 H   0  0  0  0  0  0  0  0  0  0  0  0
    1.8243   -5.4691    0.7728 H   0  0  0  0  0  0  0  0  0  0  0  0
    6.2831   -4.2201   -0.8110 H   0  0  0  0  0  0  0  0  0  0  0  0
    4.9886   -4.3885   -2.0034 H   0  0  0  0  0  0  0  0  0  0  0  0
    4.9585   -5.3888   -0.5772 H   0  0  0  0  0  0  0  0  0  0  0  0
    5.4543   -1.6407   -1.2169 H   0  0  0  0  0  0  0  0  0  0  0  0
    3.7567   -1.2636   -0.8441 H   0  0  0  0  0  0  0  0  0  0  0  0
    4.1449   -2.3240   -2.1728 H   0  0  0  0  0  0  0  0  0  0  0  0
    6.0391   -2.9391    1.1102 H   0  0  0  0  0  0  0  0  0  0  0  0
    5.2488   -0.8716    1.0617 H   0  0  0  0  0  0  0  0  0  0  0  0
    3.6214   -1.2449    1.4317 H   0  0  0  0  0  0  0  0  0  0  0  0
    6.0400   -1.5892    3.1957 H   0  0  0  0  0  0  0  0  0  0  0  0
    4.3463    0.5378    3.4390 H   0  0  0  0  0  0  0  0  0  0  0  0
    5.9028   -1.9151    5.5334 H   0  0  0  0  0  0  0  0  0  0  0  0
    3.7833   -0.2245    6.1052 H   0  0  0  0  0  0  0  0  0  0  0  0
  1  2  1  0
  1 37  1  0
  1 38  1  0
  1 39  1  0
  2  3  2  0
  2  4  1  0
  4  5  1  0
  5 14  1  0
  5  6  1  0
  5 40  1  1
  6  7  1  0
  6 41  1  0
  6 42  1  0
  7  8  1  0
  8 15  1  0
  8  9  1  0
  8 43  1  1
  9 10  1  0
  9 44  1  0
  9 45  1  0
 10 11  1  0
 10 12  1  0
 10 46  1  6
 11 47  1  0
 34 12  1  1
 12 13  1  6
 12 14  1  0
 13 48  1  0
 13 49  1  0
 13 50  1  0
 14 15  1  0
 14 16  1  1
 15 51  1  0
 15 52  1  0
 16 17  1  0
 16 53  1  0
 16 54  1  0
 17 35  1  0
 17 18  1  0
 17 55  1  1
 18 19  1  0
 18 56  1  0
 18 57  1  0
 19 20  1  0
 19 58  1  0
 19 59  1  0
 20 34  1  0
 20 21  1  0
 20 60  1  1
 21 30  1  0
 21 22  1  1
 21 23  1  0
 22 61  1  0
 22 62  1  0
 22 63  1  0
 23 24  2  0
 23 64  1  0
 24 25  1  0
 24 65  1  0
 25 26  2  0
 25 27  1  0
 27 28  1  0
 27 29  1  0
 27 30  1  0
 28 66  1  0
 28 67  1  0
 28 68  1  0
 29 69  1  0
 29 70  1  0
 29 71  1  0
 30 31  1  0
 30 72  1  6
 31 32  1  0
 31 73  1  0
 31 74  1  0
 32 33  1  0
 32 34  1  0
 32 75  1  6
 33 76  1  0
 34 35  1  0
 35 36  1  0
 35 77  1  6
 36 78  1  0
M  END
>  <i_m_ct_stereo_status>  (102) 
1

>  <s_m_source_file>  (102) 
/var/tmp/pbs.5076255.sched01/tmpikn618da/06v91y69d.sdf

>  <i_m_source_file_index>  (102) 
45

>  <i_lp_mmshare_version>  (102) 
48012

>  <i_f3d_flags>  (102) 
0

>  <s_epik_input>  (102) 
W0NIM11DKD1PKU9bQ0BASF0xW0NIMl1PW0NAQEhdKFtDSDJdMilbQ0gyXVtDQEBIXShbT0hdKVtDQEBdKFtDQF0xMjMpKFtDSDNdKVtDQEBdNDVbQ0BASF0oW0NIMl1bQ0gyXVtDSF0oW0NIMl0zKVtDQEBIXTVbT0hdKVtDQF02KFtDSDNdKVtDQEhdKFtDSDJdW0NASF00W09IXSlDKFtDSDNdKShbQ0gzXSlDKD1PKVtDSF09W0NIXTY=

>  <s_epik_cmdline>  (102) 
J2VwaWtfcHl0aG9uJywgJy1waHQnLCAnMi4wJywgJy1waCcsICc3LjAnLCAnLXRuJywgJzgnLCAnLW1hJywgJzIwMCcsICctaW1hZScsICc8aW5maWxlLm1hZT4nLCAnLW9tYWUnLCAnPG91dGZpbGUubWFlPic=

>  <r_lp_tautomer_probability>  (102) 
1

>  <r_epik_Ionization_Penalty>  (102) 
1.01881e-06

>  <r_epik_Ionization_Penalty_Charging>  (102) 
0

>  <r_epik_Ionization_Penalty_Neutral>  (102) 
1.01881e-06

>  <r_epik_State_Penalty>  (102) 
-0

>  <r_epik_Charging_Adjusted_Penalty>  (102) 
0

>  <i_epik_Tot_Q>  (102) 
0

>  <i_epik_Tot_abs_Q>  (102) 
0

>  <s_epik_Chemistry_Notes>  (102) 
This compound has an ester and may undergo hydrolysis at high or low pH.

>  <s_lp_Force_Field>  (102) 
OPLS3e

>  <r_lp_Energy>  (102) 
128.979

>  <b_lp_Chiralities_Consistent>  (102) 
1

>  <s_lp_Variant>  (102) 
28:0-1

>  <s_i_glide_gridfile>  (102) 
pfpi4k_grid

>  <i_i_glide_lignum>  (102) 
45

>  <i_i_glide_rotatable_bonds>  (102) 
5

>  <r_i_docking_score>  (102) 
-2.98373

>  <r_i_glide_ligand_efficiency>  (102) 
-0.0828814

>  <r_i_glide_ligand_efficiency_sa>  (102) 
-0.273668

>  <r_i_glide_ligand_efficiency_ln>  (102) 
-0.65097

>  <r_i_glide_gscore>  (102) 
-2.98373

>  <r_i_glide_lipo>  (102) 
-0.308389

>  <r_i_glide_hbond>  (102) 
-0.00231942

>  <r_i_glide_metal>  (102) 
-0

>  <r_i_glide_rewards>  (102) 
-1

>  <r_i_glide_evdw>  (102) 
-28.1457

>  <r_i_glide_ecoul>  (102) 
-2.17187

>  <r_i_glide_erotb>  (102) 
0.080882

>  <r_i_glide_esite>  (102) 
-0.0208402

>  <r_i_glide_emodel>  (102) 
-46.1018

>  <r_i_glide_energy>  (102) 
-30.3176

>  <r_i_glide_einternal>  (102) 
0.41709

>  <r_i_glide_intrahb_reward>  (102) 
-1

>  <i_i_glide_confnum>  (102) 
4

>  <i_i_glide_posenum>  (102) 
2

>  <r_i_glide_eff_state_penalty>  (102) 
0

>  <ligand_id>  (102) 
28

>  <original_smiles>  (102) 
CC(=O)OC1COC2CC(O)C3(C)C1(C2)CC1CCC2C4(C)C=CC(=O)C(C)(C)C4CC(O)C23C1O

>  <smiles>  (102) 
[H]OC1([H])C([H])([H])C2([H])C(C([H])([H])[H])(C([H])([H])[H])C(=O)C([H])=C([H])C2(C([H])([H])[H])C2([H])C([H])([H])C([H])([H])C3([H])C([H])([H])C45C([H])([H])C([H])(OC([H])([H])C4([H])OC(=O)C([H])([H])[H])C([H])([H])C([H])(O[H])C5(C([H])([H])[H])C12C3([H])O[H]

$$$$
28:0:1
     RDKit          3D

 78 83  0  0  1  0  0  0  0  0999 V2000
   -0.6014   -5.1065    7.3499 C   0  0  0  0  0  0  0  0  0  0  0  0
    0.1618   -5.3986    6.0661 C   0  0  0  0  0  0  0  0  0  0  0  0
    0.2307   -6.5513    5.6364 O   0  0  0  0  0  0  0  0  0  0  0  0
    0.7329   -4.3491    5.4247 O   0  0  0  0  0  0  0  0  0  0  0  0
    0.6533   -2.9963    5.8633 C   0  0  2  0  0  0  0  0  0  0  0  0
   -0.6344   -2.3366    5.3164 C   0  0  0  0  0  0  0  0  0  0  0  0
   -0.8006   -1.0135    5.8026 O   0  0  0  0  0  0  0  0  0  0  0  0
    0.3691   -0.2075    5.6558 C   0  0  2  0  0  0  0  0  0  0  0  0
    0.7341    0.0076    4.1720 C   0  0  0  0  0  0  0  0  0  0  0  0
    2.1971   -0.3764    3.8450 C   0  0  1  0  0  0  0  0  0  0  0  0
    2.9522    0.6835    4.3875 O   0  0  0  0  0  0  0  0  0  0  0  0
    2.6328   -1.8439    4.2911 C   0  0  2  0  0  0  0  0  0  0  0  0
    1.9194   -2.7184    3.2332 C   0  0  0  0  0  0  0  0  0  0  0  0
    1.9974   -2.1639    5.7730 C   0  0  1  0  0  0  0  0  0  0  0  0
    1.5058   -0.8471    6.4581 C   0  0  0  0  0  0  0  0  0  0  0  0
    2.9422   -2.8555    6.8028 C   0  0  0  0  0  0  0  0  0  0  0  0
    4.4526   -2.9049    6.5603 C   0  0  1  0  0  0  0  0  0  0  0  0
    4.9022   -4.3161    6.1582 C   0  0  0  0  0  0  0  0  0  0  0  0
    4.3376   -4.6866    4.7864 C   0  0  0  0  0  0  0  0  0  0  0  0
    4.7121   -3.6120    3.7280 C   0  0  1  0  0  0  0  0  0  0  0  0
    4.7274   -4.1341    2.2133 C   0  0  1  0  0  0  0  0  0  0  0  0
    5.9216   -5.1261    2.0951 C   0  0  0  0  0  0  0  0  0  0  0  0
    3.5047   -4.9876    1.8900 C   0  0  0  0  0  0  0  0  0  0  0  0
    2.6816   -4.8471    0.8228 C   0  0  0  0  0  0  0  0  0  0  0  0
    2.9550   -3.8461   -0.2103 C   0  0  0  0  0  0  0  0  0  0  0  0
    2.1014   -3.5213   -1.0311 O   0  0  0  0  0  0  0  0  0  0  0  0
    4.3833   -3.2911   -0.3150 C   0  0  0  0  0  0  0  0  0  0  0  0
    5.1888   -4.3599   -1.0675 C   0  0  0  0  0  0  0  0  0  0  0  0
    4.4071   -2.0274   -1.2302 C   0  0  0  0  0  0  0  0  0  0  0  0
    4.9714   -2.9989    1.1179 C   0  0  1  0  0  0  0  0  0  0  0  0
    4.6617   -1.5653    1.6053 C   0  0  0  0  0  0  0  0  0  0  0  0
    5.0611   -1.3095    3.0523 C   0  0  1  0  0  0  0  0  0  0  0  0
    5.2619    0.0726    3.2325 O   0  0  0  0  0  0  0  0  0  0  0  0
    4.2509   -2.1193    4.1368 C   0  0  1  0  0  0  0  0  0  0  0  0
    4.9280   -1.8839    5.5288 C   0  0  1  0  0  0  0  0  0  0  0  0
    4.8030   -0.6011    6.1085 O   0  0  0  0  0  0  0  0  0  0  0  0
    0.0322   -4.6394    8.1021 H   0  0  0  0  0  0  0  0  0  0  0  0
   -1.0062   -6.0346    7.7980 H   0  0  0  0  0  0  0  0  0  0  0  0
   -1.4702   -4.4722    7.1600 H   0  0  0  0  0  0  0  0  0  0  0  0
    0.4939   -3.0354    6.9468 H   0  0  0  0  0  0  0  0  0  0  0  0
   -0.7498   -2.3885    4.2431 H   0  0  0  0  0  0  0  0  0  0  0  0
   -1.4921   -2.8960    5.6919 H   0  0  0  0  0  0  0  0  0  0  0  0
    0.1229    0.7508    6.1105 H   0  0  0  0  0  0  0  0  0  0  0  0
    0.0418   -0.5221    3.5111 H   0  0  0  0  0  0  0  0  0  0  0  0
    0.5582    1.0504    3.9282 H   0  0  0  0  0  0  0  0  0  0  0  0
    2.3031   -0.2774    2.7664 H   0  0  0  0  0  0  0  0  0  0  0  0
    2.6554    1.5019    3.9836 H   0  0  0  0  0  0  0  0  0  0  0  0
    1.9644   -3.7729    3.4661 H   0  0  0  0  0  0  0  0  0  0  0  0
    2.3303   -2.5813    2.2532 H   0  0  0  0  0  0  0  0  0  0  0  0
    0.8814   -2.4825    3.0846 H   0  0  0  0  0  0  0  0  0  0  0  0
    2.3118   -0.1368    6.6238 H   0  0  0  0  0  0  0  0  0  0  0  0
    1.1268   -1.0502    7.4564 H   0  0  0  0  0  0  0  0  0  0  0  0
    2.8245   -2.3968    7.7801 H   0  0  0  0  0  0  0  0  0  0  0  0
    2.6037   -3.8799    6.9985 H   0  0  0  0  0  0  0  0  0  0  0  0
    4.9494   -2.6934    7.4979 H   0  0  0  0  0  0  0  0  0  0  0  0
    5.9930   -4.3451    6.1370 H   0  0  0  0  0  0  0  0  0  0  0  0
    4.5958   -5.0454    6.9138 H   0  0  0  0  0  0  0  0  0  0  0  0
    4.7447   -5.6652    4.5246 H   0  0  0  0  0  0  0  0  0  0  0  0
    3.2633   -4.8234    4.8569 H   0  0  0  0  0  0  0  0  0  0  0  0
    5.7847   -3.5571    3.9023 H   0  0  0  0  0  0  0  0  0  0  0  0
    6.8822   -4.6527    2.3076 H   0  0  0  0  0  0  0  0  0  0  0  0
    6.0130   -5.5691    1.1070 H   0  0  0  0  0  0  0  0  0  0  0  0
    5.8307   -5.9781    2.7626 H   0  0  0  0  0  0  0  0  0  0  0  0
    3.2793   -5.7709    2.6003 H   0  0  0  0  0  0  0  0  0  0  0  0
    1.8353   -5.4987    0.6842 H   0  0  0  0  0  0  0  0  0  0  0  0
    6.2635   -4.2045   -0.9628 H   0  0  0  0  0  0  0  0  0  0  0  0
    4.9571   -4.3573   -2.1385 H   0  0  0  0  0  0  0  0  0  0  0  0
    4.9568   -5.3647   -0.7319 H   0  0  0  0  0  0  0  0  0  0  0  0
    5.4151   -1.6080   -1.3031 H   0  0  0  0  0  0  0  0  0  0  0  0
    3.7307   -1.2505   -0.8931 H   0  0  0  0  0  0  0  0  0  0  0  0
    4.0925   -2.2710   -2.2528 H   0  0  0  0  0  0  0  0  0  0  0  0
    6.0700   -2.9532    0.9764 H   0  0  0  0  0  0  0  0  0  0  0  0
    5.2565   -0.8853    0.9998 H   0  0  0  0  0  0  0  0  0  0  0  0
    3.6376   -1.2672    1.3929 H   0  0  0  0  0  0  0  0  0  0  0  0
    6.1109   -1.6395    3.1022 H   0  0  0  0  0  0  0  0  0  0  0  0
    4.4066    0.4817    3.3702 H   0  0  0  0  0  0  0  0  0  0  0  0
    6.0104   -2.0109    5.4423 H   0  0  0  0  0  0  0  0  0  0  0  0
    3.8823   -0.3472    6.0867 H   0  0  0  0  0  0  0  0  0  0  0  0
  1  2  1  0
  1 37  1  0
  1 38  1  0
  1 39  1  0
  2  3  2  0
  2  4  1  0
  4  5  1  0
  5 14  1  0
  5  6  1  0
  5 40  1  1
  6  7  1  0
  6 41  1  0
  6 42  1  0
  7  8  1  0
  8 15  1  0
  8  9  1  0
  8 43  1  1
  9 10  1  0
  9 44  1  0
  9 45  1  0
 10 11  1  0
 10 12  1  0
 10 46  1  6
 11 47  1  0
 34 12  1  1
 12 13  1  6
 12 14  1  0
 13 48  1  0
 13 49  1  0
 13 50  1  0
 14 15  1  0
 14 16  1  1
 15 51  1  0
 15 52  1  0
 16 17  1  0
 16 53  1  0
 16 54  1  0
 17 35  1  0
 17 18  1  0
 17 55  1  1
 18 19  1  0
 18 56  1  0
 18 57  1  0
 19 20  1  0
 19 58  1  0
 19 59  1  0
 20 34  1  0
 20 21  1  0
 20 60  1  1
 21 30  1  0
 21 22  1  1
 21 23  1  0
 22 61  1  0
 22 62  1  0
 22 63  1  0
 23 24  2  0
 23 64  1  0
 24 25  1  0
 24 65  1  0
 25 26  2  0
 25 27  1  0
 27 28  1  0
 27 29  1  0
 27 30  1  0
 28 66  1  0
 28 67  1  0
 28 68  1  0
 29 69  1  0
 29 70  1  0
 29 71  1  0
 30 31  1  0
 30 72  1  6
 31 32  1  0
 31 73  1  0
 31 74  1  0
 32 33  1  0
 32 34  1  0
 32 75  1  6
 33 76  1  0
 34 35  1  0
 35 36  1  0
 35 77  1  6
 36 78  1  0
M  END
>  <i_m_ct_stereo_status>  (103) 
1

>  <s_m_source_file>  (103) 
/var/tmp/pbs.5076255.sched01/tmpikn618da/06v91y69d.sdf

>  <i_m_source_file_index>  (103) 
45

>  <i_lp_mmshare_version>  (103) 
48012

>  <i_f3d_flags>  (103) 
0

>  <s_epik_input>  (103) 
W0NIM11DKD1PKU9bQ0BASF0xW0NIMl1PW0NAQEhdKFtDSDJdMilbQ0gyXVtDQEBIXShbT0hdKVtDQEBdKFtDQF0xMjMpKFtDSDNdKVtDQEBdNDVbQ0BASF0oW0NIMl1bQ0gyXVtDSF0oW0NIMl0zKVtDQEBIXTVbT0hdKVtDQF02KFtDSDNdKVtDQEhdKFtDSDJdW0NASF00W09IXSlDKFtDSDNdKShbQ0gzXSlDKD1PKVtDSF09W0NIXTY=

>  <s_epik_cmdline>  (103) 
J2VwaWtfcHl0aG9uJywgJy1waHQnLCAnMi4wJywgJy1waCcsICc3LjAnLCAnLXRuJywgJzgnLCAnLW1hJywgJzIwMCcsICctaW1hZScsICc8aW5maWxlLm1hZT4nLCAnLW9tYWUnLCAnPG91dGZpbGUubWFlPic=

>  <r_lp_tautomer_probability>  (103) 
1

>  <r_epik_Ionization_Penalty>  (103) 
1.01881e-06

>  <r_epik_Ionization_Penalty_Charging>  (103) 
0

>  <r_epik_Ionization_Penalty_Neutral>  (103) 
1.01881e-06

>  <r_epik_State_Penalty>  (103) 
-0

>  <r_epik_Charging_Adjusted_Penalty>  (103) 
0

>  <i_epik_Tot_Q>  (103) 
0

>  <i_epik_Tot_abs_Q>  (103) 
0

>  <s_epik_Chemistry_Notes>  (103) 
This compound has an ester and may undergo hydrolysis at high or low pH.

>  <s_lp_Force_Field>  (103) 
OPLS3e

>  <r_lp_Energy>  (103) 
128.979

>  <b_lp_Chiralities_Consistent>  (103) 
1

>  <s_lp_Variant>  (103) 
28:0-1

>  <s_i_glide_gridfile>  (103) 
pfpi4k_grid

>  <i_i_glide_lignum>  (103) 
45

>  <i_i_glide_rotatable_bonds>  (103) 
5

>  <r_i_docking_score>  (103) 
-2.90457

>  <r_i_glide_ligand_efficiency>  (103) 
-0.0806826

>  <r_i_glide_ligand_efficiency_sa>  (103) 
-0.266408

>  <r_i_glide_ligand_efficiency_ln>  (103) 
-0.6337

>  <r_i_glide_gscore>  (103) 
-2.90457

>  <r_i_glide_lipo>  (103) 
-0.377887

>  <r_i_glide_hbond>  (103) 
0

>  <r_i_glide_metal>  (103) 
-0

>  <r_i_glide_rewards>  (103) 
-1

>  <r_i_glide_evdw>  (103) 
-27.9364

>  <r_i_glide_ecoul>  (103) 
-1.24331

>  <r_i_glide_erotb>  (103) 
0.080882

>  <r_i_glide_esite>  (103) 
-0.0242534

>  <r_i_glide_emodel>  (103) 
-42.2662

>  <r_i_glide_energy>  (103) 
-29.1797

>  <r_i_glide_einternal>  (103) 
5.36354

>  <r_i_glide_intrahb_reward>  (103) 
-1

>  <i_i_glide_confnum>  (103) 
4

>  <i_i_glide_posenum>  (103) 
19

>  <r_i_glide_eff_state_penalty>  (103) 
0

>  <ligand_id>  (103) 
28

>  <original_smiles>  (103) 
CC(=O)OC1COC2CC(O)C3(C)C1(C2)CC1CCC2C4(C)C=CC(=O)C(C)(C)C4CC(O)C23C1O

>  <smiles>  (103) 
[H]OC1([H])C([H])([H])C2([H])C(C([H])([H])[H])(C([H])([H])[H])C(=O)C([H])=C([H])C2(C([H])([H])[H])C2([H])C([H])([H])C([H])([H])C3([H])C([H])([H])C45C([H])([H])C([H])(OC([H])([H])C4([H])OC(=O)C([H])([H])[H])C([H])([H])C([H])(O[H])C5(C([H])([H])[H])C12C3([H])O[H]

$$$$
28:0:2
     RDKit          3D

 78 83  0  0  1  0  0  0  0  0999 V2000
    0.0150   -5.7073    7.0944 C   0  0  0  0  0  0  0  0  0  0  0  0
   -0.4071   -4.2503    7.0530 C   0  0  0  0  0  0  0  0  0  0  0  0
   -1.3616   -3.8462    7.7221 O   0  0  0  0  0  0  0  0  0  0  0  0
    0.3606   -3.5101    6.2289 O   0  0  0  0  0  0  0  0  0  0  0  0
    0.2324   -2.0904    6.1401 C   0  0  2  0  0  0  0  0  0  0  0  0
   -1.0260   -1.6813    5.3328 C   0  0  0  0  0  0  0  0  0  0  0  0
   -1.1605   -0.2686    5.2167 O   0  0  0  0  0  0  0  0  0  0  0  0
    0.0270    0.4176    4.8207 C   0  0  2  0  0  0  0  0  0  0  0  0
    0.4706    0.0561    3.3876 C   0  0  0  0  0  0  0  0  0  0  0  0
    1.9313   -0.4390    3.3011 C   0  0  1  0  0  0  0  0  0  0  0  0
    2.6931    0.7478    3.3766 O   0  0  0  0  0  0  0  0  0  0  0  0
    2.3014   -1.6247    4.3126 C   0  0  2  0  0  0  0  0  0  0  0  0
    1.6122   -2.8326    3.6482 C   0  0  0  0  0  0  0  0  0  0  0  0
    1.5908   -1.3433    5.7748 C   0  0  1  0  0  0  0  0  0  0  0  0
    1.1149    0.1360    5.8636 C   0  0  0  0  0  0  0  0  0  0  0  0
    2.4963   -1.5692    7.0327 C   0  0  0  0  0  0  0  0  0  0  0  0
    4.0158   -1.7174    6.8799 C   0  0  1  0  0  0  0  0  0  0  0  0
    4.4482   -3.1726    7.0889 C   0  0  0  0  0  0  0  0  0  0  0  0
    3.9285   -4.0533    5.9474 C   0  0  0  0  0  0  0  0  0  0  0  0
    4.3700   -3.4857    4.5736 C   0  0  1  0  0  0  0  0  0  0  0  0
    4.4327   -4.5576    3.3831 C   0  0  1  0  0  0  0  0  0  0  0  0
    5.6053   -5.5311    3.7182 C   0  0  0  0  0  0  0  0  0  0  0  0
    3.1992   -5.4628    3.3620 C   0  0  0  0  0  0  0  0  0  0  0  0
    2.4268   -5.7382    2.2955 C   0  0  0  0  0  0  0  0  0  0  0  0
    2.7454   -5.2085    0.9685 C   0  0  0  0  0  0  0  0  0  0  0  0
    1.9013   -5.1528    0.0806 O   0  0  0  0  0  0  0  0  0  0  0  0
    4.2063   -4.7742    0.7130 C   0  0  0  0  0  0  0  0  0  0  0  0
    5.0162   -6.0710    0.4800 C   0  0  0  0  0  0  0  0  0  0  0  0
    4.3118   -3.9667   -0.6132 C   0  0  0  0  0  0  0  0  0  0  0  0
    4.7491   -3.9441    1.9476 C   0  0  1  0  0  0  0  0  0  0  0  0
    4.4497   -2.4276    1.8182 C   0  0  0  0  0  0  0  0  0  0  0  0
    4.7934   -1.6277    3.0707 C   0  0  1  0  0  0  0  0  0  0  0  0
    5.0107   -0.2790    2.7254 O   0  0  0  0  0  0  0  0  0  0  0  0
    3.9202   -1.9555    4.3466 C   0  0  1  0  0  0  0  0  0  0  0  0
    4.5605   -1.1921    5.5519 C   0  0  1  0  0  0  0  0  0  0  0  0
    4.4515    0.2136    5.5461 O   0  0  0  0  0  0  0  0  0  0  0  0
    0.0439   -6.1249    6.0877 H   0  0  0  0  0  0  0  0  0  0  0  0
   -0.6902   -6.2842    7.6923 H   0  0  0  0  0  0  0  0  0  0  0  0
    1.0026   -5.8024    7.5465 H   0  0  0  0  0  0  0  0  0  0  0  0
    0.0075   -1.7630    7.1601 H   0  0  0  0  0  0  0  0  0  0  0  0
   -1.0718   -2.1480    4.3578 H   0  0  0  0  0  0  0  0  0  0  0  0
   -1.9178   -2.0423    5.8445 H   0  0  0  0  0  0  0  0  0  0  0  0
   -0.2130    1.4804    4.8517 H   0  0  0  0  0  0  0  0  0  0  0  0
   -0.1881   -0.6892    2.9548 H   0  0  0  0  0  0  0  0  0  0  0  0
    0.3261    0.9253    2.7431 H   0  0  0  0  0  0  0  0  0  0  0  0
    2.0662   -0.7837    2.2794 H   0  0  0  0  0  0  0  0  0  0  0  0
    2.3503    1.3742    2.7463 H   0  0  0  0  0  0  0  0  0  0  0  0
    1.6270   -3.7165    4.2661 H   0  0  0  0  0  0  0  0  0  0  0  0
    2.0721   -3.0900    2.7104 H   0  0  0  0  0  0  0  0  0  0  0  0
    0.5856   -2.6679    3.3646 H   0  0  0  0  0  0  0  0  0  0  0  0
    1.9424    0.8330    5.7567 H   0  0  0  0  0  0  0  0  0  0  0  0
    0.6895    0.3584    6.8445 H   0  0  0  0  0  0  0  0  0  0  0  0
    2.3497   -0.7568    7.7418 H   0  0  0  0  0  0  0  0  0  0  0  0
    2.1364   -2.4269    7.5999 H   0  0  0  0  0  0  0  0  0  0  0  0
    4.4818   -1.1487    7.6827 H   0  0  0  0  0  0  0  0  0  0  0  0
    5.5409   -3.2167    7.1303 H   0  0  0  0  0  0  0  0  0  0  0  0
    4.0917   -3.5449    8.0523 H   0  0  0  0  0  0  0  0  0  0  0  0
    4.3220   -5.0552    6.1101 H   0  0  0  0  0  0  0  0  0  0  0  0
    2.8462   -4.1455    6.0138 H   0  0  0  0  0  0  0  0  0  0  0  0
    5.4403   -3.3729    4.7555 H   0  0  0  0  0  0  0  0  0  0  0  0
    6.5717   -5.0308    3.7757 H   0  0  0  0  0  0  0  0  0  0  0  0
    5.7205   -6.3232    2.9866 H   0  0  0  0  0  0  0  0  0  0  0  0
    5.4626   -6.0495    4.6640 H   0  0  0  0  0  0  0  0  0  0  0  0
    2.9301   -5.9038    4.3094 H   0  0  0  0  0  0  0  0  0  0  0  0
    1.5638   -6.3837    2.3824 H   0  0  0  0  0  0  0  0  0  0  0  0
    6.0931   -5.8994    0.5557 H   0  0  0  0  0  0  0  0  0  0  0  0
    4.8231   -6.4762   -0.5138 H   0  0  0  0  0  0  0  0  0  0  0  0
    4.7467   -6.8667    1.1764 H   0  0  0  0  0  0  0  0  0  0  0  0
    5.3303   -3.6069   -0.7882 H   0  0  0  0  0  0  0  0  0  0  0  0
    3.6334   -3.1098   -0.6389 H   0  0  0  0  0  0  0  0  0  0  0  0
    4.0510   -4.5793   -1.4763 H   0  0  0  0  0  0  0  0  0  0  0  0
    5.8399   -3.9644    1.8464 H   0  0  0  0  0  0  0  0  0  0  0  0
    5.0866   -2.0393    1.0223 H   0  0  0  0  0  0  0  0  0  0  0  0
    3.4475   -2.2321    1.4616 H   0  0  0  0  0  0  0  0  0  0  0  0
    5.8217   -1.9155    3.2924 H   0  0  0  0  0  0  0  0  0  0  0  0
    4.1593    0.1403    2.6244 H   0  0  0  0  0  0  0  0  0  0  0  0
    5.6400   -1.3529    5.5562 H   0  0  0  0  0  0  0  0  0  0  0  0
    4.7162    0.5267    4.6884 H   0  0  0  0  0  0  0  0  0  0  0  0
  1  2  1  0
  1 37  1  0
  1 38  1  0
  1 39  1  0
  2  3  2  0
  2  4  1  0
  4  5  1  0
  5 14  1  0
  5  6  1  0
  5 40  1  1
  6  7  1  0
  6 41  1  0
  6 42  1  0
  7  8  1  0
  8 15  1  0
  8  9  1  0
  8 43  1  6
  9 10  1  0
  9 44  1  0
  9 45  1  0
 10 11  1  0
 10 12  1  0
 10 46  1  6
 11 47  1  0
 34 12  1  6
 12 13  1  6
 12 14  1  0
 13 48  1  0
 13 49  1  0
 13 50  1  0
 14 15  1  0
 14 16  1  1
 15 51  1  0
 15 52  1  0
 16 17  1  0
 16 53  1  0
 16 54  1  0
 17 35  1  0
 17 18  1  0
 17 55  1  1
 18 19  1  0
 18 56  1  0
 18 57  1  0
 19 20  1  0
 19 58  1  0
 19 59  1  0
 20 34  1  0
 20 21  1  0
 20 60  1  1
 21 30  1  0
 21 22  1  1
 21 23  1  0
 22 61  1  0
 22 62  1  0
 22 63  1  0
 23 24  2  0
 23 64  1  0
 24 25  1  0
 24 65  1  0
 25 26  2  0
 25 27  1  0
 27 28  1  0
 27 29  1  0
 27 30  1  0
 28 66  1  0
 28 67  1  0
 28 68  1  0
 29 69  1  0
 29 70  1  0
 29 71  1  0
 30 31  1  0
 30 72  1  6
 31 32  1  0
 31 73  1  0
 31 74  1  0
 32 33  1  0
 32 34  1  0
 32 75  1  1
 33 76  1  0
 34 35  1  0
 35 36  1  0
 35 77  1  1
 36 78  1  0
M  END
>  <i_m_ct_stereo_status>  (104) 
1

>  <s_m_source_file>  (104) 
/var/tmp/pbs.5076255.sched01/tmpikn618da/06v91y69d.sdf

>  <i_m_source_file_index>  (104) 
45

>  <i_lp_mmshare_version>  (104) 
48012

>  <i_f3d_flags>  (104) 
0

>  <s_epik_input>  (104) 
W0NIM11DKD1PKU9bQ0BASF0xW0NIMl1PW0NAQEhdKFtDSDJdMilbQ0gyXVtDQEBIXShbT0hdKVtDQEBdKFtDQF0xMjMpKFtDSDNdKVtDQEBdNDVbQ0BASF0oW0NIMl1bQ0gyXVtDSF0oW0NIMl0zKVtDQEBIXTVbT0hdKVtDQF02KFtDSDNdKVtDQEhdKFtDSDJdW0NASF00W09IXSlDKFtDSDNdKShbQ0gzXSlDKD1PKVtDSF09W0NIXTY=

>  <s_epik_cmdline>  (104) 
J2VwaWtfcHl0aG9uJywgJy1waHQnLCAnMi4wJywgJy1waCcsICc3LjAnLCAnLXRuJywgJzgnLCAnLW1hJywgJzIwMCcsICctaW1hZScsICc8aW5maWxlLm1hZT4nLCAnLW9tYWUnLCAnPG91dGZpbGUubWFlPic=

>  <r_lp_tautomer_probability>  (104) 
1

>  <r_epik_Ionization_Penalty>  (104) 
1.01881e-06

>  <r_epik_Ionization_Penalty_Charging>  (104) 
0

>  <r_epik_Ionization_Penalty_Neutral>  (104) 
1.01881e-06

>  <r_epik_State_Penalty>  (104) 
-0

>  <r_epik_Charging_Adjusted_Penalty>  (104) 
0

>  <i_epik_Tot_Q>  (104) 
0

>  <i_epik_Tot_abs_Q>  (104) 
0

>  <s_epik_Chemistry_Notes>  (104) 
This compound has an ester and may undergo hydrolysis at high or low pH.

>  <s_lp_Force_Field>  (104) 
OPLS3e

>  <r_lp_Energy>  (104) 
128.979

>  <b_lp_Chiralities_Consistent>  (104) 
1

>  <s_lp_Variant>  (104) 
28:0-1

>  <s_i_glide_gridfile>  (104) 
pfpi4k_grid

>  <i_i_glide_lignum>  (104) 
45

>  <i_i_glide_rotatable_bonds>  (104) 
5

>  <r_i_docking_score>  (104) 
-2.86067

>  <r_i_glide_ligand_efficiency>  (104) 
-0.0794631

>  <r_i_glide_ligand_efficiency_sa>  (104) 
-0.262382

>  <r_i_glide_ligand_efficiency_ln>  (104) 
-0.624122

>  <r_i_glide_gscore>  (104) 
-2.86067

>  <r_i_glide_lipo>  (104) 
-0.323631

>  <r_i_glide_hbond>  (104) 
-0.0704196

>  <r_i_glide_metal>  (104) 
-0

>  <r_i_glide_rewards>  (104) 
-0.5

>  <r_i_glide_evdw>  (104) 
-27.9002

>  <r_i_glide_ecoul>  (104) 
-4.08114

>  <r_i_glide_erotb>  (104) 
0.080882

>  <r_i_glide_esite>  (104) 
-0.0403223

>  <r_i_glide_emodel>  (104) 
-42.3337

>  <r_i_glide_energy>  (104) 
-31.9814

>  <r_i_glide_einternal>  (104) 
0.846265

>  <r_i_glide_intrahb_reward>  (104) 
-0.5

>  <i_i_glide_confnum>  (104) 
4

>  <i_i_glide_posenum>  (104) 
21

>  <r_i_glide_eff_state_penalty>  (104) 
0

>  <ligand_id>  (104) 
28

>  <original_smiles>  (104) 
CC(=O)OC1COC2CC(O)C3(C)C1(C2)CC1CCC2C4(C)C=CC(=O)C(C)(C)C4CC(O)C23C1O

>  <smiles>  (104) 
[H]OC1([H])C([H])([H])C2([H])C(C([H])([H])[H])(C([H])([H])[H])C(=O)C([H])=C([H])C2(C([H])([H])[H])C2([H])C([H])([H])C([H])([H])C3([H])C([H])([H])C45C([H])([H])C([H])(OC([H])([H])C4([H])OC(=O)C([H])([H])[H])C([H])([H])C([H])(O[H])C5(C([H])([H])[H])C12C3([H])O[H]

$$$$
29:0:0
     RDKit          3D

 75 82  0  0  1  0  0  0  0  0999 V2000
   -0.1508   -8.5144    4.6875 C   0  0  0  0  0  0  0  0  0  0  0  0
    1.3238   -8.2468    5.0826 C   0  0  1  0  0  0  0  0  0  0  0  0
    1.7902   -9.3916    6.0346 C   0  0  0  0  0  0  0  0  0  0  0  0
    2.7444  -10.4102    5.4109 C   0  0  1  0  0  0  0  0  0  0  0  0
    3.4046  -11.0850    6.4618 O   0  0  0  0  0  0  0  0  0  0  0  0
    1.9108  -11.4200    4.6323 C   0  0  0  0  0  0  0  0  0  0  0  0
    1.6903  -11.3340    3.3052 C   0  0  0  0  0  0  0  0  0  0  0  0
    2.2739  -10.2140    2.4669 C   0  0  0  0  0  0  0  0  0  0  0  0
    2.9432   -9.1210    3.3329 C   0  0  1  0  0  0  0  0  0  0  0  0
    1.9425   -8.1971    3.7747 O   0  0  0  0  0  0  0  0  0  0  0  0
    3.7815   -9.6667    4.5118 C   0  0  2  0  0  0  0  0  0  0  0  0
    4.8555  -10.6647    3.9713 C   0  0  0  0  0  0  0  0  0  0  0  0
    4.5528   -8.5202    5.2647 C   0  0  0  0  0  0  0  0  0  0  0  0
    4.1554   -7.0190    5.0699 C   0  0  0  0  0  0  0  0  0  0  0  0
    3.0626   -6.3490    5.9723 C   0  0  1  0  0  0  0  0  0  0  0  0
    3.4694   -6.5914    7.4578 C   0  0  0  0  0  0  0  0  0  0  0  0
    2.7062   -5.7356    8.4679 C   0  0  1  0  0  0  0  0  0  0  0  0
    1.9868   -4.4992    7.9158 C   0  0  1  0  0  0  0  0  0  0  0  0
    2.4605   -3.8795    6.6084 C   0  0  2  0  0  0  0  0  0  0  0  0
    3.1035   -4.8291    5.6260 C   0  0  1  0  0  0  0  0  0  0  0  0
    3.8935   -3.6391    6.1857 C   0  0  0  0  0  0  0  0  0  0  0  0
    4.1286   -2.4634    5.2446 C   0  0  0  0  0  0  0  0  0  0  0  0
    5.0663   -3.7273    7.1546 C   0  0  0  0  0  0  0  0  0  0  0  0
    0.6988   -5.3563    7.8845 C   0  0  1  0  0  0  0  0  0  0  0  0
   -0.5771   -4.5781    8.2881 C   0  0  0  0  0  0  0  0  0  0  0  0
    0.4039   -6.1888    6.5659 C   0  0  1  0  0  0  0  0  0  0  0  0
   -0.4399   -5.4345    5.6919 O   0  0  0  0  0  0  0  0  0  0  0  0
    1.5696   -6.7889    5.6545 C   0  0  2  0  0  0  0  0  0  0  0  0
    1.3532   -6.1690    9.0465 C   0  0  2  0  0  0  0  0  0  0  0  0
    1.0901   -5.6712   10.4913 C   0  0  0  0  0  0  0  0  0  0  0  0
    0.3427   -6.8155   11.1781 C   0  0  0  0  0  0  0  0  0  0  0  0
   -0.1067   -7.6100   10.1027 O   0  0  0  0  0  0  0  0  0  0  0  0
    0.9461   -7.6475    9.1562 C   0  0  0  0  0  0  0  0  0  0  0  0
   -0.8016   -8.6376    5.5521 H   0  0  0  0  0  0  0  0  0  0  0  0
   -0.2438   -9.4349    4.1149 H   0  0  0  0  0  0  0  0  0  0  0  0
   -0.5479   -7.7124    4.0727 H   0  0  0  0  0  0  0  0  0  0  0  0
    2.2660   -8.9809    6.9098 H   0  0  0  0  0  0  0  0  0  0  0  0
    0.9354   -9.9224    6.4604 H   0  0  0  0  0  0  0  0  0  0  0  0
    2.7597  -11.6282    6.9168 H   0  0  0  0  0  0  0  0  0  0  0  0
    1.4705  -12.2372    5.1875 H   0  0  0  0  0  0  0  0  0  0  0  0
    1.0966  -12.0843    2.8013 H   0  0  0  0  0  0  0  0  0  0  0  0
    3.0080  -10.6551    1.7932 H   0  0  0  0  0  0  0  0  0  0  0  0
    1.4933   -9.7872    1.8393 H   0  0  0  0  0  0  0  0  0  0  0  0
    3.5938   -8.5604    2.6612 H   0  0  0  0  0  0  0  0  0  0  0  0
    5.4762  -10.2015    3.2026 H   0  0  0  0  0  0  0  0  0  0  0  0
    4.4203  -11.5561    3.5264 H   0  0  0  0  0  0  0  0  0  0  0  0
    5.5180  -11.0067    4.7642 H   0  0  0  0  0  0  0  0  0  0  0  0
    4.6517   -8.7691    6.3169 H   0  0  0  0  0  0  0  0  0  0  0  0
    5.5900   -8.5626    4.9222 H   0  0  0  0  0  0  0  0  0  0  0  0
    5.0776   -6.4598    5.2642 H   0  0  0  0  0  0  0  0  0  0  0  0
    3.9675   -6.7939    4.0208 H   0  0  0  0  0  0  0  0  0  0  0  0
    3.4266   -7.6255    7.7728 H   0  0  0  0  0  0  0  0  0  0  0  0
    4.5432   -6.3985    7.5463 H   0  0  0  0  0  0  0  0  0  0  0  0
    3.3710   -5.4639    9.2729 H   0  0  0  0  0  0  0  0  0  0  0  0
    1.9533   -3.7377    8.6980 H   0  0  0  0  0  0  0  0  0  0  0  0
    1.7193   -3.2042    6.1925 H   0  0  0  0  0  0  0  0  0  0  0  0
    2.8407   -4.6734    4.5895 H   0  0  0  0  0  0  0  0  0  0  0  0
    5.0326   -2.6151    4.6544 H   0  0  0  0  0  0  0  0  0  0  0  0
    4.2244   -1.5307    5.8077 H   0  0  0  0  0  0  0  0  0  0  0  0
    3.2903   -2.3417    4.5586 H   0  0  0  0  0  0  0  0  0  0  0  0
    5.9485   -4.1123    6.6382 H   0  0  0  0  0  0  0  0  0  0  0  0
    4.8570   -4.3472    8.0116 H   0  0  0  0  0  0  0  0  0  0  0  0
    5.2992   -2.7372    7.5520 H   0  0  0  0  0  0  0  0  0  0  0  0
   -1.3774   -5.2774    8.5169 H   0  0  0  0  0  0  0  0  0  0  0  0
   -0.9500   -3.9061    7.5044 H   0  0  0  0  0  0  0  0  0  0  0  0
   -0.4262   -3.9680    9.1566 H   0  0  0  0  0  0  0  0  0  0  0  0
   -0.2239   -7.0107    6.8872 H   0  0  0  0  0  0  0  0  0  0  0  0
    0.0734   -4.7246    5.3244 H   0  0  0  0  0  0  0  0  0  0  0  0
    1.4051   -6.2570    4.7145 H   0  0  0  0  0  0  0  0  0  0  0  0
    2.0296   -5.4778   11.0450 H   0  0  0  0  0  0  0  0  0  0  0  0
    0.5016   -4.7892   10.5651 H   0  0  0  0  0  0  0  0  0  0  0  0
    0.9974   -7.4302   11.8026 H   0  0  0  0  0  0  0  0  0  0  0  0
   -0.4871   -6.4570   11.7771 H   0  0  0  0  0  0  0  0  0  0  0  0
    0.5707   -8.0838    8.2334 H   0  0  0  0  0  0  0  0  0  0  0  0
    1.7582   -8.2761    9.5424 H   0  0  0  0  0  0  0  0  0  0  0  0
  2  1  1  6
  1 34  1  0
  1 35  1  0
  1 36  1  0
  2 10  1  0
  2 28  1  0
  2  3  1  0
  3  4  1  0
  3 37  1  0
  3 38  1  0
  4 11  1  0
  4  5  1  1
  4  6  1  0
  5 39  1  0
  6  7  2  0
  6 40  1  0
  7  8  1  0
  7 41  1  0
  8  9  1  0
  8 42  1  0
  8 43  1  0
  9 10  1  0
  9 11  1  0
  9 44  1  6
 11 12  1  6
 11 13  1  0
 12 45  1  0
 12 46  1  0
 12 47  1  0
 13 14  1  0
 13 48  1  0
 13 49  1  0
 15 14  1  6
 14 50  1  0
 14 51  1  0
 15 20  1  0
 15 28  1  0
 15 16  1  0
 16 17  1  0
 16 52  1  0
 16 53  1  0
 17 29  1  0
 17 18  1  0
 17 54  1  1
 18 19  1  0
 18 24  1  0
 18 55  1  1
 19 21  1  0
 19 20  1  0
 19 56  1  6
 20 21  1  0
 20 57  1  6
 21 22  1  0
 21 23  1  0
 22 58  1  0
 22 59  1  0
 22 60  1  0
 23 61  1  0
 23 62  1  0
 23 63  1  0
 24 25  1  1
 24 26  1  0
 24 29  1  0
 25 64  1  0
 25 65  1  0
 25 66  1  0
 26 27  1  0
 26 28  1  0
 26 67  1  1
 27 68  1  0
 28 69  1  6
 29 33  1  1
 29 30  1  0
 30 31  1  0
 30 70  1  0
 30 71  1  0
 31 32  1  0
 31 72  1  0
 31 73  1  0
 32 33  1  0
 33 74  1  0
 33 75  1  0
M  END
>  <i_m_ct_stereo_status>  (105) 
1

>  <s_m_source_file>  (105) 
/var/tmp/pbs.5076255.sched01/tmpikn618da/06v91y69d.sdf

>  <i_m_source_file_index>  (105) 
46

>  <i_lp_mmshare_version>  (105) 
48012

>  <i_f3d_flags>  (105) 
0

>  <s_epik_input>  (105) 
W0NIXTE9W0NIXVtDSDJdW0NAQEhdKE8yKVtDQEBdKFtDSDNdKShbQ0gyXVtDSDJdMylbQ0BAXTEoW09IXSlbQ0gyXVtDQEBdMihbQ0gzXSlbQ0BIXTRbQ0BIXShbT0hdKVtDQEBdNShbQ0gzXSlbQ0BdNihbQ0gyXVtDSDJdT1tDSDJdNilbQ0BASF0oW0NIMl03KVtDQEhdNVtDQEhdKFtDQEBIXThbQ0BdMzQ3KUM4KFtDSDNdKVtDSDNd

>  <s_epik_cmdline>  (105) 
J2VwaWtfcHl0aG9uJywgJy1waHQnLCAnMi4wJywgJy1waCcsICc3LjAnLCAnLXRuJywgJzgnLCAnLW1hJywgJzIwMCcsICctaW1hZScsICc8aW5maWxlLm1hZT4nLCAnLW9tYWUnLCAnPG91dGZpbGUubWFlPic=

>  <r_lp_tautomer_probability>  (105) 
1

>  <r_epik_Ionization_Penalty>  (105) 
8.88963e-07

>  <r_epik_Ionization_Penalty_Charging>  (105) 
0

>  <r_epik_Ionization_Penalty_Neutral>  (105) 
8.88963e-07

>  <r_epik_State_Penalty>  (105) 
-0

>  <r_epik_Charging_Adjusted_Penalty>  (105) 
0

>  <i_epik_Tot_Q>  (105) 
0

>  <i_epik_Tot_abs_Q>  (105) 
0

>  <s_lp_Force_Field>  (105) 
OPLS3e

>  <r_lp_Energy>  (105) 
117.769

>  <b_lp_Chiralities_Consistent>  (105) 
1

>  <s_lp_Variant>  (105) 
29:0-1

>  <s_i_glide_gridfile>  (105) 
pfpi4k_grid

>  <i_i_glide_lignum>  (105) 
46

>  <i_i_glide_rotatable_bonds>  (105) 
2

>  <r_i_docking_score>  (105) 
-2.91187

>  <r_i_glide_ligand_efficiency>  (105) 
-0.0882385

>  <r_i_glide_ligand_efficiency_sa>  (105) 
-0.283028

>  <r_i_glide_ligand_efficiency_ln>  (105) 
-0.647585

>  <r_i_glide_gscore>  (105) 
-2.91187

>  <r_i_glide_lipo>  (105) 
-0.211101

>  <r_i_glide_hbond>  (105) 
-0.456

>  <r_i_glide_metal>  (105) 
-0

>  <r_i_glide_rewards>  (105) 
-0.309263

>  <r_i_glide_evdw>  (105) 
-14.5896

>  <r_i_glide_ecoul>  (105) 
-8.04016

>  <r_i_glide_erotb>  (105) 
0

>  <r_i_glide_esite>  (105) 
0

>  <r_i_glide_emodel>  (105) 
-27.009

>  <r_i_glide_energy>  (105) 
-22.6298

>  <r_i_glide_einternal>  (105) 
0.172792

>  <r_i_glide_intrahb_reward>  (105) 
-0

>  <i_i_glide_confnum>  (105) 
6

>  <i_i_glide_posenum>  (105) 
22

>  <r_i_glide_eff_state_penalty>  (105) 
0

>  <ligand_id>  (105) 
29

>  <original_smiles>  (105) 
CC12CC3(O)C=CCC(O1)C3(C)CCC13CC4C(C5C1C5(C)C)C(C)(C(O)C23)C41CCOC1

>  <smiles>  (105) 
[H]OC1([H])C2([H])C3(C([H])([H])[H])OC4([H])C([H])([H])C([H])=C([H])C(O[H])(C3([H])[H])C4(C([H])([H])[H])C([H])([H])C([H])([H])C23C([H])([H])C2([H])C([H])(C4([H])C3([H])C4(C([H])([H])[H])C([H])([H])[H])C1(C([H])([H])[H])C21C([H])([H])OC([H])([H])C1([H])[H]

$$$$
29:0:1
     RDKit          3D

 75 82  0  0  1  0  0  0  0  0999 V2000
   -0.2257   -8.4790    4.7918 C   0  0  0  0  0  0  0  0  0  0  0  0
    1.2473   -8.1916    5.1742 C   0  0  1  0  0  0  0  0  0  0  0  0
    1.7502   -9.3562    6.0896 C   0  0  0  0  0  0  0  0  0  0  0  0
    2.7157  -10.3400    5.4232 C   0  0  1  0  0  0  0  0  0  0  0  0
    3.4013  -11.0565    6.4392 O   0  0  0  0  0  0  0  0  0  0  0  0
    1.8891  -11.3400    4.6245 C   0  0  0  0  0  0  0  0  0  0  0  0
    1.6532  -11.2176    3.3013 C   0  0  0  0  0  0  0  0  0  0  0  0
    2.2035  -10.0645    2.4900 C   0  0  0  0  0  0  0  0  0  0  0  0
    2.8611   -8.9825    3.3815 C   0  0  1  0  0  0  0  0  0  0  0  0
    1.8481   -8.0931    3.8624 O   0  0  0  0  0  0  0  0  0  0  0  0
    3.7245   -9.5470    4.5359 C   0  0  2  0  0  0  0  0  0  0  0  0
    4.8128  -10.5025    3.9515 C   0  0  0  0  0  0  0  0  0  0  0  0
    4.4823   -8.4050    5.3099 C   0  0  0  0  0  0  0  0  0  0  0  0
    4.0527   -6.9072    5.1636 C   0  0  0  0  0  0  0  0  0  0  0  0
    2.9596   -6.2852    6.0980 C   0  0  1  0  0  0  0  0  0  0  0  0
    3.3885   -6.5626    7.5714 C   0  0  0  0  0  0  0  0  0  0  0  0
    2.6201   -5.7543    8.6127 C   0  0  1  0  0  0  0  0  0  0  0  0
    1.8679   -4.5145    8.1088 C   0  0  1  0  0  0  0  0  0  0  0  0
    2.3142   -3.8488    6.8166 C   0  0  2  0  0  0  0  0  0  0  0  0
    2.9642   -4.7562    5.7989 C   0  0  1  0  0  0  0  0  0  0  0  0
    3.7382   -3.5645    6.3809 C   0  0  0  0  0  0  0  0  0  0  0  0
    3.9344   -2.3596    5.4733 C   0  0  0  0  0  0  0  0  0  0  0  0
    4.9223   -3.6574    7.3331 C   0  0  0  0  0  0  0  0  0  0  0  0
    0.6025   -5.3963    8.0691 C   0  0  1  0  0  0  0  0  0  0  0  0
   -0.6886   -4.6537    8.5090 C   0  0  0  0  0  0  0  0  0  0  0  0
    0.3130   -6.1893    6.7272 C   0  0  1  0  0  0  0  0  0  0  0  0
   -0.5792   -5.4266    5.9239 O   0  0  0  0  0  0  0  0  0  0  0  0
    1.4720   -6.7429    5.7830 C   0  0  2  0  0  0  0  0  0  0  0  0
    1.2816   -6.2293    9.1993 C   0  0  2  0  0  0  0  0  0  0  0  0
    1.0312   -5.7799   10.6620 C   0  0  0  0  0  0  0  0  0  0  0  0
    0.3150   -6.9588   11.3216 C   0  0  0  0  0  0  0  0  0  0  0  0
   -0.1322   -7.7305   10.2262 O   0  0  0  0  0  0  0  0  0  0  0  0
    0.9106   -7.7249    9.2684 C   0  0  0  0  0  0  0  0  0  0  0  0
   -0.8625   -8.6449    5.6596 H   0  0  0  0  0  0  0  0  0  0  0  0
   -0.3069   -9.3835    4.1927 H   0  0  0  0  0  0  0  0  0  0  0  0
   -0.6480   -7.6677    4.2056 H   0  0  0  0  0  0  0  0  0  0  0  0
    2.2283   -8.9610    6.9695 H   0  0  0  0  0  0  0  0  0  0  0  0
    0.9106   -9.9149    6.5073 H   0  0  0  0  0  0  0  0  0  0  0  0
    2.7596  -11.5942    6.9048 H   0  0  0  0  0  0  0  0  0  0  0  0
    1.4760  -12.1795    5.1616 H   0  0  0  0  0  0  0  0  0  0  0  0
    1.0684  -11.9665    2.7843 H   0  0  0  0  0  0  0  0  0  0  0  0
    2.9375  -10.4692    1.7921 H   0  0  0  0  0  0  0  0  0  0  0  0
    1.4057   -9.6345    1.8853 H   0  0  0  0  0  0  0  0  0  0  0  0
    3.4918   -8.3896    2.7205 H   0  0  0  0  0  0  0  0  0  0  0  0
    5.4139  -10.0049    3.1898 H   0  0  0  0  0  0  0  0  0  0  0  0
    4.3904  -11.3903    3.4865 H   0  0  0  0  0  0  0  0  0  0  0  0
    5.4926  -10.8542    4.7266 H   0  0  0  0  0  0  0  0  0  0  0  0
    4.5995   -8.6823    6.3539 H   0  0  0  0  0  0  0  0  0  0  0  0
    5.5151   -8.4152    4.9545 H   0  0  0  0  0  0  0  0  0  0  0  0
    4.9643   -6.3342    5.3636 H   0  0  0  0  0  0  0  0  0  0  0  0
    3.8453   -6.6546    4.1243 H   0  0  0  0  0  0  0  0  0  0  0  0
    3.3704   -7.6063    7.8572 H   0  0  0  0  0  0  0  0  0  0  0  0
    4.4589   -6.3499    7.6530 H   0  0  0  0  0  0  0  0  0  0  0  0
    3.2868   -5.4901    9.4207 H   0  0  0  0  0  0  0  0  0  0  0  0
    1.8298   -3.7785    8.9157 H   0  0  0  0  0  0  0  0  0  0  0  0
    1.5508   -3.1828    6.4243 H   0  0  0  0  0  0  0  0  0  0  0  0
    2.6802   -4.5754    4.7713 H   0  0  0  0  0  0  0  0  0  0  0  0
    4.8327   -2.4757    4.8676 H   0  0  0  0  0  0  0  0  0  0  0  0
    4.0172   -1.4419    6.0617 H   0  0  0  0  0  0  0  0  0  0  0  0
    3.0843   -2.2362    4.8016 H   0  0  0  0  0  0  0  0  0  0  0  0
    5.8039   -4.0092    6.7940 H   0  0  0  0  0  0  0  0  0  0  0  0
    4.7347   -4.3057    8.1727 H   0  0  0  0  0  0  0  0  0  0  0  0
    5.1388   -2.6745    7.7560 H   0  0  0  0  0  0  0  0  0  0  0  0
   -1.4660   -5.3790    8.7287 H   0  0  0  0  0  0  0  0  0  0  0  0
   -1.0851   -3.9637    7.7520 H   0  0  0  0  0  0  0  0  0  0  0  0
   -0.5369   -4.0698    9.3959 H   0  0  0  0  0  0  0  0  0  0  0  0
   -0.2884   -7.0323    7.0300 H   0  0  0  0  0  0  0  0  0  0  0  0
   -1.3580   -5.3109    6.4489 H   0  0  0  0  0  0  0  0  0  0  0  0
    1.2755   -6.1837    4.8633 H   0  0  0  0  0  0  0  0  0  0  0  0
    1.9763   -5.5882   11.2106 H   0  0  0  0  0  0  0  0  0  0  0  0
    0.4237   -4.9129   10.7700 H   0  0  0  0  0  0  0  0  0  0  0  0
    0.9880   -7.5825   11.9201 H   0  0  0  0  0  0  0  0  0  0  0  0
   -0.5157   -6.6366   11.9403 H   0  0  0  0  0  0  0  0  0  0  0  0
    0.5322   -8.1396    8.3380 H   0  0  0  0  0  0  0  0  0  0  0  0
    1.7419   -8.3415    9.6327 H   0  0  0  0  0  0  0  0  0  0  0  0
  2  1  1  6
  1 34  1  0
  1 35  1  0
  1 36  1  0
  2 10  1  0
  2 28  1  0
  2  3  1  0
  3  4  1  0
  3 37  1  0
  3 38  1  0
  4 11  1  0
  4  5  1  1
  4  6  1  0
  5 39  1  0
  6  7  2  0
  6 40  1  0
  7  8  1  0
  7 41  1  0
  8  9  1  0
  8 42  1  0
  8 43  1  0
  9 10  1  0
  9 11  1  0
  9 44  1  6
 11 12  1  6
 11 13  1  0
 12 45  1  0
 12 46  1  0
 12 47  1  0
 13 14  1  0
 13 48  1  0
 13 49  1  0
 15 14  1  6
 14 50  1  0
 14 51  1  0
 15 20  1  0
 15 28  1  0
 15 16  1  0
 16 17  1  0
 16 52  1  0
 16 53  1  0
 17 29  1  0
 17 18  1  0
 17 54  1  1
 18 19  1  0
 18 24  1  0
 18 55  1  1
 19 21  1  0
 19 20  1  0
 19 56  1  6
 20 21  1  0
 20 57  1  6
 21 22  1  0
 21 23  1  0
 22 58  1  0
 22 59  1  0
 22 60  1  0
 23 61  1  0
 23 62  1  0
 23 63  1  0
 24 25  1  1
 24 26  1  0
 24 29  1  0
 25 64  1  0
 25 65  1  0
 25 66  1  0
 26 27  1  0
 26 28  1  0
 26 67  1  1
 27 68  1  0
 28 69  1  6
 29 33  1  1
 29 30  1  0
 30 31  1  0
 30 70  1  0
 30 71  1  0
 31 32  1  0
 31 72  1  0
 31 73  1  0
 32 33  1  0
 33 74  1  0
 33 75  1  0
M  END
>  <i_m_ct_stereo_status>  (106) 
1

>  <s_m_source_file>  (106) 
/var/tmp/pbs.5076255.sched01/tmpikn618da/06v91y69d.sdf

>  <i_m_source_file_index>  (106) 
46

>  <i_lp_mmshare_version>  (106) 
48012

>  <i_f3d_flags>  (106) 
0

>  <s_epik_input>  (106) 
W0NIXTE9W0NIXVtDSDJdW0NAQEhdKE8yKVtDQEBdKFtDSDNdKShbQ0gyXVtDSDJdMylbQ0BAXTEoW09IXSlbQ0gyXVtDQEBdMihbQ0gzXSlbQ0BIXTRbQ0BIXShbT0hdKVtDQEBdNShbQ0gzXSlbQ0BdNihbQ0gyXVtDSDJdT1tDSDJdNilbQ0BASF0oW0NIMl03KVtDQEhdNVtDQEhdKFtDQEBIXThbQ0BdMzQ3KUM4KFtDSDNdKVtDSDNd

>  <s_epik_cmdline>  (106) 
J2VwaWtfcHl0aG9uJywgJy1waHQnLCAnMi4wJywgJy1waCcsICc3LjAnLCAnLXRuJywgJzgnLCAnLW1hJywgJzIwMCcsICctaW1hZScsICc8aW5maWxlLm1hZT4nLCAnLW9tYWUnLCAnPG91dGZpbGUubWFlPic=

>  <r_lp_tautomer_probability>  (106) 
1

>  <r_epik_Ionization_Penalty>  (106) 
8.88963e-07

>  <r_epik_Ionization_Penalty_Charging>  (106) 
0

>  <r_epik_Ionization_Penalty_Neutral>  (106) 
8.88963e-07

>  <r_epik_State_Penalty>  (106) 
-0

>  <r_epik_Charging_Adjusted_Penalty>  (106) 
0

>  <i_epik_Tot_Q>  (106) 
0

>  <i_epik_Tot_abs_Q>  (106) 
0

>  <s_lp_Force_Field>  (106) 
OPLS3e

>  <r_lp_Energy>  (106) 
117.769

>  <b_lp_Chiralities_Consistent>  (106) 
1

>  <s_lp_Variant>  (106) 
29:0-1

>  <s_i_glide_gridfile>  (106) 
pfpi4k_grid

>  <i_i_glide_lignum>  (106) 
46

>  <i_i_glide_rotatable_bonds>  (106) 
2

>  <r_i_docking_score>  (106) 
-2.69467

>  <r_i_glide_ligand_efficiency>  (106) 
-0.0816568

>  <r_i_glide_ligand_efficiency_sa>  (106) 
-0.261917

>  <r_i_glide_ligand_efficiency_ln>  (106) 
-0.599282

>  <r_i_glide_gscore>  (106) 
-2.69467

>  <r_i_glide_lipo>  (106) 
-0.22085

>  <r_i_glide_hbond>  (106) 
-0.456

>  <r_i_glide_metal>  (106) 
-0

>  <r_i_glide_rewards>  (106) 
-0.309263

>  <r_i_glide_evdw>  (106) 
-14.9798

>  <r_i_glide_ecoul>  (106) 
-6.39713

>  <r_i_glide_erotb>  (106) 
0

>  <r_i_glide_esite>  (106) 
0

>  <r_i_glide_emodel>  (106) 
-25.2298

>  <r_i_glide_energy>  (106) 
-21.377

>  <r_i_glide_einternal>  (106) 
0.429146

>  <r_i_glide_intrahb_reward>  (106) 
-0

>  <i_i_glide_confnum>  (106) 
6

>  <i_i_glide_posenum>  (106) 
2

>  <r_i_glide_eff_state_penalty>  (106) 
0

>  <ligand_id>  (106) 
29

>  <original_smiles>  (106) 
CC12CC3(O)C=CCC(O1)C3(C)CCC13CC4C(C5C1C5(C)C)C(C)(C(O)C23)C41CCOC1

>  <smiles>  (106) 
[H]OC1([H])C2([H])C3(C([H])([H])[H])OC4([H])C([H])([H])C([H])=C([H])C(O[H])(C3([H])[H])C4(C([H])([H])[H])C([H])([H])C([H])([H])C23C([H])([H])C2([H])C([H])(C4([H])C3([H])C4(C([H])([H])[H])C([H])([H])[H])C1(C([H])([H])[H])C21C([H])([H])OC([H])([H])C1([H])[H]

$$$$
29:0:2
     RDKit          3D

 75 82  0  0  1  0  0  0  0  0999 V2000
   -0.5827   -5.9643    5.0030 C   0  0  0  0  0  0  0  0  0  0  0  0
    0.7602   -6.7244    5.0624 C   0  0  1  0  0  0  0  0  0  0  0  0
    0.4598   -8.2378    5.3025 C   0  0  0  0  0  0  0  0  0  0  0  0
    0.6643   -9.1407    4.0817 C   0  0  1  0  0  0  0  0  0  0  0  0
    0.7739  -10.4809    4.5243 O   0  0  0  0  0  0  0  0  0  0  0  0
   -0.5830   -9.0317    3.2030 C   0  0  0  0  0  0  0  0  0  0  0  0
   -0.6790   -8.2255    2.1569 C   0  0  0  0  0  0  0  0  0  0  0  0
    0.4628   -7.3183    1.7218 C   0  0  0  0  0  0  0  0  0  0  0  0
    1.6217   -7.3134    2.7504 C   0  0  1  0  0  0  0  0  0  0  0  0
    1.3089   -6.3627    3.7735 O   0  0  0  0  0  0  0  0  0  0  0  0
    1.9633   -8.7027    3.3330 C   0  0  2  0  0  0  0  0  0  0  0  0
    2.2830   -9.6897    2.1677 C   0  0  0  0  0  0  0  0  0  0  0  0
    3.2371   -8.6555    4.2548 C   0  0  0  0  0  0  0  0  0  0  0  0
    3.7820   -7.2947    4.8083 C   0  0  0  0  0  0  0  0  0  0  0  0
    3.2574   -6.7053    6.1625 C   0  0  1  0  0  0  0  0  0  0  0  0
    3.4142   -7.8092    7.2508 C   0  0  0  0  0  0  0  0  0  0  0  0
    3.2562   -7.3074    8.6741 C   0  0  1  0  0  0  0  0  0  0  0  0
    3.3897   -5.7909    8.9006 C   0  0  1  0  0  0  0  0  0  0  0  0
    4.1589   -4.9655    7.8920 C   0  0  2  0  0  0  0  0  0  0  0  0
    4.1663   -5.4819    6.4775 C   0  0  1  0  0  0  0  0  0  0  0  0
    5.4965   -5.3132    7.2411 C   0  0  0  0  0  0  0  0  0  0  0  0
    6.3795   -4.1446    6.8431 C   0  0  0  0  0  0  0  0  0  0  0  0
    6.3745   -6.4541    7.7397 C   0  0  0  0  0  0  0  0  0  0  0  0
    1.8507   -5.7302    8.8637 C   0  0  1  0  0  0  0  0  0  0  0  0
    1.2394   -4.7176    9.8710 C   0  0  0  0  0  0  0  0  0  0  0  0
    1.1440   -5.5113    7.4574 C   0  0  1  0  0  0  0  0  0  0  0  0
    0.9246   -4.1246    7.2213 O   0  0  0  0  0  0  0  0  0  0  0  0
    1.7848   -6.0941    6.1018 C   0  0  2  0  0  0  0  0  0  0  0  0
    1.8888   -7.2069    9.3753 C   0  0  2  0  0  0  0  0  0  0  0  0
    1.9365   -7.4412   10.9011 C   0  0  0  0  0  0  0  0  0  0  0  0
    0.6509   -8.1924   11.2302 C   0  0  0  0  0  0  0  0  0  0  0  0
   -0.1650   -7.9982   10.0846 O   0  0  0  0  0  0  0  0  0  0  0  0
    0.7085   -8.1048    8.9535 C   0  0  0  0  0  0  0  0  0  0  0  0
   -1.1991   -6.1306    5.8812 H   0  0  0  0  0  0  0  0  0  0  0  0
   -1.1745   -6.2896    4.1503 H   0  0  0  0  0  0  0  0  0  0  0  0
   -0.4216   -4.8931    4.9004 H   0  0  0  0  0  0  0  0  0  0  0  0
    1.0673   -8.6195    6.1052 H   0  0  0  0  0  0  0  0  0  0  0  0
   -0.5533   -8.3805    5.6809 H   0  0  0  0  0  0  0  0  0  0  0  0
   -0.0600  -10.7513    4.8777 H   0  0  0  0  0  0  0  0  0  0  0  0
   -1.4227   -9.6661    3.4745 H   0  0  0  0  0  0  0  0  0  0  0  0
   -1.5787   -8.2094    1.5536 H   0  0  0  0  0  0  0  0  0  0  0  0
    0.8236   -7.6774    0.7559 H   0  0  0  0  0  0  0  0  0  0  0  0
    0.0908   -6.3086    1.5597 H   0  0  0  0  0  0  0  0  0  0  0  0
    2.4923   -6.9175    2.2241 H   0  0  0  0  0  0  0  0  0  0  0  0
    3.0751   -9.3098    1.5190 H   0  0  0  0  0  0  0  0  0  0  0  0
    1.4189   -9.8781    1.5330 H   0  0  0  0  0  0  0  0  0  0  0  0
    2.6096  -10.6641    2.5381 H   0  0  0  0  0  0  0  0  0  0  0  0
    3.1501   -9.3969    5.0456 H   0  0  0  0  0  0  0  0  0  0  0  0
    4.0669   -9.0473    3.6671 H   0  0  0  0  0  0  0  0  0  0  0  0
    4.8491   -7.4657    4.9637 H   0  0  0  0  0  0  0  0  0  0  0  0
    3.7801   -6.5271    4.0364 H   0  0  0  0  0  0  0  0  0  0  0  0
    2.7769   -8.6729    7.1102 H   0  0  0  0  0  0  0  0  0  0  0  0
    4.3973   -8.2647    7.1200 H   0  0  0  0  0  0  0  0  0  0  0  0
    3.9470   -7.8546    9.3235 H   0  0  0  0  0  0  0  0  0  0  0  0
    3.7868   -5.6203    9.9073 H   0  0  0  0  0  0  0  0  0  0  0  0
    3.9593   -3.8987    8.0055 H   0  0  0  0  0  0  0  0  0  0  0  0
    4.0671   -4.7254    5.6986 H   0  0  0  0  0  0  0  0  0  0  0  0
    7.0408   -4.4241    6.0265 H   0  0  0  0  0  0  0  0  0  0  0  0
    6.9774   -3.8100    7.6888 H   0  0  0  0  0  0  0  0  0  0  0  0
    5.7770   -3.2932    6.5154 H   0  0  0  0  0  0  0  0  0  0  0  0
    6.8822   -6.9220    6.8989 H   0  0  0  0  0  0  0  0  0  0  0  0
    5.8244   -7.2043    8.2874 H   0  0  0  0  0  0  0  0  0  0  0  0
    7.1210   -6.0666    8.4312 H   0  0  0  0  0  0  0  0  0  0  0  0
    0.1840   -4.9233   10.0045 H   0  0  0  0  0  0  0  0  0  0  0  0
    1.3381   -3.6757    9.5625 H   0  0  0  0  0  0  0  0  0  0  0  0
    1.6992   -4.7746   10.8527 H   0  0  0  0  0  0  0  0  0  0  0  0
    0.1417   -5.9067    7.5656 H   0  0  0  0  0  0  0  0  0  0  0  0
    1.7566   -3.6930    7.1401 H   0  0  0  0  0  0  0  0  0  0  0  0
    1.9785   -5.1759    5.5416 H   0  0  0  0  0  0  0  0  0  0  0  0
    2.7969   -8.0453   11.2134 H   0  0  0  0  0  0  0  0  0  0  0  0
    1.9559   -6.5345   11.4949 H   0  0  0  0  0  0  0  0  0  0  0  0
    0.8120   -9.2614   11.3489 H   0  0  0  0  0  0  0  0  0  0  0  0
    0.1565   -7.8016   12.1154 H   0  0  0  0  0  0  0  0  0  0  0  0
    0.1666   -7.7699    8.0762 H   0  0  0  0  0  0  0  0  0  0  0  0
    1.0044   -9.1540    8.8269 H   0  0  0  0  0  0  0  0  0  0  0  0
  2  1  1  1
  1 34  1  0
  1 35  1  0
  1 36  1  0
  2 10  1  0
  2 28  1  0
  2  3  1  0
  3  4  1  0
  3 37  1  0
  3 38  1  0
  4 11  1  0
  4  5  1  1
  4  6  1  0
  5 39  1  0
  6  7  2  0
  6 40  1  0
  7  8  1  0
  7 41  1  0
  8  9  1  0
  8 42  1  0
  8 43  1  0
  9 10  1  0
  9 11  1  0
  9 44  1  6
 11 12  1  6
 11 13  1  0
 12 45  1  0
 12 46  1  0
 12 47  1  0
 13 14  1  0
 13 48  1  0
 13 49  1  0
 15 14  1  6
 14 50  1  0
 14 51  1  0
 15 20  1  0
 15 28  1  0
 15 16  1  0
 16 17  1  0
 16 52  1  0
 16 53  1  0
 17 29  1  0
 17 18  1  0
 17 54  1  1
 18 19  1  0
 18 24  1  0
 18 55  1  1
 19 21  1  0
 19 20  1  0
 19 56  1  6
 20 21  1  0
 20 57  1  6
 21 22  1  0
 21 23  1  0
 22 58  1  0
 22 59  1  0
 22 60  1  0
 23 61  1  0
 23 62  1  0
 23 63  1  0
 24 25  1  1
 24 26  1  0
 24 29  1  0
 25 64  1  0
 25 65  1  0
 25 66  1  0
 26 27  1  0
 26 28  1  0
 26 67  1  1
 27 68  1  0
 28 69  1  6
 29 33  1  6
 29 30  1  0
 30 31  1  0
 30 70  1  0
 30 71  1  0
 31 32  1  0
 31 72  1  0
 31 73  1  0
 32 33  1  0
 33 74  1  0
 33 75  1  0
M  END
>  <i_m_ct_stereo_status>  (107) 
1

>  <s_m_source_file>  (107) 
/var/tmp/pbs.5076255.sched01/tmpikn618da/06v91y69d.sdf

>  <i_m_source_file_index>  (107) 
46

>  <i_lp_mmshare_version>  (107) 
48012

>  <i_f3d_flags>  (107) 
0

>  <s_epik_input>  (107) 
W0NIXTE9W0NIXVtDSDJdW0NAQEhdKE8yKVtDQEBdKFtDSDNdKShbQ0gyXVtDSDJdMylbQ0BAXTEoW09IXSlbQ0gyXVtDQEBdMihbQ0gzXSlbQ0BIXTRbQ0BIXShbT0hdKVtDQEBdNShbQ0gzXSlbQ0BdNihbQ0gyXVtDSDJdT1tDSDJdNilbQ0BASF0oW0NIMl03KVtDQEhdNVtDQEhdKFtDQEBIXThbQ0BdMzQ3KUM4KFtDSDNdKVtDSDNd

>  <s_epik_cmdline>  (107) 
J2VwaWtfcHl0aG9uJywgJy1waHQnLCAnMi4wJywgJy1waCcsICc3LjAnLCAnLXRuJywgJzgnLCAnLW1hJywgJzIwMCcsICctaW1hZScsICc8aW5maWxlLm1hZT4nLCAnLW9tYWUnLCAnPG91dGZpbGUubWFlPic=

>  <r_lp_tautomer_probability>  (107) 
1

>  <r_epik_Ionization_Penalty>  (107) 
8.88963e-07

>  <r_epik_Ionization_Penalty_Charging>  (107) 
0

>  <r_epik_Ionization_Penalty_Neutral>  (107) 
8.88963e-07

>  <r_epik_State_Penalty>  (107) 
-0

>  <r_epik_Charging_Adjusted_Penalty>  (107) 
0

>  <i_epik_Tot_Q>  (107) 
0

>  <i_epik_Tot_abs_Q>  (107) 
0

>  <s_lp_Force_Field>  (107) 
OPLS3e

>  <r_lp_Energy>  (107) 
117.769

>  <b_lp_Chiralities_Consistent>  (107) 
1

>  <s_lp_Variant>  (107) 
29:0-1

>  <s_i_glide_gridfile>  (107) 
pfpi4k_grid

>  <i_i_glide_lignum>  (107) 
46

>  <i_i_glide_rotatable_bonds>  (107) 
2

>  <r_i_docking_score>  (107) 
-2.23776

>  <r_i_glide_ligand_efficiency>  (107) 
-0.0678108

>  <r_i_glide_ligand_efficiency_sa>  (107) 
-0.217506

>  <r_i_glide_ligand_efficiency_ln>  (107) 
-0.497666

>  <r_i_glide_gscore>  (107) 
-2.23776

>  <r_i_glide_lipo>  (107) 
-0.0485245

>  <r_i_glide_hbond>  (107) 
-0.400556

>  <r_i_glide_metal>  (107) 
-0

>  <r_i_glide_rewards>  (107) 
-0.309263

>  <r_i_glide_evdw>  (107) 
-17.8175

>  <r_i_glide_ecoul>  (107) 
-3.92359

>  <r_i_glide_erotb>  (107) 
0

>  <r_i_glide_esite>  (107) 
0

>  <r_i_glide_emodel>  (107) 
-25.0019

>  <r_i_glide_energy>  (107) 
-21.7411

>  <r_i_glide_einternal>  (107) 
0.129704

>  <r_i_glide_intrahb_reward>  (107) 
-0

>  <i_i_glide_confnum>  (107) 
6

>  <i_i_glide_posenum>  (107) 
6

>  <r_i_glide_eff_state_penalty>  (107) 
0

>  <ligand_id>  (107) 
29

>  <original_smiles>  (107) 
CC12CC3(O)C=CCC(O1)C3(C)CCC13CC4C(C5C1C5(C)C)C(C)(C(O)C23)C41CCOC1

>  <smiles>  (107) 
[H]OC1([H])C2([H])C3(C([H])([H])[H])OC4([H])C([H])([H])C([H])=C([H])C(O[H])(C3([H])[H])C4(C([H])([H])[H])C([H])([H])C([H])([H])C23C([H])([H])C2([H])C([H])(C4([H])C3([H])C4(C([H])([H])[H])C([H])([H])[H])C1(C([H])([H])[H])C21C([H])([H])OC([H])([H])C1([H])[H]

$$$$
30:0:0
     RDKit          3D

 70 78  0  0  1  0  0  0  0  0999 V2000
   -1.5597   -8.7801    2.4034 C   0  0  0  0  0  0  0  0  0  0  0  0
   -1.0701   -7.9628    3.4598 O   0  0  0  0  0  0  0  0  0  0  0  0
    0.3238   -8.2146    3.8889 C   0  0  2  0  0  0  0  0  0  0  0  0
    1.1261   -7.1563    5.1532 C   0  0  1  0  0  0  0  0  0  0  0  0
    2.8027   -7.1960    5.7155 C   0  0  1  0  0  0  0  0  0  0  0  0
    3.1492   -8.6911    5.8362 C   0  0  1  0  0  0  0  0  0  0  0  0
    3.1133   -9.8412    6.8390 C   0  0  1  0  0  0  0  0  0  0  0  0
    2.1325   -9.8581    7.8457 O   0  0  0  0  0  0  0  0  0  0  0  0
    2.8805  -10.6685    5.5030 C   0  0  0  0  0  0  0  0  0  0  0  0
    2.0840   -9.4359    5.0576 C   0  0  2  0  0  0  0  0  0  0  0  0
    1.9181   -8.3306    3.7981 C   0  0  2  0  0  0  0  0  0  0  0  0
    0.9339   -6.7746    3.8494 C   0  0  2  0  0  0  0  0  0  0  0  0
    1.0780   -5.5560    2.8610 N   0  0  0  0  0  0  0  0  0  0  0  0
    1.3761   -4.3447    3.5743 C   0  0  1  0  0  0  0  0  0  0  0  0
    0.3379   -3.8148    4.5832 C   0  0  0  0  0  0  0  0  0  0  0  0
   -0.1221   -2.5505    4.7289 C   0  0  0  0  0  0  0  0  0  0  0  0
    0.2820   -1.3106    4.0297 C   0  0  0  0  0  0  0  0  0  0  0  0
    1.5027   -1.2000    3.3234 C   0  0  0  0  0  0  0  0  0  0  0  0
    1.7722   -0.0481    2.5755 C   0  0  0  0  0  0  0  0  0  0  0  0
    0.8708    1.0243    2.6318 C   0  0  0  0  0  0  0  0  0  0  0  0
   -0.2967    0.8665    3.4042 C   0  0  0  0  0  0  0  0  0  0  0  0
   -0.6011   -0.2793    4.0713 N   0  0  0  0  0  0  0  0  0  0  0  0
    2.6772   -4.7194    4.2647 C   0  0  0  0  0  0  0  0  0  0  0  0
    3.1149   -4.0693    5.2100 O   0  0  0  0  0  0  0  0  0  0  0  0
    3.3482   -5.9704    3.4867 C   0  0  2  0  0  0  0  0  0  0  0  0
    3.9888   -6.6686    4.6279 C   0  0  1  0  0  0  0  0  0  0  0  0
    5.3804   -6.0511    4.9399 C   0  0  1  0  0  0  0  0  0  0  0  0
    6.3448   -7.0912    5.5480 C   0  0  0  0  0  0  0  0  0  0  0  0
    5.9977   -5.3750    3.6335 C   0  0  0  0  0  0  0  0  0  0  0  0
    5.3211   -5.6681    2.2257 C   0  0  0  0  0  0  0  0  0  0  0  0
    3.8216   -5.2631    2.2927 C   0  0  1  0  0  0  0  0  0  0  0  0
    2.2608   -5.7429    1.8952 C   0  0  2  0  0  0  0  0  0  0  0  0
    1.7953   -5.4649    0.6059 O   0  0  0  0  0  0  0  0  0  0  0  0
    2.6248   -7.0669    2.2419 C   0  0  1  0  0  0  0  0  0  0  0  0
    3.4508   -7.7035    1.2826 O   0  0  0  0  0  0  0  0  0  0  0  0
    1.3840   -8.2540    2.6004 C   0  0  2  0  0  0  0  0  0  0  0  0
   -2.5856   -8.4990    2.1636 H   0  0  0  0  0  0  0  0  0  0  0  0
   -1.5502   -9.8356    2.6838 H   0  0  0  0  0  0  0  0  0  0  0  0
   -0.9759   -8.6421    1.4933 H   0  0  0  0  0  0  0  0  0  0  0  0
   -0.0500   -9.1882    4.2478 H   0  0  0  0  0  0  0  0  0  0  0  0
    0.4425   -6.8262    5.9485 H   0  0  0  0  0  0  0  0  0  0  0  0
    2.9010   -6.6790    6.6653 H   0  0  0  0  0  0  0  0  0  0  0  0
    4.1692   -8.8391    5.4837 H   0  0  0  0  0  0  0  0  0  0  0  0
    4.0858  -10.0842    7.2642 H   0  0  0  0  0  0  0  0  0  0  0  0
    1.8310  -10.7656    7.8941 H   0  0  0  0  0  0  0  0  0  0  0  0
    3.7748  -10.8771    4.9090 H   0  0  0  0  0  0  0  0  0  0  0  0
    2.2734  -11.5688    5.6353 H   0  0  0  0  0  0  0  0  0  0  0  0
    1.1867   -9.5577    5.6771 H   0  0  0  0  0  0  0  0  0  0  0  0
    2.9335   -8.6238    3.5008 H   0  0  0  0  0  0  0  0  0  0  0  0
   -0.0054   -6.2902    4.2557 H   0  0  0  0  0  0  0  0  0  0  0  0
    1.5232   -3.6204    2.7800 H   0  0  0  0  0  0  0  0  0  0  0  0
   -0.0689   -4.5213    5.2931 H   0  0  0  0  0  0  0  0  0  0  0  0
   -0.8751   -2.4141    5.4874 H   0  0  0  0  0  0  0  0  0  0  0  0
    2.2727   -1.9485    3.3475 H   0  0  0  0  0  0  0  0  0  0  0  0
    2.6875    0.0011    2.0045 H   0  0  0  0  0  0  0  0  0  0  0  0
    1.0881    1.9473    2.1203 H   0  0  0  0  0  0  0  0  0  0  0  0
   -0.9995    1.6877    3.4951 H   0  0  0  0  0  0  0  0  0  0  0  0
    4.4180   -7.5141    4.1025 H   0  0  0  0  0  0  0  0  0  0  0  0
    5.2696   -5.2764    5.6978 H   0  0  0  0  0  0  0  0  0  0  0  0
    6.5410   -7.9147    4.8587 H   0  0  0  0  0  0  0  0  0  0  0  0
    5.9318   -7.5186    6.4619 H   0  0  0  0  0  0  0  0  0  0  0  0
    7.3052   -6.6450    5.8048 H   0  0  0  0  0  0  0  0  0  0  0  0
    5.9447   -4.2928    3.8049 H   0  0  0  0  0  0  0  0  0  0  0  0
    7.0628   -5.6003    3.5700 H   0  0  0  0  0  0  0  0  0  0  0  0
    5.8359   -5.0723    1.4679 H   0  0  0  0  0  0  0  0  0  0  0  0
    5.5087   -6.7042    1.9518 H   0  0  0  0  0  0  0  0  0  0  0  0
    3.7992   -4.1716    2.2996 H   0  0  0  0  0  0  0  0  0  0  0  0
    2.5009   -5.7072    0.0176 H   0  0  0  0  0  0  0  0  0  0  0  0
    3.8176   -8.4624    1.7147 H   0  0  0  0  0  0  0  0  0  0  0  0
    1.4212   -9.1845    2.0313 H   0  0  0  0  0  0  0  0  0  0  0  0
  1  2  1  0
  1 37  1  0
  1 38  1  0
  1 39  1  0
  2  3  1  0
  3 36  1  0
  3  4  1  0
  3 40  1  1
  4 12  1  0
  4  5  1  0
  4 41  1  1
  5 26  1  0
  5  6  1  0
  5 42  1  1
  6 10  1  0
  6  7  1  0
  6 43  1  6
  7  8  1  0
  7  9  1  0
  7 44  1  1
  8 45  1  0
  9 10  1  0
  9 46  1  0
  9 47  1  0
 10 11  1  0
 10 48  1  1
 11 36  1  0
 11 12  1  0
 11 49  1  6
 12 13  1  0
 12 50  1  6
 13 32  1  0
 13 14  1  0
 14 15  1  0
 14 23  1  0
 14 51  1  6
 15 16  2  3
 15 52  1  0
 16 17  1  0
 16 53  1  0
 17 22  1  0
 17 18  2  0
 18 19  1  0
 18 54  1  0
 19 20  2  0
 19 55  1  0
 20 21  1  0
 20 56  1  0
 21 22  2  0
 21 57  1  0
 23 24  2  0
 25 23  1  1
 25 31  1  0
 25 34  1  0
 25 26  1  0
 26 27  1  0
 26 58  1  6
 27 28  1  0
 27 29  1  0
 27 59  1  1
 28 60  1  0
 28 61  1  0
 28 62  1  0
 29 30  1  0
 29 63  1  0
 29 64  1  0
 30 31  1  0
 30 65  1  0
 30 66  1  0
 31 32  1  0
 31 67  1  1
 32 33  1  6
 32 34  1  0
 33 68  1  0
 34 35  1  6
 34 36  1  0
 35 69  1  0
 36 70  1  6
M  END
>  <i_m_ct_stereo_status>  (108) 
1

>  <s_m_source_file>  (108) 
/var/tmp/pbs.5076255.sched01/tmpikn618da/06v91y69d.sdf

>  <i_m_source_file_index>  (108) 
47

>  <i_lp_mmshare_version>  (108) 
48012

>  <i_f3d_flags>  (108) 
0

>  <s_epik_input>  (108) 
W0NAXTEyM1tDQEBIXTRbQ0BIXTVbQ0BIXTZbQ0BASF03W0NAQEhdKFtDQEBIXThbQ0BASF01W0NAQEhdKFtPSF0pW0NIMl04KVtDQEBIXShbQ0BASF02T1tDSDNdKVtDQEBdMyhbT0hdKVtDQF0oW09IXSkoW0NAQEhdMltDSDJdW0NIMl1bQ0BASF00W0NIM10pTjdbQ0BIXShDMT1PKS9bQ0hdPVtDSF0vYzlbY0hdW2NIXVtjSF1bY0hdbjk=

>  <s_epik_cmdline>  (108) 
J2VwaWtfcHl0aG9uJywgJy1waHQnLCAnMi4wJywgJy1waCcsICc3LjAnLCAnLXRuJywgJzgnLCAnLW1hJywgJzIwMCcsICctaW1hZScsICc8aW5maWxlLm1hZT4nLCAnLW9tYWUnLCAnPG91dGZpbGUubWFlPic=

>  <r_lp_tautomer_probability>  (108) 
1

>  <r_epik_Ionization_Penalty>  (108) 
0.00596314

>  <r_epik_Ionization_Penalty_Charging>  (108) 
0

>  <r_epik_Ionization_Penalty_Neutral>  (108) 
0.00596314

>  <r_epik_State_Penalty>  (108) 
-0

>  <r_epik_Charging_Adjusted_Penalty>  (108) 
0

>  <i_epik_Tot_Q>  (108) 
0

>  <i_epik_Tot_abs_Q>  (108) 
0

>  <s_lp_Force_Field>  (108) 
OPLS3e

>  <r_lp_Energy>  (108) 
822.265

>  <b_lp_Chiralities_Consistent>  (108) 
1

>  <s_lp_Variant>  (108) 
30:0-1

>  <s_i_glide_gridfile>  (108) 
pfpi4k_grid

>  <i_i_glide_lignum>  (108) 
47

>  <i_i_glide_rotatable_bonds>  (108) 
6

>  <r_i_docking_score>  (108) 
-2.84274

>  <r_i_glide_ligand_efficiency>  (108) 
-0.0789651

>  <r_i_glide_ligand_efficiency_sa>  (108) 
-0.260737

>  <r_i_glide_ligand_efficiency_ln>  (108) 
-0.62021

>  <r_i_glide_gscore>  (108) 
-2.84274

>  <r_i_glide_lipo>  (108) 
-0.227611

>  <r_i_glide_hbond>  (108) 
-0.16

>  <r_i_glide_metal>  (108) 
-0

>  <r_i_glide_rewards>  (108) 
-0.0641546

>  <r_i_glide_evdw>  (108) 
-23.1238

>  <r_i_glide_ecoul>  (108) 
-9.22359

>  <r_i_glide_erotb>  (108) 
0.169118

>  <r_i_glide_esite>  (108) 
-0.0203639

>  <r_i_glide_emodel>  (108) 
-36.2673

>  <r_i_glide_energy>  (108) 
-32.3474

>  <r_i_glide_einternal>  (108) 
4.85667

>  <r_i_glide_intrahb_reward>  (108) 
-0

>  <i_i_glide_confnum>  (108) 
2

>  <i_i_glide_posenum>  (108) 
33

>  <r_i_glide_eff_state_penalty>  (108) 
0

>  <ligand_id>  (108) 
30

>  <original_smiles>  (108) 
COC1C2C3C4C(O)CC4C4C2N2C(C=Cc5ccccn5)C(=O)C56C3C(C)CCC5C2(O)C6(O)C14

>  <smiles>  (108) 
[H]OC1([H])C([H])([H])C2([H])C1([H])C1([H])C3([H])C([H])(OC([H])([H])[H])C4([H])C2([H])C3([H])N2C([H])(C([H])=C([H])c3nc([H])c([H])c([H])c3[H])C(=O)C35C([H])(C([H])([H])C([H])([H])C([H])(C([H])([H])[H])C13[H])C2(O[H])C45O[H]

$$$$
30:0:1
     RDKit          3D

 70 78  0  0  1  0  0  0  0  0999 V2000
   -1.9792   -7.7325    3.8714 C   0  0  0  0  0  0  0  0  0  0  0  0
   -0.9382   -7.8324    2.8967 O   0  0  0  0  0  0  0  0  0  0  0  0
    0.4113   -8.1429    3.4192 C   0  0  2  0  0  0  0  0  0  0  0  0
    1.2125   -7.1172    4.7004 C   0  0  1  0  0  0  0  0  0  0  0  0
    2.8568   -7.2426    5.3311 C   0  0  1  0  0  0  0  0  0  0  0  0
    3.1276   -8.7540    5.4779 C   0  0  1  0  0  0  0  0  0  0  0  0
    2.9937   -9.8966    6.4801 C   0  0  1  0  0  0  0  0  0  0  0  0
    1.9693   -9.8398    7.4589 O   0  0  0  0  0  0  0  0  0  0  0  0
    2.7728  -10.7182    5.1362 C   0  0  0  0  0  0  0  0  0  0  0  0
    2.0639   -9.4467    4.6539 C   0  0  2  0  0  0  0  0  0  0  0  0
    2.0101   -8.3413    3.3848 C   0  0  2  0  0  0  0  0  0  0  0  0
    1.1182   -6.7310    3.3756 C   0  0  2  0  0  0  0  0  0  0  0  0
    1.3737   -5.5149    2.4022 N   0  0  0  0  0  0  0  0  0  0  0  0
    1.7124   -4.3262    3.1370 C   0  0  1  0  0  0  0  0  0  0  0  0
    0.6384   -3.7547    4.0745 C   0  0  0  0  0  0  0  0  0  0  0  0
    0.2160   -2.4823    4.1971 C   0  0  0  0  0  0  0  0  0  0  0  0
    0.6624   -1.2543    3.5088 C   0  0  0  0  0  0  0  0  0  0  0  0
   -0.0595   -0.0555    3.6962 C   0  0  0  0  0  0  0  0  0  0  0  0
    0.3590    1.1068    3.0147 C   0  0  0  0  0  0  0  0  0  0  0  0
    1.4789    1.0270    2.1669 C   0  0  0  0  0  0  0  0  0  0  0  0
    2.1242   -0.2135    2.0308 C   0  0  0  0  0  0  0  0  0  0  0  0
    1.7354   -1.3175    2.6933 N   0  0  0  0  0  0  0  0  0  0  0  0
    2.9342   -4.7772    3.8868 C   0  0  0  0  0  0  0  0  0  0  0  0
    3.3565   -4.1518    4.8652 O   0  0  0  0  0  0  0  0  0  0  0  0
    3.5790   -6.0603    3.1262 C   0  0  2  0  0  0  0  0  0  0  0  0
    4.1223   -6.7828    4.3014 C   0  0  1  0  0  0  0  0  0  0  0  0
    5.5217   -6.2318    4.6760 C   0  0  1  0  0  0  0  0  0  0  0  0
    6.4058   -7.3103    5.3344 C   0  0  0  0  0  0  0  0  0  0  0  0
    6.2287   -5.5936    3.3975 C   0  0  0  0  0  0  0  0  0  0  0  0
    5.6114   -5.8621    1.9594 C   0  0  0  0  0  0  0  0  0  0  0  0
    4.1341   -5.3821    1.9471 C   0  0  1  0  0  0  0  0  0  0  0  0
    2.5760   -5.7847    1.4902 C   0  0  2  0  0  0  0  0  0  0  0  0
    2.1433   -5.4966    0.1830 O   0  0  0  0  0  0  0  0  0  0  0  0
    2.8533   -7.1218    1.8629 C   0  0  1  0  0  0  0  0  0  0  0  0
    3.7056   -7.8203    0.9620 O   0  0  0  0  0  0  0  0  0  0  0  0
    1.5184   -8.2369    2.1687 C   0  0  2  0  0  0  0  0  0  0  0  0
   -2.9210   -7.5168    3.3699 H   0  0  0  0  0  0  0  0  0  0  0  0
   -1.8101   -6.9216    4.5811 H   0  0  0  0  0  0  0  0  0  0  0  0
   -2.1155   -8.6588    4.4307 H   0  0  0  0  0  0  0  0  0  0  0  0
   -0.0041   -9.1199    3.7135 H   0  0  0  0  0  0  0  0  0  0  0  0
    0.5135   -6.7469    5.4590 H   0  0  0  0  0  0  0  0  0  0  0  0
    2.9413   -6.7291    6.2886 H   0  0  0  0  0  0  0  0  0  0  0  0
    4.1532   -8.9558    5.1746 H   0  0  0  0  0  0  0  0  0  0  0  0
    3.9349  -10.1775    6.9553 H   0  0  0  0  0  0  0  0  0  0  0  0
    1.7456  -10.7759    7.6343 H   0  0  0  0  0  0  0  0  0  0  0  0
    3.6868  -10.9760    4.5968 H   0  0  0  0  0  0  0  0  0  0  0  0
    2.1273  -11.5877    5.2606 H   0  0  0  0  0  0  0  0  0  0  0  0
    1.1324   -9.5255    5.2281 H   0  0  0  0  0  0  0  0  0  0  0  0
    3.0175   -8.6859    3.1226 H   0  0  0  0  0  0  0  0  0  0  0  0
    0.1845   -6.1988    3.7287 H   0  0  0  0  0  0  0  0  0  0  0  0
    1.9935   -3.5928    2.3934 H   0  0  0  0  0  0  0  0  0  0  0  0
    0.1581   -4.4423    4.7530 H   0  0  0  0  0  0  0  0  0  0  0  0
   -0.5693   -2.3220    4.9221 H   0  0  0  0  0  0  0  0  0  0  0  0
   -0.9237   -0.0211    4.3438 H   0  0  0  0  0  0  0  0  0  0  0  0
   -0.1661    2.0423    3.1398 H   0  0  0  0  0  0  0  0  0  0  0  0
    1.8313    1.8930    1.6278 H   0  0  0  0  0  0  0  0  0  0  0  0
    2.9795   -0.3346    1.3839 H   0  0  0  0  0  0  0  0  0  0  0  0
    4.5274   -7.6507    3.7993 H   0  0  0  0  0  0  0  0  0  0  0  0
    5.4127   -5.4493    5.4240 H   0  0  0  0  0  0  0  0  0  0  0  0
    6.5940   -8.1472    4.6588 H   0  0  0  0  0  0  0  0  0  0  0  0
    5.9320   -7.7111    6.2312 H   0  0  0  0  0  0  0  0  0  0  0  0
    7.3741   -6.9067    5.6330 H   0  0  0  0  0  0  0  0  0  0  0  0
    6.2041   -4.5098    3.5575 H   0  0  0  0  0  0  0  0  0  0  0  0
    7.2838   -5.8580    3.3883 H   0  0  0  0  0  0  0  0  0  0  0  0
    6.1870   -5.2991    1.2236 H   0  0  0  0  0  0  0  0  0  0  0  0
    5.7651   -6.9094    1.7019 H   0  0  0  0  0  0  0  0  0  0  0  0
    4.1626   -4.2962    1.9517 H   0  0  0  0  0  0  0  0  0  0  0  0
    2.7956   -5.8629   -0.4007 H   0  0  0  0  0  0  0  0  0  0  0  0
    3.9251   -8.6386    1.3762 H   0  0  0  0  0  0  0  0  0  0  0  0
    1.5246   -9.1769    1.6171 H   0  0  0  0  0  0  0  0  0  0  0  0
  1  2  1  0
  1 37  1  0
  1 38  1  0
  1 39  1  0
  2  3  1  0
  3 36  1  0
  3  4  1  0
  3 40  1  1
  4 12  1  0
  4  5  1  0
  4 41  1  1
  5 26  1  0
  5  6  1  0
  5 42  1  1
  6 10  1  0
  6  7  1  0
  6 43  1  6
  7  8  1  0
  7  9  1  0
  7 44  1  1
  8 45  1  0
  9 10  1  0
  9 46  1  0
  9 47  1  0
 10 11  1  0
 10 48  1  1
 11 36  1  0
 11 12  1  0
 11 49  1  6
 12 13  1  0
 12 50  1  6
 13 32  1  0
 13 14  1  0
 14 15  1  0
 14 23  1  0
 14 51  1  6
 15 16  2  3
 15 52  1  0
 16 17  1  0
 16 53  1  0
 17 22  1  0
 17 18  2  0
 18 19  1  0
 18 54  1  0
 19 20  2  0
 19 55  1  0
 20 21  1  0
 20 56  1  0
 21 22  2  0
 21 57  1  0
 23 24  2  0
 25 23  1  1
 25 31  1  0
 25 34  1  0
 25 26  1  0
 26 27  1  0
 26 58  1  6
 27 28  1  0
 27 29  1  0
 27 59  1  1
 28 60  1  0
 28 61  1  0
 28 62  1  0
 29 30  1  0
 29 63  1  0
 29 64  1  0
 30 31  1  0
 30 65  1  0
 30 66  1  0
 31 32  1  0
 31 67  1  1
 32 33  1  6
 32 34  1  0
 33 68  1  0
 34 35  1  6
 34 36  1  0
 35 69  1  0
 36 70  1  6
M  END
>  <i_m_ct_stereo_status>  (109) 
1

>  <s_m_source_file>  (109) 
/var/tmp/pbs.5076255.sched01/tmpikn618da/06v91y69d.sdf

>  <i_m_source_file_index>  (109) 
47

>  <i_lp_mmshare_version>  (109) 
48012

>  <i_f3d_flags>  (109) 
0

>  <s_epik_input>  (109) 
W0NAXTEyM1tDQEBIXTRbQ0BIXTVbQ0BIXTZbQ0BASF03W0NAQEhdKFtDQEBIXThbQ0BASF01W0NAQEhdKFtPSF0pW0NIMl04KVtDQEBIXShbQ0BASF02T1tDSDNdKVtDQEBdMyhbT0hdKVtDQF0oW09IXSkoW0NAQEhdMltDSDJdW0NIMl1bQ0BASF00W0NIM10pTjdbQ0BIXShDMT1PKS9bQ0hdPVtDSF0vYzlbY0hdW2NIXVtjSF1bY0hdbjk=

>  <s_epik_cmdline>  (109) 
J2VwaWtfcHl0aG9uJywgJy1waHQnLCAnMi4wJywgJy1waCcsICc3LjAnLCAnLXRuJywgJzgnLCAnLW1hJywgJzIwMCcsICctaW1hZScsICc8aW5maWxlLm1hZT4nLCAnLW9tYWUnLCAnPG91dGZpbGUubWFlPic=

>  <r_lp_tautomer_probability>  (109) 
1

>  <r_epik_Ionization_Penalty>  (109) 
0.00596314

>  <r_epik_Ionization_Penalty_Charging>  (109) 
0

>  <r_epik_Ionization_Penalty_Neutral>  (109) 
0.00596314

>  <r_epik_State_Penalty>  (109) 
-0

>  <r_epik_Charging_Adjusted_Penalty>  (109) 
0

>  <i_epik_Tot_Q>  (109) 
0

>  <i_epik_Tot_abs_Q>  (109) 
0

>  <s_lp_Force_Field>  (109) 
OPLS3e

>  <r_lp_Energy>  (109) 
822.265

>  <b_lp_Chiralities_Consistent>  (109) 
1

>  <s_lp_Variant>  (109) 
30:0-1

>  <s_i_glide_gridfile>  (109) 
pfpi4k_grid

>  <i_i_glide_lignum>  (109) 
47

>  <i_i_glide_rotatable_bonds>  (109) 
6

>  <r_i_docking_score>  (109) 
-2.65805

>  <r_i_glide_ligand_efficiency>  (109) 
-0.0738347

>  <r_i_glide_ligand_efficiency_sa>  (109) 
-0.243797

>  <r_i_glide_ligand_efficiency_ln>  (109) 
-0.579914

>  <r_i_glide_gscore>  (109) 
-2.65805

>  <r_i_glide_lipo>  (109) 
-0.141567

>  <r_i_glide_hbond>  (109) 
-0.172478

>  <r_i_glide_metal>  (109) 
-0

>  <r_i_glide_rewards>  (109) 
-0.0641546

>  <r_i_glide_evdw>  (109) 
-22.7928

>  <r_i_glide_ecoul>  (109) 
-8.63394

>  <r_i_glide_erotb>  (109) 
0.169118

>  <r_i_glide_esite>  (109) 
-0.014238

>  <r_i_glide_emodel>  (109) 
-36.8918

>  <r_i_glide_energy>  (109) 
-31.4267

>  <r_i_glide_einternal>  (109) 
1.77675

>  <r_i_glide_intrahb_reward>  (109) 
-0

>  <i_i_glide_confnum>  (109) 
1

>  <i_i_glide_posenum>  (109) 
9

>  <r_i_glide_eff_state_penalty>  (109) 
0

>  <ligand_id>  (109) 
30

>  <original_smiles>  (109) 
COC1C2C3C4C(O)CC4C4C2N2C(C=Cc5ccccn5)C(=O)C56C3C(C)CCC5C2(O)C6(O)C14

>  <smiles>  (109) 
[H]OC1([H])C([H])([H])C2([H])C1([H])C1([H])C3([H])C([H])(OC([H])([H])[H])C4([H])C2([H])C3([H])N2C([H])(C([H])=C([H])c3nc([H])c([H])c([H])c3[H])C(=O)C35C([H])(C([H])([H])C([H])([H])C([H])(C([H])([H])[H])C13[H])C2(O[H])C45O[H]

$$$$
30:0:2
     RDKit          3D

 70 78  0  0  1  0  0  0  0  0999 V2000
   -0.6638   -7.9561    2.3780 C   0  0  0  0  0  0  0  0  0  0  0  0
   -0.2685   -6.5929    2.4985 O   0  0  0  0  0  0  0  0  0  0  0  0
    0.3431   -6.2001    3.7867 C   0  0  2  0  0  0  0  0  0  0  0  0
    1.1077   -4.5477    4.0081 C   0  0  1  0  0  0  0  0  0  0  0  0
    1.9756   -3.9273    5.4202 C   0  0  1  0  0  0  0  0  0  0  0  0
    1.1691   -4.4099    6.6460 C   0  0  1  0  0  0  0  0  0  0  0  0
    0.0253   -3.9986    7.5649 C   0  0  1  0  0  0  0  0  0  0  0  0
   -0.9857   -3.1411    7.0658 O   0  0  0  0  0  0  0  0  0  0  0  0
   -0.2071   -5.5645    7.5955 C   0  0  0  0  0  0  0  0  0  0  0  0
    0.2597   -5.5092    6.1306 C   0  0  2  0  0  0  0  0  0  0  0  0
    1.3409   -6.2002    5.0301 C   0  0  2  0  0  0  0  0  0  0  0  0
    1.7268   -5.5823    3.3264 C   0  0  2  0  0  0  0  0  0  0  0  0
    3.0020   -5.9324    2.4606 N   0  0  0  0  0  0  0  0  0  0  0  0
    3.7517   -4.7430    2.1109 C   0  0  1  0  0  0  0  0  0  0  0  0
    3.0277   -3.7132    1.2383 C   0  0  0  0  0  0  0  0  0  0  0  0
    3.5102   -3.0396    0.1770 C   0  0  0  0  0  0  0  0  0  0  0  0
    4.8690   -3.0489   -0.3767 C   0  0  0  0  0  0  0  0  0  0  0  0
    5.0209   -3.0321   -1.7797 C   0  0  0  0  0  0  0  0  0  0  0  0
    6.3149   -3.0567   -2.3174 C   0  0  0  0  0  0  0  0  0  0  0  0
    7.4166   -3.0408   -1.4478 C   0  0  0  0  0  0  0  0  0  0  0  0
    7.1691   -3.0587   -0.0597 C   0  0  0  0  0  0  0  0  0  0  0  0
    5.9258   -3.0765    0.4639 N   0  0  0  0  0  0  0  0  0  0  0  0
    4.0698   -4.1997    3.4812 C   0  0  0  0  0  0  0  0  0  0  0  0
    4.4271   -3.0292    3.6425 O   0  0  0  0  0  0  0  0  0  0  0  0
    3.9605   -5.3914    4.5792 C   0  0  2  0  0  0  0  0  0  0  0  0
    3.4961   -4.5996    5.7478 C   0  0  1  0  0  0  0  0  0  0  0  0
    4.6996   -3.9481    6.4794 C   0  0  1  0  0  0  0  0  0  0  0  0
    4.4174   -3.7536    7.9847 C   0  0  0  0  0  0  0  0  0  0  0  0
    6.0229   -4.8006    6.2379 C   0  0  0  0  0  0  0  0  0  0  0  0
    5.8933   -6.2533    5.5965 C   0  0  0  0  0  0  0  0  0  0  0  0
    5.1733   -6.1477    4.2196 C   0  0  1  0  0  0  0  0  0  0  0  0
    3.9714   -6.8155    3.2556 C   0  0  2  0  0  0  0  0  0  0  0  0
    4.2681   -7.9167    2.4359 O   0  0  0  0  0  0  0  0  0  0  0  0
    3.2076   -7.0196    4.4350 C   0  0  1  0  0  0  0  0  0  0  0  0
    3.6610   -8.0960    5.2552 O   0  0  0  0  0  0  0  0  0  0  0  0
    1.4783   -7.2969    4.3201 C   0  0  2  0  0  0  0  0  0  0  0  0
   -1.0703   -8.1343    1.3812 H   0  0  0  0  0  0  0  0  0  0  0  0
   -1.4335   -8.2069    3.1107 H   0  0  0  0  0  0  0  0  0  0  0  0
    0.1802   -8.6373    2.4976 H   0  0  0  0  0  0  0  0  0  0  0  0
   -0.6771   -6.3263    4.1956 H   0  0  0  0  0  0  0  0  0  0  0  0
    0.6029   -3.7453    3.4622 H   0  0  0  0  0  0  0  0  0  0  0  0
    2.0382   -2.8399    5.3833 H   0  0  0  0  0  0  0  0  0  0  0  0
    1.8694   -4.7124    7.4239 H   0  0  0  0  0  0  0  0  0  0  0  0
    0.3609   -3.6335    8.5377 H   0  0  0  0  0  0  0  0  0  0  0  0
   -1.0973   -3.3769    6.1575 H   0  0  0  0  0  0  0  0  0  0  0  0
    0.4512   -6.1157    8.2737 H   0  0  0  0  0  0  0  0  0  0  0  0
   -1.2544   -5.8414    7.7397 H   0  0  0  0  0  0  0  0  0  0  0  0
   -0.6333   -5.0777    5.6674 H   0  0  0  0  0  0  0  0  0  0  0  0
    1.9144   -6.5191    5.9101 H   0  0  0  0  0  0  0  0  0  0  0  0
    1.2665   -5.1095    2.4055 H   0  0  0  0  0  0  0  0  0  0  0  0
    4.6679   -5.0393    1.5996 H   0  0  0  0  0  0  0  0  0  0  0  0
    2.0085   -3.4721    1.4833 H   0  0  0  0  0  0  0  0  0  0  0  0
    2.8229   -2.3675   -0.3193 H   0  0  0  0  0  0  0  0  0  0  0  0
    4.1562   -3.0343   -2.4267 H   0  0  0  0  0  0  0  0  0  0  0  0
    6.4624   -3.0661   -3.3887 H   0  0  0  0  0  0  0  0  0  0  0  0
    8.4278   -3.0524   -1.8318 H   0  0  0  0  0  0  0  0  0  0  0  0
    7.9869   -3.0612    0.6418 H   0  0  0  0  0  0  0  0  0  0  0  0
    3.4056   -5.3969    6.4750 H   0  0  0  0  0  0  0  0  0  0  0  0
    4.8648   -2.9469    6.0827 H   0  0  0  0  0  0  0  0  0  0  0  0
    4.2499   -4.7051    8.4925 H   0  0  0  0  0  0  0  0  0  0  0  0
    3.5337   -3.1354    8.1425 H   0  0  0  0  0  0  0  0  0  0  0  0
    5.2498   -3.2593    8.4858 H   0  0  0  0  0  0  0  0  0  0  0  0
    6.6509   -4.2026    5.5716 H   0  0  0  0  0  0  0  0  0  0  0  0
    6.5948   -4.8674    7.1641 H   0  0  0  0  0  0  0  0  0  0  0  0
    6.8992   -6.6518    5.4517 H   0  0  0  0  0  0  0  0  0  0  0  0
    5.4256   -6.9131    6.3224 H   0  0  0  0  0  0  0  0  0  0  0  0
    5.8847   -5.6854    3.5372 H   0  0  0  0  0  0  0  0  0  0  0  0
    4.3277   -8.6680    3.0007 H   0  0  0  0  0  0  0  0  0  0  0  0
    3.4258   -8.9037    4.8274 H   0  0  0  0  0  0  0  0  0  0  0  0
    1.0842   -8.1881    4.8125 H   0  0  0  0  0  0  0  0  0  0  0  0
  1  2  1  0
  1 37  1  0
  1 38  1  0
  1 39  1  0
  2  3  1  0
  3 36  1  0
  3  4  1  0
  3 40  1  1
  4 12  1  0
  4  5  1  0
  4 41  1  6
  5 26  1  0
  5  6  1  0
  5 42  1  6
  6 10  1  0
  6  7  1  0
  6 43  1  1
  7  8  1  0
  7  9  1  0
  7 44  1  1
  8 45  1  0
  9 10  1  0
  9 46  1  0
  9 47  1  0
 10 11  1  0
 10 48  1  6
 11 36  1  0
 11 12  1  0
 11 49  1  1
 12 13  1  0
 12 50  1  6
 13 32  1  0
 13 14  1  0
 14 15  1  0
 14 23  1  0
 14 51  1  6
 15 16  2  3
 15 52  1  0
 16 17  1  0
 16 53  1  0
 17 22  1  0
 17 18  2  0
 18 19  1  0
 18 54  1  0
 19 20  2  0
 19 55  1  0
 20 21  1  0
 20 56  1  0
 21 22  2  0
 21 57  1  0
 23 24  2  0
 25 23  1  6
 25 31  1  0
 25 34  1  0
 25 26  1  0
 26 27  1  0
 26 58  1  1
 27 28  1  0
 27 29  1  0
 27 59  1  6
 28 60  1  0
 28 61  1  0
 28 62  1  0
 29 30  1  0
 29 63  1  0
 29 64  1  0
 30 31  1  0
 30 65  1  0
 30 66  1  0
 31 32  1  0
 31 67  1  6
 32 33  1  6
 32 34  1  0
 33 68  1  0
 34 35  1  1
 34 36  1  0
 35 69  1  0
 36 70  1  1
M  END
>  <i_m_ct_stereo_status>  (110) 
1

>  <s_m_source_file>  (110) 
/var/tmp/pbs.5076255.sched01/tmpikn618da/06v91y69d.sdf

>  <i_m_source_file_index>  (110) 
47

>  <i_lp_mmshare_version>  (110) 
48012

>  <i_f3d_flags>  (110) 
0

>  <s_epik_input>  (110) 
W0NAXTEyM1tDQEBIXTRbQ0BIXTVbQ0BIXTZbQ0BASF03W0NAQEhdKFtDQEBIXThbQ0BASF01W0NAQEhdKFtPSF0pW0NIMl04KVtDQEBIXShbQ0BASF02T1tDSDNdKVtDQEBdMyhbT0hdKVtDQF0oW09IXSkoW0NAQEhdMltDSDJdW0NIMl1bQ0BASF00W0NIM10pTjdbQ0BIXShDMT1PKS9bQ0hdPVtDSF0vYzlbY0hdW2NIXVtjSF1bY0hdbjk=

>  <s_epik_cmdline>  (110) 
J2VwaWtfcHl0aG9uJywgJy1waHQnLCAnMi4wJywgJy1waCcsICc3LjAnLCAnLXRuJywgJzgnLCAnLW1hJywgJzIwMCcsICctaW1hZScsICc8aW5maWxlLm1hZT4nLCAnLW9tYWUnLCAnPG91dGZpbGUubWFlPic=

>  <r_lp_tautomer_probability>  (110) 
1

>  <r_epik_Ionization_Penalty>  (110) 
0.00596314

>  <r_epik_Ionization_Penalty_Charging>  (110) 
0

>  <r_epik_Ionization_Penalty_Neutral>  (110) 
0.00596314

>  <r_epik_State_Penalty>  (110) 
-0

>  <r_epik_Charging_Adjusted_Penalty>  (110) 
0

>  <i_epik_Tot_Q>  (110) 
0

>  <i_epik_Tot_abs_Q>  (110) 
0

>  <s_lp_Force_Field>  (110) 
OPLS3e

>  <r_lp_Energy>  (110) 
822.265

>  <b_lp_Chiralities_Consistent>  (110) 
1

>  <s_lp_Variant>  (110) 
30:0-1

>  <s_i_glide_gridfile>  (110) 
pfpi4k_grid

>  <i_i_glide_lignum>  (110) 
47

>  <i_i_glide_rotatable_bonds>  (110) 
6

>  <r_i_docking_score>  (110) 
-2.57241

>  <r_i_glide_ligand_efficiency>  (110) 
-0.071456

>  <r_i_glide_ligand_efficiency_sa>  (110) 
-0.235942

>  <r_i_glide_ligand_efficiency_ln>  (110) 
-0.561231

>  <r_i_glide_gscore>  (110) 
-2.57241

>  <r_i_glide_lipo>  (110) 
-0.323317

>  <r_i_glide_hbond>  (110) 
-0.165036

>  <r_i_glide_metal>  (110) 
-0

>  <r_i_glide_rewards>  (110) 
-0.0641546

>  <r_i_glide_evdw>  (110) 
-23.0441

>  <r_i_glide_ecoul>  (110) 
-6.91213

>  <r_i_glide_erotb>  (110) 
0.169118

>  <r_i_glide_esite>  (110) 
0

>  <r_i_glide_emodel>  (110) 
-34.4476

>  <r_i_glide_energy>  (110) 
-29.9562

>  <r_i_glide_einternal>  (110) 
3.73993

>  <r_i_glide_intrahb_reward>  (110) 
-0

>  <i_i_glide_confnum>  (110) 
2

>  <i_i_glide_posenum>  (110) 
18

>  <r_i_glide_eff_state_penalty>  (110) 
0

>  <ligand_id>  (110) 
30

>  <original_smiles>  (110) 
COC1C2C3C4C(O)CC4C4C2N2C(C=Cc5ccccn5)C(=O)C56C3C(C)CCC5C2(O)C6(O)C14

>  <smiles>  (110) 
[H]OC1([H])C([H])([H])C2([H])C1([H])C1([H])C3([H])C([H])(OC([H])([H])[H])C4([H])C2([H])C3([H])N2C([H])(C([H])=C([H])c3nc([H])c([H])c([H])c3[H])C(=O)C35C([H])(C([H])([H])C([H])([H])C([H])(C([H])([H])[H])C13[H])C2(O[H])C45O[H]

$$$$
31:0:0
     RDKit          3D

 50 54  0  0  1  0  0  0  0  0999 V2000
    2.5658    2.3802    3.6346 C   0  0  0  0  0  0  0  0  0  0  0  0
    2.0579    1.1578    3.4075 C   0  0  0  0  0  0  0  0  0  0  0  0
    0.6270    0.8716    3.5430 C   0  0  0  0  0  0  0  0  0  0  0  0
   -0.2298    1.6020    4.0402 O   0  0  0  0  0  0  0  0  0  0  0  0
    0.4025   -0.3302    3.0299 O   0  0  0  0  0  0  0  0  0  0  0  0
    1.5117   -0.8656    2.3187 C   0  0  2  0  0  0  0  0  0  0  0  0
    1.8324   -2.3258    2.6597 C   0  0  0  0  0  0  0  0  0  0  0  0
    3.3534   -2.3702    2.8714 C   0  0  1  0  0  0  0  0  0  0  0  0
    4.1699   -2.8116    1.5802 C   0  0  1  0  0  0  0  0  0  0  0  0
    4.0991   -4.3667    1.5109 C   0  0  0  0  0  0  0  0  0  0  0  0
    3.6506   -2.2191    0.2405 C   0  0  0  0  0  0  0  0  0  0  0  0
    4.4764   -2.7260   -0.9563 C   0  0  1  0  0  0  0  0  0  0  0  0
    4.1042   -2.0363   -2.2405 C   0  0  0  0  0  0  0  0  0  0  0  0
    4.2315   -0.6504   -2.5342 C   0  0  0  0  0  0  0  0  0  0  0  0
    3.8019   -0.4748   -3.8169 C   0  0  0  0  0  0  0  0  0  0  0  0
    3.4206   -1.6622   -4.3543 O   0  0  0  0  0  0  0  0  0  0  0  0
    3.5964   -2.5951   -3.3798 C   0  0  0  0  0  0  0  0  0  0  0  0
    5.8838   -2.6033   -0.7649 O   0  0  0  0  0  0  0  0  0  0  0  0
    6.5111   -2.6461    0.4319 C   0  0  0  0  0  0  0  0  0  0  0  0
    7.7251   -2.8045    0.5214 O   0  0  0  0  0  0  0  0  0  0  0  0
    5.6584   -2.3846    1.6919 C   0  0  1  0  0  0  0  0  0  0  0  0
    5.8120   -0.9097    2.0937 C   0  0  0  0  0  0  0  0  0  0  0  0
    5.1424   -0.6127    3.4411 C   0  0  0  0  0  0  0  0  0  0  0  0
    3.6452   -0.9734    3.5090 C   0  0  2  0  0  0  0  0  0  0  0  0
    3.2737   -1.0126    5.0179 C   0  0  0  0  0  0  0  0  0  0  0  0
    2.7168   -0.0093    2.7117 C   0  0  2  0  0  0  0  0  0  0  0  0
    3.5947    2.6102    3.4107 H   0  0  0  0  0  0  0  0  0  0  0  0
    1.9409    3.1845    3.9949 H   0  0  0  0  0  0  0  0  0  0  0  0
    1.3054   -0.7456    1.2711 H   0  0  0  0  0  0  0  0  0  0  0  0
    1.3211   -2.6125    3.5744 H   0  0  0  0  0  0  0  0  0  0  0  0
    1.4911   -3.0169    1.9009 H   0  0  0  0  0  0  0  0  0  0  0  0
    3.5644   -3.1227    3.6346 H   0  0  0  0  0  0  0  0  0  0  0  0
    4.7479   -4.7872    0.7409 H   0  0  0  0  0  0  0  0  0  0  0  0
    3.0860   -4.7101    1.2966 H   0  0  0  0  0  0  0  0  0  0  0  0
    4.4193   -4.8307    2.4490 H   0  0  0  0  0  0  0  0  0  0  0  0
    2.6032   -2.4580    0.0693 H   0  0  0  0  0  0  0  0  0  0  0  0
    3.7039   -1.1352    0.2583 H   0  0  0  0  0  0  0  0  0  0  0  0
    4.2400   -3.7798   -1.1216 H   0  0  0  0  0  0  0  0  0  0  0  0
    4.6067    0.1347   -1.8945 H   0  0  0  0  0  0  0  0  0  0  0  0
    3.7106    0.3842   -4.4612 H   0  0  0  0  0  0  0  0  0  0  0  0
    3.3369   -3.6037   -3.6714 H   0  0  0  0  0  0  0  0  0  0  0  0
    6.1177   -2.9798    2.4829 H   0  0  0  0  0  0  0  0  0  0  0  0
    6.8757   -0.6734    2.1850 H   0  0  0  0  0  0  0  0  0  0  0  0
    5.4306   -0.2378    1.3239 H   0  0  0  0  0  0  0  0  0  0  0  0
    5.6795   -1.1743    4.2086 H   0  0  0  0  0  0  0  0  0  0  0  0
    5.2796    0.4411    3.6951 H   0  0  0  0  0  0  0  0  0  0  0  0
    3.4839   -0.0706    5.5209 H   0  0  0  0  0  0  0  0  0  0  0  0
    3.8500   -1.7736    5.5418 H   0  0  0  0  0  0  0  0  0  0  0  0
    2.2257   -1.2470    5.1994 H   0  0  0  0  0  0  0  0  0  0  0  0
    3.2012    0.3688    1.8123 H   0  0  0  0  0  0  0  0  0  0  0  0
  1  2  2  0
  1 27  1  0
  1 28  1  0
  2 26  1  0
  2  3  1  0
  3  4  2  0
  3  5  1  0
  5  6  1  0
  6 26  1  0
  6  7  1  0
  6 29  1  6
  7  8  1  0
  7 30  1  0
  7 31  1  0
  8 24  1  0
  8  9  1  0
  8 32  1  1
  9 21  1  0
  9 10  1  6
  9 11  1  0
 10 33  1  0
 10 34  1  0
 10 35  1  0
 11 12  1  0
 11 36  1  0
 11 37  1  0
 12 13  1  0
 12 18  1  0
 12 38  1  6
 13 17  2  0
 13 14  1  0
 14 15  2  0
 14 39  1  0
 15 16  1  0
 15 40  1  0
 16 17  1  0
 17 41  1  0
 18 19  1  0
 19 20  2  0
 19 21  1  0
 21 22  1  0
 21 42  1  1
 22 23  1  0
 22 43  1  0
 22 44  1  0
 23 24  1  0
 23 45  1  0
 23 46  1  0
 24 25  1  1
 24 26  1  0
 25 47  1  0
 25 48  1  0
 25 49  1  0
 26 50  1  6
M  END
>  <i_m_ct_stereo_status>  (111) 
1

>  <s_m_source_file>  (111) 
/var/tmp/pbs.5076255.sched01/tmpikn618da/06v91y69d.sdf

>  <i_m_source_file_index>  (111) 
48

>  <i_lp_mmshare_version>  (111) 
48012

>  <i_f3d_flags>  (111) 
0

>  <s_epik_input>  (111) 
W0NIMl09QzFDKD1PKU9bQ0BIXShbQ0gyXTIpW0NAQEhdMVtDQEBdKFtDSDNdKShbQ0BASF0yW0NAQF0zNFtDSDNdKVtDSDJdW0NIMl1bQ0BASF00Qyg9TylPW0NAQEhdKFtDSDJdMyljNVtjSF1bY0hdb1tjSF01

>  <s_epik_cmdline>  (111) 
J2VwaWtfcHl0aG9uJywgJy1waHQnLCAnMi4wJywgJy1waCcsICc3LjAnLCAnLXRuJywgJzgnLCAnLW1hJywgJzIwMCcsICctaW1hZScsICc8aW5maWxlLm1hZT4nLCAnLW9tYWUnLCAnPG91dGZpbGUubWFlPic=

>  <r_lp_tautomer_probability>  (111) 
1

>  <r_epik_Ionization_Penalty>  (111) 
0

>  <r_epik_Ionization_Penalty_Charging>  (111) 
0

>  <r_epik_Ionization_Penalty_Neutral>  (111) 
0

>  <r_epik_State_Penalty>  (111) 
-0

>  <r_epik_Charging_Adjusted_Penalty>  (111) 
0

>  <i_epik_Tot_Q>  (111) 
0

>  <i_epik_Tot_abs_Q>  (111) 
0

>  <s_epik_Chemistry_Notes>  (111) 
This compound has an ester and may undergo hydrolysis at high or low pH.

>  <s_lp_Force_Field>  (111) 
OPLS3e

>  <r_lp_Energy>  (111) 
40.6652

>  <b_lp_Chiralities_Consistent>  (111) 
1

>  <s_lp_Variant>  (111) 
31:0-1

>  <s_i_glide_gridfile>  (111) 
pfpi4k_grid

>  <i_i_glide_lignum>  (111) 
48

>  <i_i_glide_rotatable_bonds>  (111) 
1

>  <r_i_docking_score>  (111) 
-4.16318

>  <r_i_glide_ligand_efficiency>  (111) 
-0.160122

>  <r_i_glide_ligand_efficiency_sa>  (111) 
-0.474362

>  <r_i_glide_ligand_efficiency_ln>  (111) 
-0.97771

>  <r_i_glide_gscore>  (111) 
-4.16318

>  <r_i_glide_lipo>  (111) 
-0.812801

>  <r_i_glide_hbond>  (111) 
-0.27592

>  <r_i_glide_metal>  (111) 
-0

>  <r_i_glide_rewards>  (111) 
-1.10117

>  <r_i_glide_evdw>  (111) 
-31.1256

>  <r_i_glide_ecoul>  (111) 
-3.66151

>  <r_i_glide_erotb>  (111) 
0.150611

>  <r_i_glide_esite>  (111) 
-0.0183912

>  <r_i_glide_emodel>  (111) 
-43.4046

>  <r_i_glide_energy>  (111) 
-34.7871

>  <r_i_glide_einternal>  (111) 
0.189186

>  <r_i_glide_intrahb_reward>  (111) 
-0

>  <i_i_glide_confnum>  (111) 
1

>  <i_i_glide_posenum>  (111) 
8

>  <r_i_glide_eff_state_penalty>  (111) 
0

>  <ligand_id>  (111) 
31

>  <original_smiles>  (111) 
C=C1C(=O)OC2CC3C4(C)CC(c5ccoc5)OC(=O)C4CCC3(C)C12

>  <smiles>  (111) 
[H]C([H])=C1C(=O)OC2([H])C([H])([H])C3([H])C4(C([H])([H])[H])C([H])([H])C([H])(c5c([H])oc([H])c5[H])OC(=O)C4([H])C([H])([H])C([H])([H])C3(C([H])([H])[H])C12[H]

$$$$
31:0:1
     RDKit          3D

 50 54  0  0  1  0  0  0  0  0999 V2000
    2.0765    2.3652    3.2138 C   0  0  0  0  0  0  0  0  0  0  0  0
    1.7260    1.0658    3.2636 C   0  0  0  0  0  0  0  0  0  0  0  0
    0.3724    0.6387    3.6121 C   0  0  0  0  0  0  0  0  0  0  0  0
   -0.5292    1.3321    4.0844 O   0  0  0  0  0  0  0  0  0  0  0  0
    0.2713   -0.6583    3.3191 O   0  0  0  0  0  0  0  0  0  0  0  0
    1.3501   -1.1719    2.5496 C   0  0  2  0  0  0  0  0  0  0  0  0
    1.9092   -2.4936    3.0923 C   0  0  0  0  0  0  0  0  0  0  0  0
    3.4385   -2.3084    3.1306 C   0  0  1  0  0  0  0  0  0  0  0  0
    4.1772   -2.8557    1.8343 C   0  0  1  0  0  0  0  0  0  0  0  0
    4.3180   -4.3978    2.0268 C   0  0  0  0  0  0  0  0  0  0  0  0
    3.4407   -2.5764    0.4963 C   0  0  0  0  0  0  0  0  0  0  0  0
    4.2160   -3.1588   -0.7021 C   0  0  1  0  0  0  0  0  0  0  0  0
    3.6053   -2.7441   -2.0103 C   0  0  0  0  0  0  0  0  0  0  0  0
    2.3802   -3.1945   -2.5658 C   0  0  0  0  0  0  0  0  0  0  0  0
    2.2644   -2.5926   -3.7866 C   0  0  0  0  0  0  0  0  0  0  0  0
    3.3213   -1.7731   -4.0262 O   0  0  0  0  0  0  0  0  0  0  0  0
    4.1174   -1.8607   -2.9254 C   0  0  0  0  0  0  0  0  0  0  0  0
    5.6126   -2.8645   -0.6977 O   0  0  0  0  0  0  0  0  0  0  0  0
    6.3508   -2.6091    0.4097 C   0  0  0  0  0  0  0  0  0  0  0  0
    7.5780   -2.5659    0.4053 O   0  0  0  0  0  0  0  0  0  0  0  0
    5.5877   -2.2354    1.6986 C   0  0  1  0  0  0  0  0  0  0  0  0
    5.5607   -0.7075    1.8320 C   0  0  0  0  0  0  0  0  0  0  0  0
    5.0030   -0.2780    3.1944 C   0  0  0  0  0  0  0  0  0  0  0  0
    3.5870   -0.7961    3.4963 C   0  0  2  0  0  0  0  0  0  0  0  0
    3.3836   -0.6125    5.0242 C   0  0  0  0  0  0  0  0  0  0  0  0
    2.4548   -0.1164    2.6599 C   0  0  2  0  0  0  0  0  0  0  0  0
    3.0298    2.6808    2.8186 H   0  0  0  0  0  0  0  0  0  0  0  0
    1.3789    3.1406    3.5080 H   0  0  0  0  0  0  0  0  0  0  0  0
    1.0220   -1.2728    1.5156 H   0  0  0  0  0  0  0  0  0  0  0  0
    1.5462   -2.6683    4.1039 H   0  0  0  0  0  0  0  0  0  0  0  0
    1.5831   -3.3538    2.5139 H   0  0  0  0  0  0  0  0  0  0  0  0
    3.8320   -2.8847    3.9745 H   0  0  0  0  0  0  0  0  0  0  0  0
    4.9362   -4.8644    1.2581 H   0  0  0  0  0  0  0  0  0  0  0  0
    3.3485   -4.8974    2.0010 H   0  0  0  0  0  0  0  0  0  0  0  0
    4.7954   -4.6501    2.9777 H   0  0  0  0  0  0  0  0  0  0  0  0
    2.4289   -2.9732    0.4941 H   0  0  0  0  0  0  0  0  0  0  0  0
    3.3338   -1.5092    0.3309 H   0  0  0  0  0  0  0  0  0  0  0  0
    4.0942   -4.2442   -0.6907 H   0  0  0  0  0  0  0  0  0  0  0  0
    1.6671   -3.9047   -2.1743 H   0  0  0  0  0  0  0  0  0  0  0  0
    1.5081   -2.6349   -4.5478 H   0  0  0  0  0  0  0  0  0  0  0  0
    5.0135   -1.2671   -2.9671 H   0  0  0  0  0  0  0  0  0  0  0  0
    6.2056   -2.6234    2.5021 H   0  0  0  0  0  0  0  0  0  0  0  0
    6.5806   -0.3424    1.7427 H   0  0  0  0  0  0  0  0  0  0  0  0
    5.0138   -0.2354    1.0165 H   0  0  0  0  0  0  0  0  0  0  0  0
    5.7004   -0.6319    3.9638 H   0  0  0  0  0  0  0  0  0  0  0  0
    5.0107    0.8104    3.2852 H   0  0  0  0  0  0  0  0  0  0  0  0
    3.5140    0.4263    5.3375 H   0  0  0  0  0  0  0  0  0  0  0  0
    4.1190   -1.1891    5.5881 H   0  0  0  0  0  0  0  0  0  0  0  0
    2.4053   -0.9365    5.3763 H   0  0  0  0  0  0  0  0  0  0  0  0
    2.7918    0.1674    1.6623 H   0  0  0  0  0  0  0  0  0  0  0  0
  1  2  2  0
  1 27  1  0
  1 28  1  0
  2 26  1  0
  2  3  1  0
  3  4  2  0
  3  5  1  0
  5  6  1  0
  6 26  1  0
  6  7  1  0
  6 29  1  6
  7  8  1  0
  7 30  1  0
  7 31  1  0
  8 24  1  0
  8  9  1  0
  8 32  1  1
  9 21  1  0
  9 10  1  1
  9 11  1  0
 10 33  1  0
 10 34  1  0
 10 35  1  0
 11 12  1  0
 11 36  1  0
 11 37  1  0
 12 13  1  0
 12 18  1  0
 12 38  1  1
 13 17  2  0
 13 14  1  0
 14 15  2  0
 14 39  1  0
 15 16  1  0
 15 40  1  0
 16 17  1  0
 17 41  1  0
 18 19  1  0
 19 20  2  0
 19 21  1  0
 21 22  1  0
 21 42  1  1
 22 23  1  0
 22 43  1  0
 22 44  1  0
 23 24  1  0
 23 45  1  0
 23 46  1  0
 24 25  1  1
 24 26  1  0
 25 47  1  0
 25 48  1  0
 25 49  1  0
 26 50  1  6
M  END
>  <i_m_ct_stereo_status>  (112) 
1

>  <s_m_source_file>  (112) 
/var/tmp/pbs.5076255.sched01/tmpikn618da/06v91y69d.sdf

>  <i_m_source_file_index>  (112) 
48

>  <i_lp_mmshare_version>  (112) 
48012

>  <i_f3d_flags>  (112) 
0

>  <s_epik_input>  (112) 
W0NIMl09QzFDKD1PKU9bQ0BIXShbQ0gyXTIpW0NAQEhdMVtDQEBdKFtDSDNdKShbQ0BASF0yW0NAQF0zNFtDSDNdKVtDSDJdW0NIMl1bQ0BASF00Qyg9TylPW0NAQEhdKFtDSDJdMyljNVtjSF1bY0hdb1tjSF01

>  <s_epik_cmdline>  (112) 
J2VwaWtfcHl0aG9uJywgJy1waHQnLCAnMi4wJywgJy1waCcsICc3LjAnLCAnLXRuJywgJzgnLCAnLW1hJywgJzIwMCcsICctaW1hZScsICc8aW5maWxlLm1hZT4nLCAnLW9tYWUnLCAnPG91dGZpbGUubWFlPic=

>  <r_lp_tautomer_probability>  (112) 
1

>  <r_epik_Ionization_Penalty>  (112) 
0

>  <r_epik_Ionization_Penalty_Charging>  (112) 
0

>  <r_epik_Ionization_Penalty_Neutral>  (112) 
0

>  <r_epik_State_Penalty>  (112) 
-0

>  <r_epik_Charging_Adjusted_Penalty>  (112) 
0

>  <i_epik_Tot_Q>  (112) 
0

>  <i_epik_Tot_abs_Q>  (112) 
0

>  <s_epik_Chemistry_Notes>  (112) 
This compound has an ester and may undergo hydrolysis at high or low pH.

>  <s_lp_Force_Field>  (112) 
OPLS3e

>  <r_lp_Energy>  (112) 
40.6652

>  <b_lp_Chiralities_Consistent>  (112) 
1

>  <s_lp_Variant>  (112) 
31:0-1

>  <s_i_glide_gridfile>  (112) 
pfpi4k_grid

>  <i_i_glide_lignum>  (112) 
48

>  <i_i_glide_rotatable_bonds>  (112) 
1

>  <r_i_docking_score>  (112) 
-3.65298

>  <r_i_glide_ligand_efficiency>  (112) 
-0.140499

>  <r_i_glide_ligand_efficiency_sa>  (112) 
-0.416229

>  <r_i_glide_ligand_efficiency_ln>  (112) 
-0.857891

>  <r_i_glide_gscore>  (112) 
-3.65298

>  <r_i_glide_lipo>  (112) 
-0.762313

>  <r_i_glide_hbond>  (112) 
-0.0449065

>  <r_i_glide_metal>  (112) 
-0

>  <r_i_glide_rewards>  (112) 
-1.08749

>  <r_i_glide_evdw>  (112) 
-28.4778

>  <r_i_glide_ecoul>  (112) 
-3.11342

>  <r_i_glide_erotb>  (112) 
0.150611

>  <r_i_glide_esite>  (112) 
-0.017982

>  <r_i_glide_emodel>  (112) 
-39.1254

>  <r_i_glide_energy>  (112) 
-31.5912

>  <r_i_glide_einternal>  (112) 
0.0180201

>  <r_i_glide_intrahb_reward>  (112) 
-0

>  <i_i_glide_confnum>  (112) 
3

>  <i_i_glide_posenum>  (112) 
30

>  <r_i_glide_eff_state_penalty>  (112) 
0

>  <ligand_id>  (112) 
31

>  <original_smiles>  (112) 
C=C1C(=O)OC2CC3C4(C)CC(c5ccoc5)OC(=O)C4CCC3(C)C12

>  <smiles>  (112) 
[H]C([H])=C1C(=O)OC2([H])C([H])([H])C3([H])C4(C([H])([H])[H])C([H])([H])C([H])(c5c([H])oc([H])c5[H])OC(=O)C4([H])C([H])([H])C([H])([H])C3(C([H])([H])[H])C12[H]

$$$$
31:0:2
     RDKit          3D

 50 54  0  0  1  0  0  0  0  0999 V2000
    2.6628    2.3914    3.8407 C   0  0  0  0  0  0  0  0  0  0  0  0
    2.1250    1.1892    3.5679 C   0  0  0  0  0  0  0  0  0  0  0  0
    0.6963    0.9221    3.7249 C   0  0  0  0  0  0  0  0  0  0  0  0
   -0.1345    1.6418    4.2795 O   0  0  0  0  0  0  0  0  0  0  0  0
    0.4386   -0.2536    3.1528 O   0  0  0  0  0  0  0  0  0  0  0  0
    1.5131   -0.7677    2.3765 C   0  0  2  0  0  0  0  0  0  0  0  0
    1.8155   -2.2433    2.6707 C   0  0  0  0  0  0  0  0  0  0  0  0
    3.3435   -2.3298    2.8503 C   0  0  1  0  0  0  0  0  0  0  0  0
    4.1232   -2.7279    1.5254 C   0  0  1  0  0  0  0  0  0  0  0  0
    4.0194   -4.2779    1.3872 C   0  0  0  0  0  0  0  0  0  0  0  0
    3.5881   -2.0597    0.2281 C   0  0  0  0  0  0  0  0  0  0  0  0
    4.3785   -2.5207   -1.0095 C   0  0  1  0  0  0  0  0  0  0  0  0
    3.9704   -1.7738   -2.2501 C   0  0  0  0  0  0  0  0  0  0  0  0
    3.0116   -2.1538   -3.2317 C   0  0  0  0  0  0  0  0  0  0  0  0
    3.0174   -1.1537   -4.1711 C   0  0  0  0  0  0  0  0  0  0  0  0
    3.8948   -0.1827   -3.8481 O   0  0  0  0  0  0  0  0  0  0  0  0
    4.4501   -0.5680   -2.6770 C   0  0  0  0  0  0  0  0  0  0  0  0
    5.7971   -2.4440   -0.8431 O   0  0  0  0  0  0  0  0  0  0  0  0
    6.4483   -2.5537    0.3428 C   0  0  0  0  0  0  0  0  0  0  0  0
    7.6576   -2.7382    0.4174 O   0  0  0  0  0  0  0  0  0  0  0  0
    5.6215   -2.3333    1.6275 C   0  0  1  0  0  0  0  0  0  0  0  0
    5.8104   -0.8792    2.0798 C   0  0  0  0  0  0  0  0  0  0  0  0
    5.1793   -0.6277    3.4512 C   0  0  0  0  0  0  0  0  0  0  0  0
    3.6743   -0.9681    3.5368 C   0  0  2  0  0  0  0  0  0  0  0  0
    3.3419   -1.0648    5.0547 C   0  0  0  0  0  0  0  0  0  0  0  0
    2.7407    0.0423    2.8005 C   0  0  2  0  0  0  0  0  0  0  0  0
    3.6929    2.6116    3.6071 H   0  0  0  0  0  0  0  0  0  0  0  0
    2.0633    3.1917    4.2526 H   0  0  0  0  0  0  0  0  0  0  0  0
    1.2922   -0.6054    1.3234 H   0  0  0  0  0  0  0  0  0  0  0  0
    1.3260   -2.5611    3.5892 H   0  0  0  0  0  0  0  0  0  0  0  0
    1.4432   -2.9025    1.8968 H   0  0  0  0  0  0  0  0  0  0  0  0
    3.5595   -3.1178    3.5773 H   0  0  0  0  0  0  0  0  0  0  0  0
    4.6411   -4.6742    0.5814 H   0  0  0  0  0  0  0  0  0  0  0  0
    2.9934   -4.5905    1.1836 H   0  0  0  0  0  0  0  0  0  0  0  0
    4.3509   -4.7903    2.2961 H   0  0  0  0  0  0  0  0  0  0  0  0
    2.5347   -2.2815    0.0725 H   0  0  0  0  0  0  0  0  0  0  0  0
    3.6541   -0.9773    0.2940 H   0  0  0  0  0  0  0  0  0  0  0  0
    4.1111   -3.5569   -1.2232 H   0  0  0  0  0  0  0  0  0  0  0  0
    2.4013   -3.0475   -3.2628 H   0  0  0  0  0  0  0  0  0  0  0  0
    2.4805   -0.9697   -5.0861 H   0  0  0  0  0  0  0  0  0  0  0  0
    5.1818    0.1254   -2.2966 H   0  0  0  0  0  0  0  0  0  0  0  0
    6.0878   -2.9739    2.3783 H   0  0  0  0  0  0  0  0  0  0  0  0
    6.8826   -0.6693    2.1544 H   0  0  0  0  0  0  0  0  0  0  0  0
    5.4240   -0.1723    1.3440 H   0  0  0  0  0  0  0  0  0  0  0  0
    5.7230   -1.2338    4.1814 H   0  0  0  0  0  0  0  0  0  0  0  0
    5.3436    0.4097    3.7456 H   0  0  0  0  0  0  0  0  0  0  0  0
    3.5847   -0.1487    5.5920 H   0  0  0  0  0  0  0  0  0  0  0  0
    3.9169   -1.8572    5.5320 H   0  0  0  0  0  0  0  0  0  0  0  0
    2.2947   -1.2864    5.2547 H   0  0  0  0  0  0  0  0  0  0  0  0
    3.2194    0.4575    1.9168 H   0  0  0  0  0  0  0  0  0  0  0  0
  1  2  2  0
  1 27  1  0
  1 28  1  0
  2 26  1  0
  2  3  1  0
  3  4  2  0
  3  5  1  0
  5  6  1  0
  6 26  1  0
  6  7  1  0
  6 29  1  6
  7  8  1  0
  7 30  1  0
  7 31  1  0
  8 24  1  0
  8  9  1  0
  8 32  1  1
  9 21  1  0
  9 10  1  6
  9 11  1  0
 10 33  1  0
 10 34  1  0
 10 35  1  0
 11 12  1  0
 11 36  1  0
 11 37  1  0
 12 13  1  0
 12 18  1  0
 12 38  1  6
 13 17  2  0
 13 14  1  0
 14 15  2  0
 14 39  1  0
 15 16  1  0
 15 40  1  0
 16 17  1  0
 17 41  1  0
 18 19  1  0
 19 20  2  0
 19 21  1  0
 21 22  1  0
 21 42  1  1
 22 23  1  0
 22 43  1  0
 22 44  1  0
 23 24  1  0
 23 45  1  0
 23 46  1  0
 24 25  1  1
 24 26  1  0
 25 47  1  0
 25 48  1  0
 25 49  1  0
 26 50  1  6
M  END
>  <i_m_ct_stereo_status>  (113) 
1

>  <s_m_source_file>  (113) 
/var/tmp/pbs.5076255.sched01/tmpikn618da/06v91y69d.sdf

>  <i_m_source_file_index>  (113) 
48

>  <i_lp_mmshare_version>  (113) 
48012

>  <i_f3d_flags>  (113) 
0

>  <s_epik_input>  (113) 
W0NIMl09QzFDKD1PKU9bQ0BIXShbQ0gyXTIpW0NAQEhdMVtDQEBdKFtDSDNdKShbQ0BASF0yW0NAQF0zNFtDSDNdKVtDSDJdW0NIMl1bQ0BASF00Qyg9TylPW0NAQEhdKFtDSDJdMyljNVtjSF1bY0hdb1tjSF01

>  <s_epik_cmdline>  (113) 
J2VwaWtfcHl0aG9uJywgJy1waHQnLCAnMi4wJywgJy1waCcsICc3LjAnLCAnLXRuJywgJzgnLCAnLW1hJywgJzIwMCcsICctaW1hZScsICc8aW5maWxlLm1hZT4nLCAnLW9tYWUnLCAnPG91dGZpbGUubWFlPic=

>  <r_lp_tautomer_probability>  (113) 
1

>  <r_epik_Ionization_Penalty>  (113) 
0

>  <r_epik_Ionization_Penalty_Charging>  (113) 
0

>  <r_epik_Ionization_Penalty_Neutral>  (113) 
0

>  <r_epik_State_Penalty>  (113) 
-0

>  <r_epik_Charging_Adjusted_Penalty>  (113) 
0

>  <i_epik_Tot_Q>  (113) 
0

>  <i_epik_Tot_abs_Q>  (113) 
0

>  <s_epik_Chemistry_Notes>  (113) 
This compound has an ester and may undergo hydrolysis at high or low pH.

>  <s_lp_Force_Field>  (113) 
OPLS3e

>  <r_lp_Energy>  (113) 
40.6652

>  <b_lp_Chiralities_Consistent>  (113) 
1

>  <s_lp_Variant>  (113) 
31:0-1

>  <s_i_glide_gridfile>  (113) 
pfpi4k_grid

>  <i_i_glide_lignum>  (113) 
48

>  <i_i_glide_rotatable_bonds>  (113) 
1

>  <r_i_docking_score>  (113) 
-3.47158

>  <r_i_glide_ligand_efficiency>  (113) 
-0.133522

>  <r_i_glide_ligand_efficiency_sa>  (113) 
-0.39556

>  <r_i_glide_ligand_efficiency_ln>  (113) 
-0.81529

>  <r_i_glide_gscore>  (113) 
-3.47158

>  <r_i_glide_lipo>  (113) 
-0.515909

>  <r_i_glide_hbond>  (113) 
0

>  <r_i_glide_metal>  (113) 
-0

>  <r_i_glide_rewards>  (113) 
-1.08791

>  <r_i_glide_evdw>  (113) 
-29.1034

>  <r_i_glide_ecoul>  (113) 
-3.64955

>  <r_i_glide_erotb>  (113) 
0.150611

>  <r_i_glide_esite>  (113) 
-0.0157754

>  <r_i_glide_emodel>  (113) 
-39.9545

>  <r_i_glide_energy>  (113) 
-32.753

>  <r_i_glide_einternal>  (113) 
0.0212934

>  <r_i_glide_intrahb_reward>  (113) 
-0

>  <i_i_glide_confnum>  (113) 
3

>  <i_i_glide_posenum>  (113) 
1

>  <r_i_glide_eff_state_penalty>  (113) 
0

>  <ligand_id>  (113) 
31

>  <original_smiles>  (113) 
C=C1C(=O)OC2CC3C4(C)CC(c5ccoc5)OC(=O)C4CCC3(C)C12

>  <smiles>  (113) 
[H]C([H])=C1C(=O)OC2([H])C([H])([H])C3([H])C4(C([H])([H])[H])C([H])([H])C([H])(c5c([H])oc([H])c5[H])OC(=O)C4([H])C([H])([H])C([H])([H])C3(C([H])([H])[H])C12[H]

$$$$
32:0:0
     RDKit          3D

 48 53  0  0  1  0  0  0  0  0999 V2000
    3.5722   -3.6107    4.3495 C   0  0  0  0  0  0  0  0  0  0  0  0
    4.3920   -3.3223    3.1894 N   0  0  0  0  0  0  0  0  0  0  0  0
    4.4681   -1.8691    2.8924 C   0  0  0  0  0  0  0  0  0  0  0  0
    4.4424   -1.4337    1.3797 C   0  0  0  0  0  0  0  0  0  0  0  0
    4.9064   -2.4483    0.2581 C   0  0  1  0  0  0  0  0  0  0  0  0
    3.9450   -2.2864   -0.8715 C   0  0  0  0  0  0  0  0  0  0  0  0
    3.0159   -3.3026   -1.5292 C   0  0  2  0  0  0  0  0  0  0  0  0
    2.8969   -2.6076   -2.9018 C   0  0  0  0  0  0  0  0  0  0  0  0
    1.9458   -2.7651   -3.6799 O   0  0  0  0  0  0  0  0  0  0  0  0
    3.9156   -1.7485   -3.0752 N   0  0  0  0  0  0  0  0  0  0  0  0
    4.0805   -0.8471   -4.2059 C   0  0  0  0  0  0  0  0  0  0  0  0
    4.4414   -1.5540   -1.8068 C   0  0  0  0  0  0  0  0  0  0  0  0
    5.8014   -1.3602   -1.7490 O   0  0  0  0  0  0  0  0  0  0  0  0
    6.2096   -1.9041   -0.4607 C   0  0  2  0  0  0  0  0  0  0  0  0
    7.3218   -2.9483   -0.6539 C   0  0  1  0  0  0  0  0  0  0  0  0
    8.5346   -2.2603   -0.8039 O   0  0  0  0  0  0  0  0  0  0  0  0
    7.4362   -3.8362    0.5657 C   0  0  0  0  0  0  0  0  0  0  0  0
    6.3656   -4.2611    1.2489 C   0  0  0  0  0  0  0  0  0  0  0  0
    4.9637   -3.8619    0.8415 C   0  0  2  0  0  0  0  0  0  0  0  0
    4.3562   -4.9886    0.1881 O   0  0  0  0  0  0  0  0  0  0  0  0
    3.6489   -5.3233    1.4046 C   0  0  2  0  0  0  0  0  0  0  0  0
    2.1749   -5.5839    1.0528 C   0  0  0  0  0  0  0  0  0  0  0  0
    1.3674   -6.1723    1.7766 O   0  0  0  0  0  0  0  0  0  0  0  0
    1.5962   -5.1249   -0.3126 C   0  0  0  0  0  0  0  0  0  0  0  0
    1.7546   -3.6319   -0.7751 C   0  0  0  0  0  0  0  0  0  0  0  0
    3.9726   -3.9559    1.9646 C   0  0  1  0  0  0  0  0  0  0  0  0
    4.0368   -3.1671    5.2337 H   0  0  0  0  0  0  0  0  0  0  0  0
    3.5191   -4.6871    4.5162 H   0  0  0  0  0  0  0  0  0  0  0  0
    2.5628   -3.2061    4.2492 H   0  0  0  0  0  0  0  0  0  0  0  0
    3.6959   -1.3024    3.4357 H   0  0  0  0  0  0  0  0  0  0  0  0
    5.4116   -1.5206    3.2961 H   0  0  0  0  0  0  0  0  0  0  0  0
    3.3972   -1.2139    1.1559 H   0  0  0  0  0  0  0  0  0  0  0  0
    4.9326   -0.4725    1.2555 H   0  0  0  0  0  0  0  0  0  0  0  0
    3.5126   -4.2387   -1.7929 H   0  0  0  0  0  0  0  0  0  0  0  0
    4.0607    0.2016   -3.9022 H   0  0  0  0  0  0  0  0  0  0  0  0
    3.3213   -0.9940   -4.9743 H   0  0  0  0  0  0  0  0  0  0  0  0
    5.0039   -1.0647   -4.7045 H   0  0  0  0  0  0  0  0  0  0  0  0
    6.6235   -1.0851    0.1238 H   0  0  0  0  0  0  0  0  0  0  0  0
    7.0729   -3.5714   -1.5024 H   0  0  0  0  0  0  0  0  0  0  0  0
    9.1603   -2.7490   -1.3409 H   0  0  0  0  0  0  0  0  0  0  0  0
    8.4339   -4.0450    0.9123 H   0  0  0  0  0  0  0  0  0  0  0  0
    6.4642   -4.8336    2.1607 H   0  0  0  0  0  0  0  0  0  0  0  0
    4.1402   -6.0946    2.0018 H   0  0  0  0  0  0  0  0  0  0  0  0
    1.8249   -5.7980   -1.0921 H   0  0  0  0  0  0  0  0  0  0  0  0
    0.5354   -5.4222   -0.2957 H   0  0  0  0  0  0  0  0  0  0  0  0
    0.8938   -3.3896   -1.3772 H   0  0  0  0  0  0  0  0  0  0  0  0
    1.7614   -2.9490    0.1124 H   0  0  0  0  0  0  0  0  0  0  0  0
    3.0760   -3.4335    1.6862 H   0  0  0  0  0  0  0  0  0  0  0  0
  1  2  1  0
  1 27  1  0
  1 28  1  0
  1 29  1  0
  2 26  1  0
  2  3  1  0
  3  4  1  0
  3 30  1  0
  3 31  1  0
  5  4  1  1
  4 32  1  0
  4 33  1  0
  5 14  1  0
  5 19  1  0
  5  6  1  0
  6  7  1  0
  6 12  2  0
  7  8  1  0
  7 25  1  0
  7 34  1  6
  8  9  2  0
  8 10  1  0
 10 12  1  0
 10 11  1  0
 11 35  1  0
 11 36  1  0
 11 37  1  0
 12 13  1  0
 13 14  1  0
 14 15  1  0
 14 38  1  1
 15 16  1  0
 15 17  1  0
 15 39  1  6
 16 40  1  0
 17 18  2  0
 17 41  1  0
 19 18  1  1
 18 42  1  0
 19 26  1  0
 19 20  1  0
 20 21  1  0
 21 22  1  0
 21 26  1  0
 21 43  1  1
 22 23  2  0
 22 24  1  0
 24 25  1  0
 24 44  1  0
 24 45  1  0
 25 46  1  0
 25 47  1  0
 26 48  1  6
M  END
>  <i_m_ct_stereo_status>  (114) 
1

>  <s_m_source_file>  (114) 
/var/tmp/pbs.5076255.sched01/tmp276pg2sv/48_ir7zhrj.sdf

>  <i_m_source_file_index>  (114) 
1

>  <i_lp_mmshare_version>  (114) 
48012

>  <i_f3d_flags>  (114) 
0

>  <s_epik_input>  (114) 
W0NIMl0xW0NIMl1OKFtDSDNdKVtDQEBIXShbQ0BAXTIzW0NAXTE0NSlbQ0BIXShPMylDKD1PKVtDSDJdW0NIMl1jNmM0YyhuKFtDSDNdKWM2W09IXSlPW0NAQEhdNVtDQEBIXShbT0hdKVtDSF09W0NIXTI=

>  <s_epik_cmdline>  (114) 
J2VwaWtfcHl0aG9uJywgJy1waHQnLCAnMi4wJywgJy1waCcsICc3LjAnLCAnLXRuJywgJzgnLCAnLW1hJywgJzIwMCcsICctaW1hZScsICc8aW5maWxlLm1hZT4nLCAnLW9tYWUnLCAnPG91dGZpbGUubWFlPic=

>  <r_lp_tautomer_probability>  (114) 
0.999999

>  <r_epik_Ionization_Penalty>  (114) 
0.0243972

>  <r_epik_Ionization_Penalty_Charging>  (114) 
0

>  <r_epik_Ionization_Penalty_Neutral>  (114) 
0.0243972

>  <r_epik_State_Penalty>  (114) 
0.0196755

>  <r_epik_Charging_Adjusted_Penalty>  (114) 
0.0196755

>  <i_epik_Tot_Q>  (114) 
0

>  <i_epik_Tot_abs_Q>  (114) 
0

>  <s_lp_Force_Field>  (114) 
OPLS3e

>  <r_lp_Energy>  (114) 
63.7839

>  <b_lp_Chiralities_Consistent>  (114) 
1

>  <s_lp_Variant>  (114) 
32:0-1

>  <s_i_glide_gridfile>  (114) 
pfpi4k_grid

>  <i_i_glide_lignum>  (114) 
1

>  <i_i_glide_rotatable_bonds>  (114) 
1

>  <r_i_docking_score>  (114) 
-3.49096

>  <r_i_glide_ligand_efficiency>  (114) 
-0.134268

>  <r_i_glide_ligand_efficiency_sa>  (114) 
-0.397767

>  <r_i_glide_ligand_efficiency_ln>  (114) 
-0.819839

>  <r_i_glide_gscore>  (114) 
-3.49096

>  <r_i_glide_lipo>  (114) 
-0.610915

>  <r_i_glide_hbond>  (114) 
-0.10521

>  <r_i_glide_metal>  (114) 
-0

>  <r_i_glide_rewards>  (114) 
-1.05636

>  <r_i_glide_evdw>  (114) 
-25.5028

>  <r_i_glide_ecoul>  (114) 
-2.63286

>  <r_i_glide_erotb>  (114) 
0

>  <r_i_glide_esite>  (114) 
-0.0484038

>  <r_i_glide_emodel>  (114) 
-32.2909

>  <r_i_glide_energy>  (114) 
-28.1356

>  <r_i_glide_einternal>  (114) 
0.410192

>  <r_i_glide_intrahb_reward>  (114) 
-0

>  <i_i_glide_confnum>  (114) 
1

>  <i_i_glide_posenum>  (114) 
2

>  <r_i_glide_eff_state_penalty>  (114) 
0

>  <ligand_id>  (114) 
32

>  <original_smiles>  (114) 
CN1CCC23c4c5c(O)n(C)c4OC2C(O)C=CC32OC(C(=O)CC5)C12

>  <smiles>  (114) 
[H]OC1([H])C([H])=C([H])C23OC4([H])C(=O)C([H])([H])C([H])([H])C5([H])C(=O)N(C([H])([H])[H])C6=C5C2(C([H])([H])C([H])([H])N(C([H])([H])[H])C43[H])C1([H])O6

$$$$
32:0:1
     RDKit          3D

 48 53  0  0  1  0  0  0  0  0999 V2000
    5.2487  -10.9276    4.0272 C   0  0  0  0  0  0  0  0  0  0  0  0
    4.2104   -9.9881    3.6431 N   0  0  0  0  0  0  0  0  0  0  0  0
    3.8078  -10.1441    2.2265 C   0  0  0  0  0  0  0  0  0  0  0  0
    3.5022   -8.8467    1.3918 C   0  0  0  0  0  0  0  0  0  0  0  0
    3.0390   -7.5369    2.1506 C   0  0  1  0  0  0  0  0  0  0  0  0
    3.7561   -6.3825    1.5340 C   0  0  0  0  0  0  0  0  0  0  0  0
    4.7843   -5.3873    2.0488 C   0  0  2  0  0  0  0  0  0  0  0  0
    4.5624   -4.2907    0.9846 C   0  0  0  0  0  0  0  0  0  0  0  0
    5.4052   -3.4468    0.6890 O   0  0  0  0  0  0  0  0  0  0  0  0
    3.3412   -4.4591    0.4141 N   0  0  0  0  0  0  0  0  0  0  0  0
    2.7508   -3.6610   -0.6510 C   0  0  0  0  0  0  0  0  0  0  0  0
    2.9646   -5.7500    0.7246 C   0  0  0  0  0  0  0  0  0  0  0  0
    1.6372   -6.0526    0.7899 O   0  0  0  0  0  0  0  0  0  0  0  0
    1.5511   -7.1768    1.7155 C   0  0  2  0  0  0  0  0  0  0  0  0
    0.6256   -6.8348    2.8958 C   0  0  1  0  0  0  0  0  0  0  0  0
   -0.7328   -6.9336    2.4965 O   0  0  0  0  0  0  0  0  0  0  0  0
    0.8820   -7.7555    4.0783 C   0  0  0  0  0  0  0  0  0  0  0  0
    2.1202   -8.1418    4.4258 C   0  0  0  0  0  0  0  0  0  0  0  0
    3.3447   -7.6961    3.6455 C   0  0  2  0  0  0  0  0  0  0  0  0
    4.0224   -6.6601    4.3954 O   0  0  0  0  0  0  0  0  0  0  0  0
    5.0108   -7.6393    4.8572 C   0  0  2  0  0  0  0  0  0  0  0  0
    6.4200   -7.0738    4.6901 C   0  0  0  0  0  0  0  0  0  0  0  0
    7.4033   -7.4628    5.3177 O   0  0  0  0  0  0  0  0  0  0  0  0
    6.6604   -5.8530    3.7667 C   0  0  0  0  0  0  0  0  0  0  0  0
    6.2173   -5.9273    2.2743 C   0  0  0  0  0  0  0  0  0  0  0  0
    4.5477   -8.5951    3.7861 C   0  0  1  0  0  0  0  0  0  0  0  0
    4.8621  -11.9449    3.9400 H   0  0  0  0  0  0  0  0  0  0  0  0
    5.5309  -10.7746    5.0676 H   0  0  0  0  0  0  0  0  0  0  0  0
    6.1396  -10.8489    3.3975 H   0  0  0  0  0  0  0  0  0  0  0  0
    4.6016  -10.6564    1.6776 H   0  0  0  0  0  0  0  0  0  0  0  0
    2.9341  -10.7902    2.1963 H   0  0  0  0  0  0  0  0  0  0  0  0
    4.4354   -8.5953    0.8851 H   0  0  0  0  0  0  0  0  0  0  0  0
    2.8415   -9.1045    0.5714 H   0  0  0  0  0  0  0  0  0  0  0  0
    4.4559   -4.8722    2.9540 H   0  0  0  0  0  0  0  0  0  0  0  0
    2.6387   -4.2461   -1.5594 H   0  0  0  0  0  0  0  0  0  0  0  0
    3.3552   -2.7893   -0.8938 H   0  0  0  0  0  0  0  0  0  0  0  0
    1.7786   -3.2969   -0.3474 H   0  0  0  0  0  0  0  0  0  0  0  0
    1.1045   -8.0450    1.2153 H   0  0  0  0  0  0  0  0  0  0  0  0
    0.8339   -5.8264    3.2337 H   0  0  0  0  0  0  0  0  0  0  0  0
   -0.9158   -7.8346    2.2535 H   0  0  0  0  0  0  0  0  0  0  0  0
    0.0148   -8.1076    4.6239 H   0  0  0  0  0  0  0  0  0  0  0  0
    2.2684   -8.8352    5.2392 H   0  0  0  0  0  0  0  0  0  0  0  0
    4.7935   -8.0343    5.8486 H   0  0  0  0  0  0  0  0  0  0  0  0
    6.2630   -4.9548    4.2454 H   0  0  0  0  0  0  0  0  0  0  0  0
    7.7420   -5.6999    3.7570 H   0  0  0  0  0  0  0  0  0  0  0  0
    6.9167   -5.3214    1.6987 H   0  0  0  0  0  0  0  0  0  0  0  0
    6.3249   -6.9373    1.8789 H   0  0  0  0  0  0  0  0  0  0  0  0
    5.2638   -8.3941    3.0084 H   0  0  0  0  0  0  0  0  0  0  0  0
  1  2  1  0
  1 27  1  0
  1 28  1  0
  1 29  1  0
  2 26  1  0
  2  3  1  0
  3  4  1  0
  3 30  1  0
  3 31  1  0
  5  4  1  6
  4 32  1  0
  4 33  1  0
  5 14  1  0
  5 19  1  0
  5  6  1  0
  6  7  1  0
  6 12  2  0
  7  8  1  0
  7 25  1  0
  7 34  1  1
  8  9  2  0
  8 10  1  0
 10 12  1  0
 10 11  1  0
 11 35  1  0
 11 36  1  0
 11 37  1  0
 12 13  1  0
 13 14  1  0
 14 15  1  0
 14 38  1  6
 15 16  1  0
 15 17  1  0
 15 39  1  1
 16 40  1  0
 17 18  2  0
 17 41  1  0
 19 18  1  1
 18 42  1  0
 19 26  1  0
 19 20  1  0
 20 21  1  0
 21 22  1  0
 21 26  1  0
 21 43  1  1
 22 23  2  0
 22 24  1  0
 24 25  1  0
 24 44  1  0
 24 45  1  0
 25 46  1  0
 25 47  1  0
 26 48  1  6
M  END
>  <i_m_ct_stereo_status>  (115) 
1

>  <s_m_source_file>  (115) 
/var/tmp/pbs.5076255.sched01/tmp276pg2sv/48_ir7zhrj.sdf

>  <i_m_source_file_index>  (115) 
1

>  <i_lp_mmshare_version>  (115) 
48012

>  <i_f3d_flags>  (115) 
0

>  <s_epik_input>  (115) 
W0NIMl0xW0NIMl1OKFtDSDNdKVtDQEBIXShbQ0BAXTIzW0NAXTE0NSlbQ0BIXShPMylDKD1PKVtDSDJdW0NIMl1jNmM0YyhuKFtDSDNdKWM2W09IXSlPW0NAQEhdNVtDQEBIXShbT0hdKVtDSF09W0NIXTI=

>  <s_epik_cmdline>  (115) 
J2VwaWtfcHl0aG9uJywgJy1waHQnLCAnMi4wJywgJy1waCcsICc3LjAnLCAnLXRuJywgJzgnLCAnLW1hJywgJzIwMCcsICctaW1hZScsICc8aW5maWxlLm1hZT4nLCAnLW9tYWUnLCAnPG91dGZpbGUubWFlPic=

>  <r_lp_tautomer_probability>  (115) 
0.999999

>  <r_epik_Ionization_Penalty>  (115) 
0.0243972

>  <r_epik_Ionization_Penalty_Charging>  (115) 
0

>  <r_epik_Ionization_Penalty_Neutral>  (115) 
0.0243972

>  <r_epik_State_Penalty>  (115) 
0.0196755

>  <r_epik_Charging_Adjusted_Penalty>  (115) 
0.0196755

>  <i_epik_Tot_Q>  (115) 
0

>  <i_epik_Tot_abs_Q>  (115) 
0

>  <s_lp_Force_Field>  (115) 
OPLS3e

>  <r_lp_Energy>  (115) 
63.7839

>  <b_lp_Chiralities_Consistent>  (115) 
1

>  <s_lp_Variant>  (115) 
32:0-1

>  <s_i_glide_gridfile>  (115) 
pfpi4k_grid

>  <i_i_glide_lignum>  (115) 
1

>  <i_i_glide_rotatable_bonds>  (115) 
1

>  <r_i_docking_score>  (115) 
-3.03748

>  <r_i_glide_ligand_efficiency>  (115) 
-0.116826

>  <r_i_glide_ligand_efficiency_sa>  (115) 
-0.346097

>  <r_i_glide_ligand_efficiency_ln>  (115) 
-0.713341

>  <r_i_glide_gscore>  (115) 
-3.03748

>  <r_i_glide_lipo>  (115) 
-0.102628

>  <r_i_glide_hbond>  (115) 
-0.0862397

>  <r_i_glide_metal>  (115) 
-0

>  <r_i_glide_rewards>  (115) 
-1.00611

>  <r_i_glide_evdw>  (115) 
-17.705

>  <r_i_glide_ecoul>  (115) 
-6.32363

>  <r_i_glide_erotb>  (115) 
0

>  <r_i_glide_esite>  (115) 
-0.00870883

>  <r_i_glide_emodel>  (115) 
-27.9909

>  <r_i_glide_energy>  (115) 
-24.0286

>  <r_i_glide_einternal>  (115) 
0.0331621

>  <r_i_glide_intrahb_reward>  (115) 
-0

>  <i_i_glide_confnum>  (115) 
1

>  <i_i_glide_posenum>  (115) 
6

>  <r_i_glide_eff_state_penalty>  (115) 
0

>  <ligand_id>  (115) 
32

>  <original_smiles>  (115) 
CN1CCC23c4c5c(O)n(C)c4OC2C(O)C=CC32OC(C(=O)CC5)C12

>  <smiles>  (115) 
[H]OC1([H])C([H])=C([H])C23OC4([H])C(=O)C([H])([H])C([H])([H])C5([H])C(=O)N(C([H])([H])[H])C6=C5C2(C([H])([H])C([H])([H])N(C([H])([H])[H])C43[H])C1([H])O6

$$$$
32:0:2
     RDKit          3D

 48 53  0  0  1  0  0  0  0  0999 V2000
    2.8741   -5.8313    4.7861 C   0  0  0  0  0  0  0  0  0  0  0  0
    3.0334   -4.5052    4.2203 N   0  0  0  0  0  0  0  0  0  0  0  0
    1.8349   -4.0545    3.4732 C   0  0  0  0  0  0  0  0  0  0  0  0
    2.0806   -3.2410    2.1471 C   0  0  0  0  0  0  0  0  0  0  0  0
    3.4189   -2.4432    1.9364 C   0  0  1  0  0  0  0  0  0  0  0  0
    3.8665   -2.6768    0.5208 C   0  0  0  0  0  0  0  0  0  0  0  0
    5.0735   -3.3521   -0.1046 C   0  0  2  0  0  0  0  0  0  0  0  0
    4.9972   -2.6651   -1.4869 C   0  0  0  0  0  0  0  0  0  0  0  0
    5.5014   -3.1170   -2.5074 O   0  0  0  0  0  0  0  0  0  0  0  0
    4.2616   -1.5275   -1.3987 N   0  0  0  0  0  0  0  0  0  0  0  0
    3.9068   -0.6237   -2.4830 C   0  0  0  0  0  0  0  0  0  0  0  0
    3.5881   -1.6521   -0.1940 C   0  0  0  0  0  0  0  0  0  0  0  0
    3.2297   -0.5074    0.4515 O   0  0  0  0  0  0  0  0  0  0  0  0
    3.0914   -0.8899    1.8417 C   0  0  2  0  0  0  0  0  0  0  0  0
    4.0036   -0.0159    2.7110 C   0  0  1  0  0  0  0  0  0  0  0  0
    3.4042    1.2413    2.9499 O   0  0  0  0  0  0  0  0  0  0  0  0
    4.3015   -0.6747    4.0434 C   0  0  0  0  0  0  0  0  0  0  0  0
    4.5116   -1.9929    4.1587 C   0  0  0  0  0  0  0  0  0  0  0  0
    4.4392   -2.9159    2.9652 C   0  0  2  0  0  0  0  0  0  0  0  0
    5.7779   -3.2715    2.5608 O   0  0  0  0  0  0  0  0  0  0  0  0
    5.6287   -4.5629    3.2421 C   0  0  2  0  0  0  0  0  0  0  0  0
    6.1294   -5.6764    2.3285 C   0  0  0  0  0  0  0  0  0  0  0  0
    6.4917   -6.7811    2.7083 O   0  0  0  0  0  0  0  0  0  0  0  0
    6.3262   -5.4025    0.8166 C   0  0  0  0  0  0  0  0  0  0  0  0
    5.1200   -4.8930   -0.0253 C   0  0  0  0  0  0  0  0  0  0  0  0
    4.1383   -4.3584    3.3024 C   0  0  1  0  0  0  0  0  0  0  0  0
    2.0732   -5.8069    5.5193 H   0  0  0  0  0  0  0  0  0  0  0  0
    3.7856   -6.1270    5.3069 H   0  0  0  0  0  0  0  0  0  0  0  0
    2.6313   -6.5802    4.0288 H   0  0  0  0  0  0  0  0  0  0  0  0
    1.1696   -4.9013    3.2422 H   0  0  0  0  0  0  0  0  0  0  0  0
    1.2659   -3.4247    4.1386 H   0  0  0  0  0  0  0  0  0  0  0  0
    2.0320   -3.9719    1.3416 H   0  0  0  0  0  0  0  0  0  0  0  0
    1.2438   -2.5767    2.0043 H   0  0  0  0  0  0  0  0  0  0  0  0
    6.0116   -2.9458    0.2754 H   0  0  0  0  0  0  0  0  0  0  0  0
    2.8327   -0.6275   -2.6818 H   0  0  0  0  0  0  0  0  0  0  0  0
    4.4196   -0.8769   -3.4116 H   0  0  0  0  0  0  0  0  0  0  0  0
    4.2061    0.3938   -2.2457 H   0  0  0  0  0  0  0  0  0  0  0  0
    2.0683   -0.6999    2.1974 H   0  0  0  0  0  0  0  0  0  0  0  0
    4.9506    0.1143    2.2039 H   0  0  0  0  0  0  0  0  0  0  0  0
    3.9534    1.9081    2.5403 H   0  0  0  0  0  0  0  0  0  0  0  0
    4.2956   -0.0113    4.9053 H   0  0  0  0  0  0  0  0  0  0  0  0
    4.6502   -2.4351    5.1247 H   0  0  0  0  0  0  0  0  0  0  0  0
    6.0500   -4.5707    4.2471 H   0  0  0  0  0  0  0  0  0  0  0  0
    7.2055   -4.7720    0.6644 H   0  0  0  0  0  0  0  0  0  0  0  0
    6.6105   -6.3627    0.3881 H   0  0  0  0  0  0  0  0  0  0  0  0
    5.2175   -5.2867   -1.0372 H   0  0  0  0  0  0  0  0  0  0  0  0
    4.1744   -5.2941    0.3439 H   0  0  0  0  0  0  0  0  0  0  0  0
    3.8447   -4.8859    2.4176 H   0  0  0  0  0  0  0  0  0  0  0  0
  1  2  1  0
  1 27  1  0
  1 28  1  0
  1 29  1  0
  2 26  1  0
  2  3  1  0
  3  4  1  0
  3 30  1  0
  3 31  1  0
  5  4  1  1
  4 32  1  0
  4 33  1  0
  5 14  1  0
  5 19  1  0
  5  6  1  0
  6  7  1  0
  6 12  2  0
  7  8  1  0
  7 25  1  0
  7 34  1  1
  8  9  2  0
  8 10  1  0
 10 12  1  0
 10 11  1  0
 11 35  1  0
 11 36  1  0
 11 37  1  0
 12 13  1  0
 13 14  1  0
 14 15  1  0
 14 38  1  1
 15 16  1  0
 15 17  1  0
 15 39  1  6
 16 40  1  0
 17 18  2  0
 17 41  1  0
 19 18  1  1
 18 42  1  0
 19 26  1  0
 19 20  1  0
 20 21  1  0
 21 22  1  0
 21 26  1  0
 21 43  1  1
 22 23  2  0
 22 24  1  0
 24 25  1  0
 24 44  1  0
 24 45  1  0
 25 46  1  0
 25 47  1  0
 26 48  1  6
M  END
>  <i_m_ct_stereo_status>  (116) 
1

>  <s_m_source_file>  (116) 
/var/tmp/pbs.5076255.sched01/tmp276pg2sv/48_ir7zhrj.sdf

>  <i_m_source_file_index>  (116) 
1

>  <i_lp_mmshare_version>  (116) 
48012

>  <i_f3d_flags>  (116) 
0

>  <s_epik_input>  (116) 
W0NIMl0xW0NIMl1OKFtDSDNdKVtDQEBIXShbQ0BAXTIzW0NAXTE0NSlbQ0BIXShPMylDKD1PKVtDSDJdW0NIMl1jNmM0YyhuKFtDSDNdKWM2W09IXSlPW0NAQEhdNVtDQEBIXShbT0hdKVtDSF09W0NIXTI=

>  <s_epik_cmdline>  (116) 
J2VwaWtfcHl0aG9uJywgJy1waHQnLCAnMi4wJywgJy1waCcsICc3LjAnLCAnLXRuJywgJzgnLCAnLW1hJywgJzIwMCcsICctaW1hZScsICc8aW5maWxlLm1hZT4nLCAnLW9tYWUnLCAnPG91dGZpbGUubWFlPic=

>  <r_lp_tautomer_probability>  (116) 
0.999999

>  <r_epik_Ionization_Penalty>  (116) 
0.0243972

>  <r_epik_Ionization_Penalty_Charging>  (116) 
0

>  <r_epik_Ionization_Penalty_Neutral>  (116) 
0.0243972

>  <r_epik_State_Penalty>  (116) 
0.0196755

>  <r_epik_Charging_Adjusted_Penalty>  (116) 
0.0196755

>  <i_epik_Tot_Q>  (116) 
0

>  <i_epik_Tot_abs_Q>  (116) 
0

>  <s_lp_Force_Field>  (116) 
OPLS3e

>  <r_lp_Energy>  (116) 
63.7839

>  <b_lp_Chiralities_Consistent>  (116) 
1

>  <s_lp_Variant>  (116) 
32:0-1

>  <s_i_glide_gridfile>  (116) 
pfpi4k_grid

>  <i_i_glide_lignum>  (116) 
1

>  <i_i_glide_rotatable_bonds>  (116) 
1

>  <r_i_docking_score>  (116) 
-2.87697

>  <r_i_glide_ligand_efficiency>  (116) 
-0.110653

>  <r_i_glide_ligand_efficiency_sa>  (116) 
-0.327808

>  <r_i_glide_ligand_efficiency_ln>  (116) 
-0.675647

>  <r_i_glide_gscore>  (116) 
-2.87697

>  <r_i_glide_lipo>  (116) 
-0.313087

>  <r_i_glide_hbond>  (116) 
0

>  <r_i_glide_metal>  (116) 
-0

>  <r_i_glide_rewards>  (116) 
-1.00807

>  <r_i_glide_evdw>  (116) 
-18.3747

>  <r_i_glide_ecoul>  (116) 
-3.90536

>  <r_i_glide_erotb>  (116) 
0

>  <r_i_glide_esite>  (116) 
-0.0512722

>  <r_i_glide_emodel>  (116) 
-25.4515

>  <r_i_glide_energy>  (116) 
-22.28

>  <r_i_glide_einternal>  (116) 
0.950624

>  <r_i_glide_intrahb_reward>  (116) 
-0

>  <i_i_glide_confnum>  (116) 
1

>  <i_i_glide_posenum>  (116) 
13

>  <r_i_glide_eff_state_penalty>  (116) 
0

>  <ligand_id>  (116) 
32

>  <original_smiles>  (116) 
CN1CCC23c4c5c(O)n(C)c4OC2C(O)C=CC32OC(C(=O)CC5)C12

>  <smiles>  (116) 
[H]OC1([H])C([H])=C([H])C23OC4([H])C(=O)C([H])([H])C([H])([H])C5([H])C(=O)N(C([H])([H])[H])C6=C5C2(C([H])([H])C([H])([H])N(C([H])([H])[H])C43[H])C1([H])O6

$$$$
32:1:0
     RDKit          3D

 48 53  0  0  1  0  0  0  0  0999 V2000
    5.7811   -6.1671    2.8286 C   0  0  0  0  0  0  0  0  0  0  0  0
    5.1211   -4.8755    2.7143 N   0  0  0  0  0  0  0  0  0  0  0  0
    3.6932   -5.0296    2.3300 C   0  0  0  0  0  0  0  0  0  0  0  0
    2.9493   -3.7330    1.8076 C   0  0  0  0  0  0  0  0  0  0  0  0
    3.8142   -2.6084    1.1324 C   0  0  1  0  0  0  0  0  0  0  0  0
    3.9996   -2.6166   -0.3646 C   0  0  0  0  0  0  0  0  0  0  0  0
    4.2312   -3.5469   -1.5253 C   0  0  1  0  0  0  0  0  0  0  0  0
    4.0535   -2.5414   -2.6925 C   0  0  0  0  0  0  0  0  0  0  0  0
    4.1739   -2.8190   -3.8878 O   0  0  0  0  0  0  0  0  0  0  0  0
    3.8055   -1.3105   -2.2011 N   0  0  0  0  0  0  0  0  0  0  0  0
    3.5768   -0.1217   -2.9950 C   0  0  0  0  0  0  0  0  0  0  0  0
    3.8322   -1.4265   -0.8221 C   0  0  0  0  0  0  0  0  0  0  0  0
    3.4229   -0.4731    0.0588 O   0  0  0  0  0  0  0  0  0  0  0  0
    3.1179   -1.1979    1.2581 C   0  0  2  0  0  0  0  0  0  0  0  0
    3.4133   -0.3342    2.5071 C   0  0  1  0  0  0  0  0  0  0  0  0
    2.2064   -0.0063    3.1616 O   0  0  0  0  0  0  0  0  0  0  0  0
    4.3615   -0.9859    3.4769 C   0  0  0  0  0  0  0  0  0  0  0  0
    5.1703   -2.0003    3.1470 C   0  0  0  0  0  0  0  0  0  0  0  0
    5.1757   -2.6274    1.7625 C   0  0  2  0  0  0  0  0  0  0  0  0
    6.3350   -2.1617    1.0228 O   0  0  0  0  0  0  0  0  0  0  0  0
    7.0003   -3.4350    1.2666 C   0  0  2  0  0  0  0  0  0  0  0  0
    7.6121   -3.8888   -0.0311 C   0  0  0  0  0  0  0  0  0  0  0  0
    8.6409   -4.5579   -0.1231 O   0  0  0  0  0  0  0  0  0  0  0  0
    6.8944   -3.4470   -1.3366 C   0  0  0  0  0  0  0  0  0  0  0  0
    5.5947   -4.2446   -1.6530 C   0  0  0  0  0  0  0  0  0  0  0  0
    5.6666   -4.0376    1.6774 C   0  0  1  0  0  0  0  0  0  0  0  0
    5.3208   -6.7362    3.6366 H   0  0  0  0  0  0  0  0  0  0  0  0
    6.8347   -6.0282    3.0765 H   0  0  0  0  0  0  0  0  0  0  0  0
    5.7101   -6.7491    1.9068 H   0  0  0  0  0  0  0  0  0  0  0  0
    3.6111   -5.7717    1.5345 H   0  0  0  0  0  0  0  0  0  0  0  0
    3.1352   -5.4345    3.1750 H   0  0  0  0  0  0  0  0  0  0  0  0
    2.1149   -4.0091    1.1595 H   0  0  0  0  0  0  0  0  0  0  0  0
    2.4871   -3.2803    2.6893 H   0  0  0  0  0  0  0  0  0  0  0  0
    3.4098   -4.2571   -1.6024 H   0  0  0  0  0  0  0  0  0  0  0  0
    4.2303    0.6858   -2.6806 H   0  0  0  0  0  0  0  0  0  0  0  0
    2.5250    0.1158   -2.8742 H   0  0  0  0  0  0  0  0  0  0  0  0
    3.7414   -0.2602   -4.0579 H   0  0  0  0  0  0  0  0  0  0  0  0
    2.0409   -1.3620    1.2250 H   0  0  0  0  0  0  0  0  0  0  0  0
    3.8702    0.6045    2.2135 H   0  0  0  0  0  0  0  0  0  0  0  0
    1.6873    0.5375    2.5843 H   0  0  0  0  0  0  0  0  0  0  0  0
    4.3707   -0.6025    4.4825 H   0  0  0  0  0  0  0  0  0  0  0  0
    5.8160   -2.4465    3.8833 H   0  0  0  0  0  0  0  0  0  0  0  0
    7.6996   -3.4491    2.0745 H   0  0  0  0  0  0  0  0  0  0  0  0
    6.7456   -2.3720   -1.3463 H   0  0  0  0  0  0  0  0  0  0  0  0
    7.6221   -3.6319   -2.1360 H   0  0  0  0  0  0  0  0  0  0  0  0
    5.6749   -4.5462   -2.6980 H   0  0  0  0  0  0  0  0  0  0  0  0
    5.5588   -5.1883   -1.1005 H   0  0  0  0  0  0  0  0  0  0  0  0
    5.3301   -4.4976    0.7645 H   0  0  0  0  0  0  0  0  0  0  0  0
  1  2  1  0
  1 27  1  0
  1 28  1  0
  1 29  1  0
  2 26  1  0
  2  3  1  0
  3  4  1  0
  3 30  1  0
  3 31  1  0
  5  4  1  1
  4 32  1  0
  4 33  1  0
  5 14  1  0
  5 19  1  0
  5  6  1  0
  6  7  1  0
  6 12  2  0
  7  8  1  0
  7 25  1  0
  7 34  1  6
  8  9  2  0
  8 10  1  0
 10 12  1  0
 10 11  1  0
 11 35  1  0
 11 36  1  0
 11 37  1  0
 12 13  1  0
 13 14  1  0
 14 15  1  0
 14 38  1  6
 15 16  1  0
 15 17  1  0
 15 39  1  6
 16 40  1  0
 17 18  2  0
 17 41  1  0
 19 18  1  1
 18 42  1  0
 19 26  1  0
 19 20  1  0
 20 21  1  0
 21 22  1  0
 21 26  1  0
 21 43  1  1
 22 23  2  0
 22 24  1  0
 24 25  1  0
 24 44  1  0
 24 45  1  0
 25 46  1  0
 25 47  1  0
 26 48  1  6
M  END
>  <i_m_ct_stereo_status>  (117) 
1

>  <s_m_source_file>  (117) 
/var/tmp/pbs.5076255.sched01/tmp276pg2sv/48_ir7zhrj.sdf

>  <i_m_source_file_index>  (117) 
2

>  <i_lp_mmshare_version>  (117) 
48012

>  <i_f3d_flags>  (117) 
0

>  <s_epik_input>  (117) 
W0NIMl0xW0NIMl1OKFtDSDNdKVtDQEBIXShbQ0BAXTIzW0NAXTE0NSlbQ0BIXShPMylDKD1PKVtDSDJdW0NIMl1jNmM0YyhuKFtDSDNdKWM2W09IXSlPW0NAQEhdNVtDQEBIXShbT0hdKVtDSF09W0NIXTI=

>  <s_epik_cmdline>  (117) 
J2VwaWtfcHl0aG9uJywgJy1waHQnLCAnMi4wJywgJy1waCcsICc3LjAnLCAnLXRuJywgJzgnLCAnLW1hJywgJzIwMCcsICctaW1hZScsICc8aW5maWxlLm1hZT4nLCAnLW9tYWUnLCAnPG91dGZpbGUubWFlPic=

>  <r_lp_tautomer_probability>  (117) 
0.999999

>  <r_epik_Ionization_Penalty>  (117) 
0.0243972

>  <r_epik_Ionization_Penalty_Charging>  (117) 
0

>  <r_epik_Ionization_Penalty_Neutral>  (117) 
0.0243972

>  <r_epik_State_Penalty>  (117) 
0.0196755

>  <r_epik_Charging_Adjusted_Penalty>  (117) 
0.0196755

>  <i_epik_Tot_Q>  (117) 
0

>  <i_epik_Tot_abs_Q>  (117) 
0

>  <s_lp_Force_Field>  (117) 
OPLS3e

>  <r_lp_Energy>  (117) 
53.9232

>  <b_lp_Chiralities_Consistent>  (117) 
1

>  <s_lp_Variant>  (117) 
32:0-2

>  <s_i_glide_gridfile>  (117) 
pfpi4k_grid

>  <i_i_glide_lignum>  (117) 
2

>  <i_i_glide_rotatable_bonds>  (117) 
1

>  <r_i_docking_score>  (117) 
-3.42282

>  <r_i_glide_ligand_efficiency>  (117) 
-0.131647

>  <r_i_glide_ligand_efficiency_sa>  (117) 
-0.390003

>  <r_i_glide_ligand_efficiency_ln>  (117) 
-0.803837

>  <r_i_glide_gscore>  (117) 
-3.42282

>  <r_i_glide_lipo>  (117) 
-0.462894

>  <r_i_glide_hbond>  (117) 
-0.106974

>  <r_i_glide_metal>  (117) 
-0

>  <r_i_glide_rewards>  (117) 
-1.25567

>  <r_i_glide_evdw>  (117) 
-18.2923

>  <r_i_glide_ecoul>  (117) 
-4.16591

>  <r_i_glide_erotb>  (117) 
0

>  <r_i_glide_esite>  (117) 
-0.057772

>  <r_i_glide_emodel>  (117) 
-25.6431

>  <r_i_glide_energy>  (117) 
-22.4582

>  <r_i_glide_einternal>  (117) 
0.463554

>  <r_i_glide_intrahb_reward>  (117) 
-0

>  <i_i_glide_confnum>  (117) 
1

>  <i_i_glide_posenum>  (117) 
25

>  <r_i_glide_eff_state_penalty>  (117) 
0

>  <ligand_id>  (117) 
32

>  <original_smiles>  (117) 
CN1CCC23c4c5c(O)n(C)c4OC2C(O)C=CC32OC(C(=O)CC5)C12

>  <smiles>  (117) 
[H]OC1([H])C([H])=C([H])C23OC4([H])C(=O)C([H])([H])C([H])([H])C5([H])C(=O)N(C([H])([H])[H])C6=C5C2(C([H])([H])C([H])([H])N(C([H])([H])[H])C43[H])C1([H])O6

$$$$
32:2:0
     RDKit          3D

 49 54  0  0  1  0  0  0  0  0999 V2000
    3.6030   -3.1896   -2.7328 C   0  0  0  0  0  0  0  0  0  0  0  0
    3.5690   -3.8429   -1.4188 N   0  0  2  0  0  0  0  0  0  0  0  0
    2.2823   -3.5844   -0.6914 C   0  0  0  0  0  0  0  0  0  0  0  0
    2.4092   -2.7651    0.6537 C   0  0  0  0  0  0  0  0  0  0  0  0
    3.4753   -3.3139    1.6617 C   0  0  1  0  0  0  0  0  0  0  0  0
    4.0281   -2.1285    2.3763 C   0  0  0  0  0  0  0  0  0  0  0  0
    5.4235   -1.5544    2.4234 C   0  0  2  0  0  0  0  0  0  0  0  0
    5.2717   -0.8007    3.7601 C   0  0  0  0  0  0  0  0  0  0  0  0
    5.9596    0.1680    4.0924 O   0  0  0  0  0  0  0  0  0  0  0  0
    4.2520   -1.3285    4.4808 N   0  0  0  0  0  0  0  0  0  0  0  0
    3.7582   -0.9408    5.7858 C   0  0  0  0  0  0  0  0  0  0  0  0
    3.5216   -2.0464    3.5395 C   0  0  0  0  0  0  0  0  0  0  0  0
    2.8303   -3.1366    4.0038 O   0  0  0  0  0  0  0  0  0  0  0  0
    2.7549   -4.0500    2.8575 C   0  0  2  0  0  0  0  0  0  0  0  0
    3.3358   -5.4338    3.1833 C   0  0  1  0  0  0  0  0  0  0  0  0
    2.3744   -6.1920    3.8870 O   0  0  0  0  0  0  0  0  0  0  0  0
    3.7038   -6.1905    1.9215 C   0  0  0  0  0  0  0  0  0  0  0  0
    4.2296   -5.5903    0.8419 C   0  0  0  0  0  0  0  0  0  0  0  0
    4.4947   -4.0865    0.8460 C   0  0  2  0  0  0  0  0  0  0  0  0
    5.9026   -3.9151    1.0275 O   0  0  0  0  0  0  0  0  0  0  0  0
    6.0748   -3.7068   -0.3968 C   0  0  2  0  0  0  0  0  0  0  0  0
    6.9721   -2.5124   -0.6000 C   0  0  0  0  0  0  0  0  0  0  0  0
    7.6187   -2.3101   -1.6230 O   0  0  0  0  0  0  0  0  0  0  0  0
    7.1497   -1.4520    0.5101 C   0  0  0  0  0  0  0  0  0  0  0  0
    5.9031   -0.8013    1.1743 C   0  0  0  0  0  0  0  0  0  0  0  0
    4.6106   -3.3688   -0.4966 C   0  0  1  0  0  0  0  0  0  0  0  0
    3.4600   -2.1131   -2.6684 H   0  0  0  0  0  0  0  0  0  0  0  0
    2.8066   -3.5711   -3.3775 H   0  0  0  0  0  0  0  0  0  0  0  0
    4.5511   -3.3764   -3.2532 H   0  0  0  0  0  0  0  0  0  0  0  0
    1.5634   -3.0964   -1.3506 H   0  0  0  0  0  0  0  0  0  0  0  0
    1.8328   -4.5576   -0.4794 H   0  0  0  0  0  0  0  0  0  0  0  0
    2.6844   -1.7411    0.3817 H   0  0  0  0  0  0  0  0  0  0  0  0
    1.4762   -2.6187    1.1764 H   0  0  0  0  0  0  0  0  0  0  0  0
    6.1668   -2.3098    2.6911 H   0  0  0  0  0  0  0  0  0  0  0  0
    2.7469   -0.5297    5.7231 H   0  0  0  0  0  0  0  0  0  0  0  0
    4.3820   -0.1690    6.2353 H   0  0  0  0  0  0  0  0  0  0  0  0
    3.7440   -1.7916    6.4734 H   0  0  0  0  0  0  0  0  0  0  0  0
    1.7094   -4.2075    2.6045 H   0  0  0  0  0  0  0  0  0  0  0  0
    4.2451   -5.3089    3.7663 H   0  0  0  0  0  0  0  0  0  0  0  0
    2.8073   -6.9470    4.2648 H   0  0  0  0  0  0  0  0  0  0  0  0
    3.4893   -7.2502    1.9304 H   0  0  0  0  0  0  0  0  0  0  0  0
    4.4634   -6.1630   -0.0466 H   0  0  0  0  0  0  0  0  0  0  0  0
    6.3203   -4.6129   -0.9277 H   0  0  0  0  0  0  0  0  0  0  0  0
    7.8178   -1.8380    1.2773 H   0  0  0  0  0  0  0  0  0  0  0  0
    7.7194   -0.6460    0.0775 H   0  0  0  0  0  0  0  0  0  0  0  0
    6.2109    0.1803    1.4946 H   0  0  0  0  0  0  0  0  0  0  0  0
    5.1072   -0.5860    0.4651 H   0  0  0  0  0  0  0  0  0  0  0  0
    4.5569   -2.2983   -0.4391 H   0  0  0  0  0  0  0  0  0  0  0  0
    3.6138   -4.8372   -1.6007 H   0  0  0  0  0  0  0  0  0  0  0  0
  1  2  1  0
  1 27  1  0
  1 28  1  0
  1 29  1  0
  2 26  1  0
  2  3  1  0
  2 49  1  6
  3  4  1  0
  3 30  1  0
  3 31  1  0
  5  4  1  6
  4 32  1  0
  4 33  1  0
  5 14  1  0
  5 19  1  0
  5  6  1  0
  6  7  1  0
  6 12  2  0
  7  8  1  0
  7 25  1  0
  7 34  1  1
  8  9  2  0
  8 10  1  0
 10 12  1  0
 10 11  1  0
 11 35  1  0
 11 36  1  0
 11 37  1  0
 12 13  1  0
 13 14  1  0
 14 15  1  0
 14 38  1  6
 15 16  1  0
 15 17  1  0
 15 39  1  1
 16 40  1  0
 17 18  2  0
 17 41  1  0
 19 18  1  6
 18 42  1  0
 19 26  1  0
 19 20  1  0
 20 21  1  0
 21 22  1  0
 21 26  1  0
 21 43  1  6
 22 23  2  0
 22 24  1  0
 24 25  1  0
 24 44  1  0
 24 45  1  0
 25 46  1  0
 25 47  1  0
 26 48  1  1
M  CHG  1   2   1
M  END
>  <i_m_ct_stereo_status>  (118) 
1

>  <s_m_source_file>  (118) 
/var/tmp/pbs.5076255.sched01/tmp276pg2sv/48_ir7zhrj.sdf

>  <i_m_source_file_index>  (118) 
3

>  <i_lp_mmshare_version>  (118) 
48012

>  <i_f3d_flags>  (118) 
0

>  <s_epik_input>  (118) 
W0NIMl0xW0NIMl1OKFtDSDNdKVtDQEBIXShbQ0BAXTIzW0NAXTE0NSlbQ0BIXShPMylDKD1PKVtDSDJdW0NIMl1jNmM0YyhuKFtDSDNdKWM2W09IXSlPW0NAQEhdNVtDQEBIXShbT0hdKVtDSF09W0NIXTI=

>  <s_epik_cmdline>  (118) 
J2VwaWtfcHl0aG9uJywgJy1waHQnLCAnMi4wJywgJy1waCcsICc3LjAnLCAnLXRuJywgJzgnLCAnLW1hJywgJzIwMCcsICctaW1hZScsICc8aW5maWxlLm1hZT4nLCAnLW9tYWUnLCAnPG91dGZpbGUubWFlPic=

>  <r_lp_tautomer_probability>  (118) 
0.999999

>  <r_epik_Ionization_Penalty>  (118) 
1.91099

>  <r_epik_Ionization_Penalty_Charging>  (118) 
1.90557

>  <r_epik_Ionization_Penalty_Neutral>  (118) 
0.00541707

>  <r_epik_State_Penalty>  (118) 
2.0272

>  <r_epik_Charging_Adjusted_Penalty>  (118) 
3.93277

>  <i_epik_Tot_Q>  (118) 
1

>  <i_epik_Tot_abs_Q>  (118) 
1

>  <s_lp_Force_Field>  (118) 
OPLS3e

>  <r_lp_Energy>  (118) 
72.4822

>  <b_lp_Chiralities_Consistent>  (118) 
1

>  <s_lp_Variant>  (118) 
32:0-3

>  <s_i_glide_gridfile>  (118) 
pfpi4k_grid

>  <i_i_glide_lignum>  (118) 
3

>  <i_i_glide_rotatable_bonds>  (118) 
1

>  <r_i_docking_score>  (118) 
-3.81586

>  <r_i_glide_ligand_efficiency>  (118) 
-0.146764

>  <r_i_glide_ligand_efficiency_sa>  (118) 
-0.434787

>  <r_i_glide_ligand_efficiency_ln>  (118) 
-0.896142

>  <r_i_glide_gscore>  (118) 
-3.81586

>  <r_i_glide_lipo>  (118) 
-0.424799

>  <r_i_glide_hbond>  (118) 
-0.16

>  <r_i_glide_metal>  (118) 
-0

>  <r_i_glide_rewards>  (118) 
-1.10186

>  <r_i_glide_evdw>  (118) 
-17.1068

>  <r_i_glide_ecoul>  (118) 
-8.20122

>  <r_i_glide_erotb>  (118) 
0

>  <r_i_glide_esite>  (118) 
-0.0436775

>  <r_i_glide_emodel>  (118) 
-28.8888

>  <r_i_glide_energy>  (118) 
-25.308

>  <r_i_glide_einternal>  (118) 
0.311977

>  <r_i_glide_intrahb_reward>  (118) 
-0

>  <i_i_glide_confnum>  (118) 
2

>  <i_i_glide_posenum>  (118) 
15

>  <r_i_glide_eff_state_penalty>  (118) 
0

>  <ligand_id>  (118) 
32

>  <original_smiles>  (118) 
CN1CCC23c4c5c(O)n(C)c4OC2C(O)C=CC32OC(C(=O)CC5)C12

>  <smiles>  (118) 
[H]OC1([H])C([H])=C([H])C23OC4([H])C(=O)C([H])([H])C([H])([H])C5([H])C(=O)N(C([H])([H])[H])C6=C5C2(C([H])([H])C([H])([H])[N+]([H])(C([H])([H])[H])C43[H])C1([H])O6

$$$$
32:2:1
     RDKit          3D

 49 54  0  0  1  0  0  0  0  0999 V2000
    3.3667   -3.2275   -2.4570 C   0  0  0  0  0  0  0  0  0  0  0  0
    3.4228   -3.8485   -1.1208 N   0  0  2  0  0  0  0  0  0  0  0  0
    2.1734   -3.5736   -0.3420 C   0  0  0  0  0  0  0  0  0  0  0  0
    2.3674   -2.7066    0.9716 C   0  0  0  0  0  0  0  0  0  0  0  0
    3.4809   -3.2185    1.9418 C   0  0  1  0  0  0  0  0  0  0  0  0
    4.0787   -2.0113    2.5812 C   0  0  0  0  0  0  0  0  0  0  0  0
    5.4578   -1.4190    2.5505 C   0  0  2  0  0  0  0  0  0  0  0  0
    5.3763   -0.6318    3.8770 C   0  0  0  0  0  0  0  0  0  0  0  0
    6.0764    0.3445    4.1389 O   0  0  0  0  0  0  0  0  0  0  0  0
    4.3924   -1.1454    4.6584 N   0  0  0  0  0  0  0  0  0  0  0  0
    3.9691   -0.7065    5.9870 C   0  0  0  0  0  0  0  0  0  0  0  0
    3.6218   -1.8966    3.7874 C   0  0  0  0  0  0  0  0  0  0  0  0
    2.9479   -2.9576    4.3209 O   0  0  0  0  0  0  0  0  0  0  0  0
    2.8091   -3.8988    3.2199 C   0  0  2  0  0  0  0  0  0  0  0  0
    3.4145   -5.2828    3.5418 C   0  0  1  0  0  0  0  0  0  0  0  0
    2.5473   -6.0205    4.3753 O   0  0  0  0  0  0  0  0  0  0  0  0
    3.7157   -6.0782    2.2833 C   0  0  0  0  0  0  0  0  0  0  0  0
    4.1922   -5.5075    1.1614 C   0  0  0  0  0  0  0  0  0  0  0  0
    4.4523   -4.0116    1.0884 C   0  0  2  0  0  0  0  0  0  0  0  0
    5.8659   -3.8350    1.1992 O   0  0  0  0  0  0  0  0  0  0  0  0
    5.9457   -3.6701   -0.2530 C   0  0  2  0  0  0  0  0  0  0  0  0
    6.8308   -2.4729   -0.5365 C   0  0  0  0  0  0  0  0  0  0  0  0
    7.4149   -2.3026   -1.5997 O   0  0  0  0  0  0  0  0  0  0  0  0
    7.0782   -1.3831    0.5469 C   0  0  0  0  0  0  0  0  0  0  0  0
    5.8683   -0.7081    1.2465 C   0  0  0  0  0  0  0  0  0  0  0  0
    4.5061   -3.3444   -0.2698 C   0  0  1  0  0  0  0  0  0  0  0  0
    3.2178   -2.1565   -2.4073 H   0  0  0  0  0  0  0  0  0  0  0  0
    2.5366   -3.6226   -3.0370 H   0  0  0  0  0  0  0  0  0  0  0  0
    4.2683   -3.4239   -3.0102 H   0  0  0  0  0  0  0  0  0  0  0  0
    1.4384   -3.1028   -0.9778 H   0  0  0  0  0  0  0  0  0  0  0  0
    1.7615   -4.5325   -0.0780 H   0  0  0  0  0  0  0  0  0  0  0  0
    2.5906   -1.6744    0.6664 H   0  0  0  0  0  0  0  0  0  0  0  0
    1.4637   -2.5513    1.5518 H   0  0  0  0  0  0  0  0  0  0  0  0
    6.2032   -2.1685    2.7971 H   0  0  0  0  0  0  0  0  0  0  0  0
    2.9582   -0.3004    5.9523 H   0  0  0  0  0  0  0  0  0  0  0  0
    4.6237    0.0810    6.3655 H   0  0  0  0  0  0  0  0  0  0  0  0
    4.0008   -1.5401    6.6859 H   0  0  0  0  0  0  0  0  0  0  0  0
    1.7429   -4.0847    2.9984 H   0  0  0  0  0  0  0  0  0  0  0  0
    4.3516   -5.1324    4.0644 H   0  0  0  0  0  0  0  0  0  0  0  0
    1.7824   -6.3127    3.8906 H   0  0  0  0  0  0  0  0  0  0  0  0
    3.5207   -7.1487    2.3510 H   0  0  0  0  0  0  0  0  0  0  0  0
    4.3744   -6.1200    0.2909 H   0  0  0  0  0  0  0  0  0  0  0  0
    6.2185   -4.5894   -0.7607 H   0  0  0  0  0  0  0  0  0  0  0  0
    7.7965   -1.7464    1.2736 H   0  0  0  0  0  0  0  0  0  0  0  0
    7.6199   -0.5644    0.0790 H   0  0  0  0  0  0  0  0  0  0  0  0
    6.1590    0.2874    1.5120 H   0  0  0  0  0  0  0  0  0  0  0  0
    5.0218   -0.5301    0.5851 H   0  0  0  0  0  0  0  0  0  0  0  0
    4.4278   -2.2721   -0.2414 H   0  0  0  0  0  0  0  0  0  0  0  0
    3.4605   -4.8363   -1.2747 H   0  0  0  0  0  0  0  0  0  0  0  0
  1  2  1  0
  1 27  1  0
  1 28  1  0
  1 29  1  0
  2 26  1  0
  2  3  1  0
  2 49  1  6
  3  4  1  0
  3 30  1  0
  3 31  1  0
  5  4  1  6
  4 32  1  0
  4 33  1  0
  5 14  1  0
  5 19  1  0
  5  6  1  0
  6  7  1  0
  6 12  2  0
  7  8  1  0
  7 25  1  0
  7 34  1  1
  8  9  2  0
  8 10  1  0
 10 12  1  0
 10 11  1  0
 11 35  1  0
 11 36  1  0
 11 37  1  0
 12 13  1  0
 13 14  1  0
 14 15  1  0
 14 38  1  6
 15 16  1  0
 15 17  1  0
 15 39  1  1
 16 40  1  0
 17 18  2  0
 17 41  1  0
 19 18  1  6
 18 42  1  0
 19 26  1  0
 19 20  1  0
 20 21  1  0
 21 22  1  0
 21 26  1  0
 21 43  1  6
 22 23  2  0
 22 24  1  0
 24 25  1  0
 24 44  1  0
 24 45  1  0
 25 46  1  0
 25 47  1  0
 26 48  1  1
M  CHG  1   2   1
M  END
>  <i_m_ct_stereo_status>  (119) 
1

>  <s_m_source_file>  (119) 
/var/tmp/pbs.5076255.sched01/tmp276pg2sv/48_ir7zhrj.sdf

>  <i_m_source_file_index>  (119) 
3

>  <i_lp_mmshare_version>  (119) 
48012

>  <i_f3d_flags>  (119) 
0

>  <s_epik_input>  (119) 
W0NIMl0xW0NIMl1OKFtDSDNdKVtDQEBIXShbQ0BAXTIzW0NAXTE0NSlbQ0BIXShPMylDKD1PKVtDSDJdW0NIMl1jNmM0YyhuKFtDSDNdKWM2W09IXSlPW0NAQEhdNVtDQEBIXShbT0hdKVtDSF09W0NIXTI=

>  <s_epik_cmdline>  (119) 
J2VwaWtfcHl0aG9uJywgJy1waHQnLCAnMi4wJywgJy1waCcsICc3LjAnLCAnLXRuJywgJzgnLCAnLW1hJywgJzIwMCcsICctaW1hZScsICc8aW5maWxlLm1hZT4nLCAnLW9tYWUnLCAnPG91dGZpbGUubWFlPic=

>  <r_lp_tautomer_probability>  (119) 
0.999999

>  <r_epik_Ionization_Penalty>  (119) 
1.91099

>  <r_epik_Ionization_Penalty_Charging>  (119) 
1.90557

>  <r_epik_Ionization_Penalty_Neutral>  (119) 
0.00541707

>  <r_epik_State_Penalty>  (119) 
2.0272

>  <r_epik_Charging_Adjusted_Penalty>  (119) 
3.93277

>  <i_epik_Tot_Q>  (119) 
1

>  <i_epik_Tot_abs_Q>  (119) 
1

>  <s_lp_Force_Field>  (119) 
OPLS3e

>  <r_lp_Energy>  (119) 
72.4822

>  <b_lp_Chiralities_Consistent>  (119) 
1

>  <s_lp_Variant>  (119) 
32:0-3

>  <s_i_glide_gridfile>  (119) 
pfpi4k_grid

>  <i_i_glide_lignum>  (119) 
3

>  <i_i_glide_rotatable_bonds>  (119) 
1

>  <r_i_docking_score>  (119) 
-3.68085

>  <r_i_glide_ligand_efficiency>  (119) 
-0.141571

>  <r_i_glide_ligand_efficiency_sa>  (119) 
-0.419404

>  <r_i_glide_ligand_efficiency_ln>  (119) 
-0.864436

>  <r_i_glide_gscore>  (119) 
-3.68085

>  <r_i_glide_lipo>  (119) 
-0.36839

>  <r_i_glide_hbond>  (119) 
-0.16

>  <r_i_glide_metal>  (119) 
-0

>  <r_i_glide_rewards>  (119) 
-1.10851

>  <r_i_glide_evdw>  (119) 
-16.7594

>  <r_i_glide_ecoul>  (119) 
-7.80075

>  <r_i_glide_erotb>  (119) 
0

>  <r_i_glide_esite>  (119) 
-0.0358658

>  <r_i_glide_emodel>  (119) 
-27.8461

>  <r_i_glide_energy>  (119) 
-24.5602

>  <r_i_glide_einternal>  (119) 
0.171813

>  <r_i_glide_intrahb_reward>  (119) 
-0

>  <i_i_glide_confnum>  (119) 
2

>  <i_i_glide_posenum>  (119) 
1

>  <r_i_glide_eff_state_penalty>  (119) 
0

>  <ligand_id>  (119) 
32

>  <original_smiles>  (119) 
CN1CCC23c4c5c(O)n(C)c4OC2C(O)C=CC32OC(C(=O)CC5)C12

>  <smiles>  (119) 
[H]OC1([H])C([H])=C([H])C23OC4([H])C(=O)C([H])([H])C([H])([H])C5([H])C(=O)N(C([H])([H])[H])C6=C5C2(C([H])([H])C([H])([H])[N+]([H])(C([H])([H])[H])C43[H])C1([H])O6

$$$$
32:2:2
     RDKit          3D

 49 54  0  0  1  0  0  0  0  0999 V2000
    3.3000   -3.3248    4.2437 C   0  0  0  0  0  0  0  0  0  0  0  0
    4.3362   -3.3130    3.1822 N   0  0  2  0  0  0  0  0  0  0  0  0
    4.8168   -1.9170    2.8674 C   0  0  0  0  0  0  0  0  0  0  0  0
    4.5142   -1.4328    1.3995 C   0  0  0  0  0  0  0  0  0  0  0  0
    4.9345   -2.4376    0.2539 C   0  0  1  0  0  0  0  0  0  0  0  0
    3.9491   -2.2790   -0.8538 C   0  0  0  0  0  0  0  0  0  0  0  0
    3.0461   -3.3201   -1.5106 C   0  0  2  0  0  0  0  0  0  0  0  0
    2.8818   -2.6302   -2.8773 C   0  0  0  0  0  0  0  0  0  0  0  0
    1.9277   -2.7580   -3.6229 O   0  0  0  0  0  0  0  0  0  0  0  0
    3.9239   -1.7733   -3.0607 N   0  0  0  0  0  0  0  0  0  0  0  0
    4.0990   -0.8844   -4.1942 C   0  0  0  0  0  0  0  0  0  0  0  0
    4.4441   -1.5446   -1.7889 C   0  0  0  0  0  0  0  0  0  0  0  0
    5.7946   -1.3727   -1.7393 O   0  0  0  0  0  0  0  0  0  0  0  0
    6.2326   -1.8983   -0.4616 C   0  0  2  0  0  0  0  0  0  0  0  0
    7.3609   -2.9399   -0.6220 C   0  0  1  0  0  0  0  0  0  0  0  0
    8.5868   -2.2524   -0.7801 O   0  0  0  0  0  0  0  0  0  0  0  0
    7.4665   -3.8176    0.6120 C   0  0  0  0  0  0  0  0  0  0  0  0
    6.3925   -4.2237    1.3102 C   0  0  0  0  0  0  0  0  0  0  0  0
    4.9841   -3.8307    0.8808 C   0  0  2  0  0  0  0  0  0  0  0  0
    4.4159   -4.9882    0.2518 O   0  0  0  0  0  0  0  0  0  0  0  0
    3.6732   -5.2981    1.4761 C   0  0  2  0  0  0  0  0  0  0  0  0
    2.2218   -5.6161    1.0771 C   0  0  0  0  0  0  0  0  0  0  0  0
    1.4306   -6.2260    1.7867 O   0  0  0  0  0  0  0  0  0  0  0  0
    1.6378   -5.1384   -0.2788 C   0  0  0  0  0  0  0  0  0  0  0  0
    1.7784   -3.6515   -0.7316 C   0  0  0  0  0  0  0  0  0  0  0  0
    3.8725   -3.8824    1.9085 C   0  0  1  0  0  0  0  0  0  0  0  0
    2.4339   -2.7303    3.9563 H   0  0  0  0  0  0  0  0  0  0  0  0
    3.6863   -2.8917    5.1657 H   0  0  0  0  0  0  0  0  0  0  0  0
    2.9644   -4.3314    4.4604 H   0  0  0  0  0  0  0  0  0  0  0  0
    4.3996   -1.1917    3.5589 H   0  0  0  0  0  0  0  0  0  0  0  0
    5.8824   -1.8725    3.0197 H   0  0  0  0  0  0  0  0  0  0  0  0
    3.4327   -1.2599    1.3091 H   0  0  0  0  0  0  0  0  0  0  0  0
    4.9402   -0.4490    1.2397 H   0  0  0  0  0  0  0  0  0  0  0  0
    3.5620   -4.2424   -1.7743 H   0  0  0  0  0  0  0  0  0  0  0  0
    4.1186    0.1654   -3.9138 H   0  0  0  0  0  0  0  0  0  0  0  0
    3.3629   -1.0334   -4.9824 H   0  0  0  0  0  0  0  0  0  0  0  0
    5.0123   -1.1172   -4.6935 H   0  0  0  0  0  0  0  0  0  0  0  0
    6.6560   -1.0749    0.1320 H   0  0  0  0  0  0  0  0  0  0  0  0
    7.1254   -3.5735   -1.4729 H   0  0  0  0  0  0  0  0  0  0  0  0
    9.1770   -2.7094   -1.3617 H   0  0  0  0  0  0  0  0  0  0  0  0
    8.4748   -4.0549    0.9279 H   0  0  0  0  0  0  0  0  0  0  0  0
    6.5205   -4.8334    2.1942 H   0  0  0  0  0  0  0  0  0  0  0  0
    4.1951   -6.0334    2.0988 H   0  0  0  0  0  0  0  0  0  0  0  0
    1.8343   -5.8088   -1.1017 H   0  0  0  0  0  0  0  0  0  0  0  0
    0.5908   -5.4256   -0.2652 H   0  0  0  0  0  0  0  0  0  0  0  0
    0.9287   -3.4326   -1.3689 H   0  0  0  0  0  0  0  0  0  0  0  0
    1.7467   -2.9497    0.1004 H   0  0  0  0  0  0  0  0  0  0  0  0
    2.9825   -3.3531    1.6145 H   0  0  0  0  0  0  0  0  0  0  0  0
    5.1360   -3.8342    3.5124 H   0  0  0  0  0  0  0  0  0  0  0  0
  1  2  1  0
  1 27  1  0
  1 28  1  0
  1 29  1  0
  2 26  1  0
  2  3  1  0
  2 49  1  1
  3  4  1  0
  3 30  1  0
  3 31  1  0
  5  4  1  1
  4 32  1  0
  4 33  1  0
  5 14  1  0
  5 19  1  0
  5  6  1  0
  6  7  1  0
  6 12  2  0
  7  8  1  0
  7 25  1  0
  7 34  1  6
  8  9  2  0
  8 10  1  0
 10 12  1  0
 10 11  1  0
 11 35  1  0
 11 36  1  0
 11 37  1  0
 12 13  1  0
 13 14  1  0
 14 15  1  0
 14 38  1  1
 15 16  1  0
 15 17  1  0
 15 39  1  6
 16 40  1  0
 17 18  2  0
 17 41  1  0
 19 18  1  1
 18 42  1  0
 19 26  1  0
 19 20  1  0
 20 21  1  0
 21 22  1  0
 21 26  1  0
 21 43  1  1
 22 23  2  0
 22 24  1  0
 24 25  1  0
 24 44  1  0
 24 45  1  0
 25 46  1  0
 25 47  1  0
 26 48  1  6
M  CHG  1   2   1
M  END
>  <i_m_ct_stereo_status>  (120) 
1

>  <s_m_source_file>  (120) 
/var/tmp/pbs.5076255.sched01/tmp276pg2sv/48_ir7zhrj.sdf

>  <i_m_source_file_index>  (120) 
3

>  <i_lp_mmshare_version>  (120) 
48012

>  <i_f3d_flags>  (120) 
0

>  <s_epik_input>  (120) 
W0NIMl0xW0NIMl1OKFtDSDNdKVtDQEBIXShbQ0BAXTIzW0NAXTE0NSlbQ0BIXShPMylDKD1PKVtDSDJdW0NIMl1jNmM0YyhuKFtDSDNdKWM2W09IXSlPW0NAQEhdNVtDQEBIXShbT0hdKVtDSF09W0NIXTI=

>  <s_epik_cmdline>  (120) 
J2VwaWtfcHl0aG9uJywgJy1waHQnLCAnMi4wJywgJy1waCcsICc3LjAnLCAnLXRuJywgJzgnLCAnLW1hJywgJzIwMCcsICctaW1hZScsICc8aW5maWxlLm1hZT4nLCAnLW9tYWUnLCAnPG91dGZpbGUubWFlPic=

>  <r_lp_tautomer_probability>  (120) 
0.999999

>  <r_epik_Ionization_Penalty>  (120) 
1.91099

>  <r_epik_Ionization_Penalty_Charging>  (120) 
1.90557

>  <r_epik_Ionization_Penalty_Neutral>  (120) 
0.00541707

>  <r_epik_State_Penalty>  (120) 
2.0272

>  <r_epik_Charging_Adjusted_Penalty>  (120) 
3.93277

>  <i_epik_Tot_Q>  (120) 
1

>  <i_epik_Tot_abs_Q>  (120) 
1

>  <s_lp_Force_Field>  (120) 
OPLS3e

>  <r_lp_Energy>  (120) 
72.4822

>  <b_lp_Chiralities_Consistent>  (120) 
1

>  <s_lp_Variant>  (120) 
32:0-3

>  <s_i_glide_gridfile>  (120) 
pfpi4k_grid

>  <i_i_glide_lignum>  (120) 
3

>  <i_i_glide_rotatable_bonds>  (120) 
1

>  <r_i_docking_score>  (120) 
-3.65036

>  <r_i_glide_ligand_efficiency>  (120) 
-0.140399

>  <r_i_glide_ligand_efficiency_sa>  (120) 
-0.41593

>  <r_i_glide_ligand_efficiency_ln>  (120) 
-0.857276

>  <r_i_glide_gscore>  (120) 
-3.65036

>  <r_i_glide_lipo>  (120) 
-0.636506

>  <r_i_glide_hbond>  (120) 
-0.0762644

>  <r_i_glide_metal>  (120) 
-0

>  <r_i_glide_rewards>  (120) 
-1.04846

>  <r_i_glide_evdw>  (120) 
-25.1811

>  <r_i_glide_ecoul>  (120) 
-3.88416

>  <r_i_glide_erotb>  (120) 
0

>  <r_i_glide_esite>  (120) 
-0.0474597

>  <r_i_glide_emodel>  (120) 
-32.3027

>  <r_i_glide_energy>  (120) 
-29.0652

>  <r_i_glide_einternal>  (120) 
0.506785

>  <r_i_glide_intrahb_reward>  (120) 
-0

>  <i_i_glide_confnum>  (120) 
2

>  <i_i_glide_posenum>  (120) 
33

>  <r_i_glide_eff_state_penalty>  (120) 
0

>  <ligand_id>  (120) 
32

>  <original_smiles>  (120) 
CN1CCC23c4c5c(O)n(C)c4OC2C(O)C=CC32OC(C(=O)CC5)C12

>  <smiles>  (120) 
[H]OC1([H])C([H])=C([H])C23OC4([H])C(=O)C([H])([H])C([H])([H])C5([H])C(=O)N(C([H])([H])[H])C6=C5C2(C([H])([H])C([H])([H])[N+]([H])(C([H])([H])[H])C43[H])C1([H])O6

$$$$
34:0:0
     RDKit          3D

 73 80  0  0  1  0  0  0  0  0999 V2000
    5.3496   -4.0764   -1.7721 C   0  0  0  0  0  0  0  0  0  0  0  0
    5.4477   -3.8467   -0.4582 C   0  0  0  0  0  0  0  0  0  0  0  0
    6.6919   -3.4766    0.3573 C   0  0  1  0  0  0  0  0  0  0  0  0
    7.7010   -2.8578   -0.4297 O   0  0  0  0  0  0  0  0  0  0  0  0
    6.2024   -2.6825    1.4371 O   0  0  0  0  0  0  0  0  0  0  0  0
    4.9362   -2.2633    0.9306 C   0  0  2  0  0  0  0  0  0  0  0  0
    5.3759   -0.9729    0.0827 C   0  0  1  0  0  0  0  0  0  0  0  0
    4.9237   -0.7188   -1.3873 C   0  0  0  0  0  0  0  0  0  0  0  0
    4.9558    0.1705    0.9722 C   0  0  0  0  0  0  0  0  0  0  0  0
    3.9175   -0.3982    1.8531 C   0  0  1  0  0  0  0  0  0  0  0  0
    2.7089   -0.7371    1.2796 O   0  0  0  0  0  0  0  0  0  0  0  0
    3.5927   -1.8649    1.5607 C   0  0  2  0  0  0  0  0  0  0  0  0
    3.0528   -2.8603    0.4725 C   0  0  1  0  0  0  0  0  0  0  0  0
    2.7439   -2.4154   -0.8177 O   0  0  0  0  0  0  0  0  0  0  0  0
    4.3421   -3.6550    0.5373 C   0  0  1  0  0  0  0  0  0  0  0  0
    4.1842   -4.8793    1.5588 C   0  0  2  0  0  0  0  0  0  0  0  0
    5.3386   -5.2080    2.4688 C   0  0  0  0  0  0  0  0  0  0  0  0
    5.4379   -6.5108    2.7018 C   0  0  0  0  0  0  0  0  0  0  0  0
    4.3601   -7.3170    2.0254 C   0  0  2  0  0  0  0  0  0  0  0  0
    3.8099   -6.2793    0.9804 C   0  0  2  0  0  0  0  0  0  0  0  0
    4.3688   -6.5747   -0.2819 O   0  0  0  0  0  0  0  0  0  0  0  0
    2.3045   -6.1809    0.8999 C   0  0  0  0  0  0  0  0  0  0  0  0
    2.0526   -5.6883    2.3096 C   0  0  2  0  0  0  0  0  0  0  0  0
    3.0495   -4.6551    2.4168 O   0  0  0  0  0  0  0  0  0  0  0  0
    2.2299   -6.7690    3.4453 C   0  0  1  0  0  0  0  0  0  0  0  0
    2.6916   -5.9587    4.7005 C   0  0  0  0  0  0  0  0  0  0  0  0
    0.8504   -7.3741    3.9000 C   0  0  1  0  0  0  0  0  0  0  0  0
   -0.1276   -6.3786    4.1670 O   0  0  0  0  0  0  0  0  0  0  0  0
    0.2401   -8.4956    3.0379 C   0  0  1  0  0  0  0  0  0  0  0  0
   -1.0593   -9.0359    3.6553 C   0  0  0  0  0  0  0  0  0  0  0  0
   -0.1209   -8.0238    1.7536 O   0  0  0  0  0  0  0  0  0  0  0  0
    1.2782   -9.6315    2.9603 C   0  0  0  0  0  0  0  0  0  0  0  0
    2.6458   -9.2111    2.3950 C   0  0  1  0  0  0  0  0  0  0  0  0
    2.6247   -9.2722    0.9928 O   0  0  0  0  0  0  0  0  0  0  0  0
    3.2967   -7.9151    3.0357 C   0  0  1  0  0  0  0  0  0  0  0  0
    4.0105   -8.4779    4.3178 C   0  0  0  0  0  0  0  0  0  0  0  0
    5.0391   -9.4192    4.0530 O   0  0  0  0  0  0  0  0  0  0  0  0
    4.4005   -4.2575   -2.2533 H   0  0  0  0  0  0  0  0  0  0  0  0
    6.2241   -4.1293   -2.3982 H   0  0  0  0  0  0  0  0  0  0  0  0
    7.1163   -4.3999    0.7430 H   0  0  0  0  0  0  0  0  0  0  0  0
    8.4797   -2.7769    0.1018 H   0  0  0  0  0  0  0  0  0  0  0  0
    6.4575   -0.8648    0.0466 H   0  0  0  0  0  0  0  0  0  0  0  0
    3.9041   -0.3438   -1.4509 H   0  0  0  0  0  0  0  0  0  0  0  0
    5.0112   -1.5877   -2.0221 H   0  0  0  0  0  0  0  0  0  0  0  0
    5.5262    0.0424   -1.8792 H   0  0  0  0  0  0  0  0  0  0  0  0
    5.7979    0.5047    1.5837 H   0  0  0  0  0  0  0  0  0  0  0  0
    4.4998    1.0043    0.4744 H   0  0  0  0  0  0  0  0  0  0  0  0
    3.9136   -0.0699    2.8911 H   0  0  0  0  0  0  0  0  0  0  0  0
    2.1379   -3.3391    0.8081 H   0  0  0  0  0  0  0  0  0  0  0  0
    2.0430   -1.7587   -0.7199 H   0  0  0  0  0  0  0  0  0  0  0  0
    5.9812   -4.4618    2.9069 H   0  0  0  0  0  0  0  0  0  0  0  0
    6.1751   -6.9552    3.3468 H   0  0  0  0  0  0  0  0  0  0  0  0
    4.8802   -8.1276    1.5170 H   0  0  0  0  0  0  0  0  0  0  0  0
    3.8667   -6.1315   -0.9574 H   0  0  0  0  0  0  0  0  0  0  0  0
    2.0002   -5.4401    0.1625 H   0  0  0  0  0  0  0  0  0  0  0  0
    1.7732   -7.0797    0.6344 H   0  0  0  0  0  0  0  0  0  0  0  0
    1.0794   -5.2029    2.3692 H   0  0  0  0  0  0  0  0  0  0  0  0
    2.6641   -6.5537    5.6142 H   0  0  0  0  0  0  0  0  0  0  0  0
    2.0555   -5.0884    4.8770 H   0  0  0  0  0  0  0  0  0  0  0  0
    3.7075   -5.5780    4.6045 H   0  0  0  0  0  0  0  0  0  0  0  0
    1.0171   -7.8431    4.8705 H   0  0  0  0  0  0  0  0  0  0  0  0
    0.1602   -5.8856    4.9207 H   0  0  0  0  0  0  0  0  0  0  0  0
   -0.8851   -9.3535    4.6827 H   0  0  0  0  0  0  0  0  0  0  0  0
   -1.4135   -9.8987    3.0966 H   0  0  0  0  0  0  0  0  0  0  0  0
   -1.8696   -8.3007    3.6591 H   0  0  0  0  0  0  0  0  0  0  0  0
   -0.1750   -8.7683    1.1599 H   0  0  0  0  0  0  0  0  0  0  0  0
    1.4410  -10.0009    3.9764 H   0  0  0  0  0  0  0  0  0  0  0  0
    0.8879  -10.4940    2.4161 H   0  0  0  0  0  0  0  0  0  0  0  0
    3.2907  -10.0693    2.5765 H   0  0  0  0  0  0  0  0  0  0  0  0
    2.5410  -10.1805    0.7370 H   0  0  0  0  0  0  0  0  0  0  0  0
    4.4967   -7.7007    4.9024 H   0  0  0  0  0  0  0  0  0  0  0  0
    3.2771   -8.9409    4.9800 H   0  0  0  0  0  0  0  0  0  0  0  0
    4.6520  -10.1969    3.6724 H   0  0  0  0  0  0  0  0  0  0  0  0
  1  2  2  0
  1 38  1  0
  1 39  1  0
 15  2  1  6
  2  3  1  0
  3  4  1  0
  3  5  1  0
  3 40  1  1
  4 41  1  0
  6  5  1  1
  6 12  1  0
  6 15  1  0
  6  7  1  0
  7  8  1  0
  7  9  1  0
  7 42  1  6
  8 43  1  0
  8 44  1  0
  8 45  1  0
  9 10  1  0
  9 46  1  0
  9 47  1  0
 10 12  1  0
 10 11  1  0
 10 48  1  1
 12 11  1  6
 12 13  1  0
 13 14  1  0
 13 15  1  0
 13 49  1  1
 14 50  1  0
 15 16  1  0
 16 20  1  0
 16 24  1  1
 16 17  1  0
 17 18  2  0
 17 51  1  0
 18 19  1  0
 18 52  1  0
 19 35  1  0
 19 20  1  0
 19 53  1  6
 20 21  1  6
 20 22  1  0
 21 54  1  0
 22 23  1  0
 22 55  1  0
 22 56  1  0
 23 24  1  0
 23 25  1  0
 23 57  1  6
 25 35  1  0
 25 26  1  1
 25 27  1  0
 26 58  1  0
 26 59  1  0
 26 60  1  0
 27 28  1  0
 27 29  1  0
 27 61  1  1
 28 62  1  0
 29 30  1  0
 29 31  1  6
 29 32  1  0
 30 63  1  0
 30 64  1  0
 30 65  1  0
 31 66  1  0
 32 33  1  0
 32 67  1  0
 32 68  1  0
 33 34  1  0
 33 35  1  0
 33 69  1  1
 34 70  1  0
 35 36  1  1
 36 37  1  0
 36 71  1  0
 36 72  1  0
 37 73  1  0
M  END
>  <i_m_ct_stereo_status>  (121) 
1

>  <s_m_source_file>  (121) 
/var/tmp/pbs.5076255.sched01/tmp276pg2sv/48_ir7zhrj.sdf

>  <i_m_source_file_index>  (121) 
6

>  <i_lp_mmshare_version>  (121) 
48012

>  <i_f3d_flags>  (121) 
0

>  <s_epik_input>  (121) 
W0NIM11bQ0BIXTFbQ0gyXVtDQEBIXShPMilbQ0BAXTIoW0NAQF0xMzQpW0NAQEhdKFtPSF0pW0NAXTQoQyg9W0NIMl0pW0NASF0oTzMpW09IXSlbQ0BAXTU2W0NAQF03KFtPSF0pW0NAQEhdKFtDSF09W0NIXTUpW0NAQF04KFtDSDJdW09IXSlbQ0BAXShbQ0gzXSkoW0NAQEhdKE82KVtDSDJdNylbQ0BASF0oW09IXSlbQ0BAXShbQ0gzXSkoW09IXSlbQ0gyXVtDQEhdOFtPSF0=

>  <s_epik_cmdline>  (121) 
J2VwaWtfcHl0aG9uJywgJy1waHQnLCAnMi4wJywgJy1waCcsICc3LjAnLCAnLXRuJywgJzgnLCAnLW1hJywgJzIwMCcsICctaW1hZScsICc8aW5maWxlLm1hZT4nLCAnLW9tYWUnLCAnPG91dGZpbGUubWFlPic=

>  <r_lp_tautomer_probability>  (121) 
1

>  <r_epik_Ionization_Penalty>  (121) 
8.76477e-06

>  <r_epik_Ionization_Penalty_Charging>  (121) 
0

>  <r_epik_Ionization_Penalty_Neutral>  (121) 
8.76477e-06

>  <r_epik_State_Penalty>  (121) 
-0

>  <r_epik_Charging_Adjusted_Penalty>  (121) 
0

>  <i_epik_Tot_Q>  (121) 
0

>  <i_epik_Tot_abs_Q>  (121) 
0

>  <s_epik_Chemistry_Notes>  (121) 
This compound contains an acetal/aminal-like group ( X-CH(R)-Y where X, Y are N, S, or O) that may be acid/base labile, releasing an aldehyde.

>  <s_lp_Force_Field>  (121) 
OPLS3e

>  <r_lp_Energy>  (121) 
159.765

>  <b_lp_Chiralities_Consistent>  (121) 
1

>  <s_lp_Variant>  (121) 
34:0-1

>  <s_i_glide_gridfile>  (121) 
pfpi4k_grid

>  <i_i_glide_lignum>  (121) 
6

>  <i_i_glide_rotatable_bonds>  (121) 
9

>  <r_i_docking_score>  (121) 
-3.35348

>  <r_i_glide_ligand_efficiency>  (121) 
-0.0906346

>  <r_i_glide_ligand_efficiency_sa>  (121) 
-0.302015

>  <r_i_glide_ligand_efficiency_ln>  (121) 
-0.727291

>  <r_i_glide_gscore>  (121) 
-3.35348

>  <r_i_glide_lipo>  (121) 
-0.445742

>  <r_i_glide_hbond>  (121) 
0

>  <r_i_glide_metal>  (121) 
-0

>  <r_i_glide_rewards>  (121) 
-0.151938

>  <r_i_glide_evdw>  (121) 
-15.3781

>  <r_i_glide_ecoul>  (121) 
-14.2572

>  <r_i_glide_erotb>  (121) 
0.15168

>  <r_i_glide_esite>  (121) 
0

>  <r_i_glide_emodel>  (121) 
-34.2222

>  <r_i_glide_energy>  (121) 
-29.6353

>  <r_i_glide_einternal>  (121) 
4.68023

>  <r_i_glide_intrahb_reward>  (121) 
-0

>  <i_i_glide_confnum>  (121) 
3

>  <i_i_glide_posenum>  (121) 
3

>  <r_i_glide_eff_state_penalty>  (121) 
0

>  <ligand_id>  (121) 
34

>  <original_smiles>  (121) 
C=C1C(O)OC23C(C)CC4OC42C(O)C13C12C=CC3C1(O)CC(O2)C1(C)C(O)C(C)(O)CC(O)C31CO

>  <smiles>  (121) 
[H]OC1([H])OC23C([H])(C([H])([H])[H])C([H])([H])C4([H])OC42C([H])(O[H])C3(C23OC4([H])C([H])([H])C2(O[H])C([H])(C([H])=C3[H])C2(C([H])([H])O[H])C([H])(O[H])C([H])([H])C(O[H])(C([H])([H])[H])C([H])(O[H])C42C([H])([H])[H])C1=C([H])[H]

$$$$
34:0:1
     RDKit          3D

 73 80  0  0  1  0  0  0  0  0999 V2000
    4.6401   -1.3887    2.2201 C   0  0  0  0  0  0  0  0  0  0  0  0
    4.1019   -1.7412    3.3989 C   0  0  0  0  0  0  0  0  0  0  0  0
    4.6435   -1.4315    4.7962 C   0  0  1  0  0  0  0  0  0  0  0  0
    5.4099   -0.2397    4.8366 O   0  0  0  0  0  0  0  0  0  0  0  0
    3.4954   -1.4417    5.6421 O   0  0  0  0  0  0  0  0  0  0  0  0
    2.4282   -1.2153    4.7215 C   0  0  2  0  0  0  0  0  0  0  0  0
    2.4125    0.3890    4.6376 C   0  0  1  0  0  0  0  0  0  0  0  0
    2.4195    1.1620    3.2907 C   0  0  0  0  0  0  0  0  0  0  0  0
    1.2145    0.8109    5.4738 C   0  0  0  0  0  0  0  0  0  0  0  0
    0.3703   -0.4107    5.5058 C   0  0  1  0  0  0  0  0  0  0  0  0
   -0.2509   -0.8018    4.3409 O   0  0  0  0  0  0  0  0  0  0  0  0
    0.9366   -1.5831    4.6812 C   0  0  2  0  0  0  0  0  0  0  0  0
    1.3322   -2.0432    3.2324 C   0  0  1  0  0  0  0  0  0  0  0  0
    1.2267   -1.1163    2.1701 O   0  0  0  0  0  0  0  0  0  0  0  0
    2.7562   -2.3608    3.6927 C   0  0  1  0  0  0  0  0  0  0  0  0
    2.8727   -3.9188    4.1092 C   0  0  2  0  0  0  0  0  0  0  0  0
    3.8500   -4.3215    5.1905 C   0  0  0  0  0  0  0  0  0  0  0  0
    4.4079   -5.5090    4.9611 C   0  0  0  0  0  0  0  0  0  0  0  0
    3.8897   -6.1717    3.7110 C   0  0  2  0  0  0  0  0  0  0  0  0
    3.2042   -4.9548    2.9824 C   0  0  2  0  0  0  0  0  0  0  0  0
    4.0575   -4.4630    1.9658 O   0  0  0  0  0  0  0  0  0  0  0  0
    1.8365   -5.2629    2.4245 C   0  0  0  0  0  0  0  0  0  0  0  0
    1.1205   -5.5190    3.7378 C   0  0  2  0  0  0  0  0  0  0  0  0
    1.5776   -4.3980    4.5181 O   0  0  0  0  0  0  0  0  0  0  0  0
    1.4631   -6.9017    4.4146 C   0  0  1  0  0  0  0  0  0  0  0  0
    1.3224   -6.6578    5.9550 C   0  0  0  0  0  0  0  0  0  0  0  0
    0.3560   -7.9922    4.1236 C   0  0  1  0  0  0  0  0  0  0  0  0
   -0.9649   -7.5335    4.3798 O   0  0  0  0  0  0  0  0  0  0  0  0
    0.4048   -8.7330    2.7681 C   0  0  1  0  0  0  0  0  0  0  0  0
   -0.6652   -9.8390    2.6485 C   0  0  0  0  0  0  0  0  0  0  0  0
    0.1409   -7.8621    1.6815 O   0  0  0  0  0  0  0  0  0  0  0  0
    1.7948   -9.3789    2.6524 C   0  0  0  0  0  0  0  0  0  0  0  0
    2.9698   -8.3924    2.7571 C   0  0  1  0  0  0  0  0  0  0  0  0
    3.1999   -7.8213    1.4867 O   0  0  0  0  0  0  0  0  0  0  0  0
    2.9450   -7.4139    4.0104 C   0  0  1  0  0  0  0  0  0  0  0  0
    3.5404   -8.2938    5.1741 C   0  0  0  0  0  0  0  0  0  0  0  0
    4.8731   -8.7221    4.9621 O   0  0  0  0  0  0  0  0  0  0  0  0
    4.1438   -1.5920    1.2861 H   0  0  0  0  0  0  0  0  0  0  0  0
    5.6023   -0.9027    2.1707 H   0  0  0  0  0  0  0  0  0  0  0  0
    5.3265   -2.2215    5.1022 H   0  0  0  0  0  0  0  0  0  0  0  0
    4.8794    0.4596    4.4877 H   0  0  0  0  0  0  0  0  0  0  0  0
    3.2552    0.8131    5.1762 H   0  0  0  0  0  0  0  0  0  0  0  0
    1.4392    1.1982    2.8140 H   0  0  0  0  0  0  0  0  0  0  0  0
    3.1388    0.7773    2.5765 H   0  0  0  0  0  0  0  0  0  0  0  0
    2.6775    2.2066    3.4634 H   0  0  0  0  0  0  0  0  0  0  0  0
    1.5170    1.0531    6.4912 H   0  0  0  0  0  0  0  0  0  0  0  0
    0.6355    1.6397    5.0753 H   0  0  0  0  0  0  0  0  0  0  0  0
   -0.1342   -0.6580    6.4398 H   0  0  0  0  0  0  0  0  0  0  0  0
    0.6783   -2.8563    2.9537 H   0  0  0  0  0  0  0  0  0  0  0  0
    1.4048   -1.5430    1.3462 H   0  0  0  0  0  0  0  0  0  0  0  0
    4.0450   -3.7335    6.0720 H   0  0  0  0  0  0  0  0  0  0  0  0
    5.1152   -5.9872    5.6172 H   0  0  0  0  0  0  0  0  0  0  0  0
    4.7670   -6.5060    3.1559 H   0  0  0  0  0  0  0  0  0  0  0  0
    3.6381   -3.7252    1.5497 H   0  0  0  0  0  0  0  0  0  0  0  0
    1.4466   -4.4077    1.8935 H   0  0  0  0  0  0  0  0  0  0  0  0
    1.7631   -6.0552    1.7014 H   0  0  0  0  0  0  0  0  0  0  0  0
    0.0459   -5.3980    3.6293 H   0  0  0  0  0  0  0  0  0  0  0  0
    1.3400   -7.5860    6.5294 H   0  0  0  0  0  0  0  0  0  0  0  0
    0.3768   -6.1709    6.2005 H   0  0  0  0  0  0  0  0  0  0  0  0
    2.1099   -6.0246    6.3600 H   0  0  0  0  0  0  0  0  0  0  0  0
    0.4931   -8.7802    4.8662 H   0  0  0  0  0  0  0  0  0  0  0  0
   -1.5190   -8.3004    4.4523 H   0  0  0  0  0  0  0  0  0  0  0  0
   -0.5769  -10.5682    3.4539 H   0  0  0  0  0  0  0  0  0  0  0  0
   -0.5670  -10.3948    1.7133 H   0  0  0  0  0  0  0  0  0  0  0  0
   -1.6809   -9.4402    2.6678 H   0  0  0  0  0  0  0  0  0  0  0  0
    0.1598   -8.3975    0.8972 H   0  0  0  0  0  0  0  0  0  0  0  0
    1.8961  -10.0984    3.4682 H   0  0  0  0  0  0  0  0  0  0  0  0
    1.8816   -9.9762    1.7434 H   0  0  0  0  0  0  0  0  0  0  0  0
    3.8589   -9.0170    2.8185 H   0  0  0  0  0  0  0  0  0  0  0  0
    3.3843   -8.5180    0.8741 H   0  0  0  0  0  0  0  0  0  0  0  0
    3.5661   -7.7809    6.1325 H   0  0  0  0  0  0  0  0  0  0  0  0
    2.9267   -9.1819    5.3270 H   0  0  0  0  0  0  0  0  0  0  0  0
    5.0976   -9.3416    5.6423 H   0  0  0  0  0  0  0  0  0  0  0  0
  1  2  2  0
  1 38  1  0
  1 39  1  0
 15  2  1  6
  2  3  1  0
  3  4  1  0
  3  5  1  0
  3 40  1  1
  4 41  1  0
  6  5  1  1
  6 12  1  0
  6 15  1  0
  6  7  1  0
  7  8  1  0
  7  9  1  0
  7 42  1  1
  8 43  1  0
  8 44  1  0
  8 45  1  0
  9 10  1  0
  9 46  1  0
  9 47  1  0
 10 12  1  0
 10 11  1  0
 10 48  1  1
 12 11  1  6
 12 13  1  0
 13 14  1  0
 13 15  1  0
 13 49  1  6
 14 50  1  0
 15 16  1  0
 16 20  1  0
 16 24  1  1
 16 17  1  0
 17 18  2  0
 17 51  1  0
 18 19  1  0
 18 52  1  0
 19 35  1  0
 19 20  1  0
 19 53  1  6
 20 21  1  6
 20 22  1  0
 21 54  1  0
 22 23  1  0
 22 55  1  0
 22 56  1  0
 23 24  1  0
 23 25  1  0
 23 57  1  6
 25 35  1  0
 25 26  1  1
 25 27  1  0
 26 58  1  0
 26 59  1  0
 26 60  1  0
 27 28  1  0
 27 29  1  0
 27 61  1  1
 28 62  1  0
 29 30  1  0
 29 31  1  6
 29 32  1  0
 30 63  1  0
 30 64  1  0
 30 65  1  0
 31 66  1  0
 32 33  1  0
 32 67  1  0
 32 68  1  0
 33 34  1  0
 33 35  1  0
 33 69  1  1
 34 70  1  0
 35 36  1  1
 36 37  1  0
 36 71  1  0
 36 72  1  0
 37 73  1  0
M  END
>  <i_m_ct_stereo_status>  (122) 
1

>  <s_m_source_file>  (122) 
/var/tmp/pbs.5076255.sched01/tmp276pg2sv/48_ir7zhrj.sdf

>  <i_m_source_file_index>  (122) 
6

>  <i_lp_mmshare_version>  (122) 
48012

>  <i_f3d_flags>  (122) 
0

>  <s_epik_input>  (122) 
W0NIM11bQ0BIXTFbQ0gyXVtDQEBIXShPMilbQ0BAXTIoW0NAQF0xMzQpW0NAQEhdKFtPSF0pW0NAXTQoQyg9W0NIMl0pW0NASF0oTzMpW09IXSlbQ0BAXTU2W0NAQF03KFtPSF0pW0NAQEhdKFtDSF09W0NIXTUpW0NAQF04KFtDSDJdW09IXSlbQ0BAXShbQ0gzXSkoW0NAQEhdKE82KVtDSDJdNylbQ0BASF0oW09IXSlbQ0BAXShbQ0gzXSkoW09IXSlbQ0gyXVtDQEhdOFtPSF0=

>  <s_epik_cmdline>  (122) 
J2VwaWtfcHl0aG9uJywgJy1waHQnLCAnMi4wJywgJy1waCcsICc3LjAnLCAnLXRuJywgJzgnLCAnLW1hJywgJzIwMCcsICctaW1hZScsICc8aW5maWxlLm1hZT4nLCAnLW9tYWUnLCAnPG91dGZpbGUubWFlPic=

>  <r_lp_tautomer_probability>  (122) 
1

>  <r_epik_Ionization_Penalty>  (122) 
8.76477e-06

>  <r_epik_Ionization_Penalty_Charging>  (122) 
0

>  <r_epik_Ionization_Penalty_Neutral>  (122) 
8.76477e-06

>  <r_epik_State_Penalty>  (122) 
-0

>  <r_epik_Charging_Adjusted_Penalty>  (122) 
0

>  <i_epik_Tot_Q>  (122) 
0

>  <i_epik_Tot_abs_Q>  (122) 
0

>  <s_epik_Chemistry_Notes>  (122) 
This compound contains an acetal/aminal-like group ( X-CH(R)-Y where X, Y are N, S, or O) that may be acid/base labile, releasing an aldehyde.

>  <s_lp_Force_Field>  (122) 
OPLS3e

>  <r_lp_Energy>  (122) 
159.765

>  <b_lp_Chiralities_Consistent>  (122) 
1

>  <s_lp_Variant>  (122) 
34:0-1

>  <s_i_glide_gridfile>  (122) 
pfpi4k_grid

>  <i_i_glide_lignum>  (122) 
6

>  <i_i_glide_rotatable_bonds>  (122) 
9

>  <r_i_docking_score>  (122) 
-2.13385

>  <r_i_glide_ligand_efficiency>  (122) 
-0.0576716

>  <r_i_glide_ligand_efficiency_sa>  (122) 
-0.192174

>  <r_i_glide_ligand_efficiency_ln>  (122) 
-0.462782

>  <r_i_glide_gscore>  (122) 
-2.13385

>  <r_i_glide_lipo>  (122) 
-0.134893

>  <r_i_glide_hbond>  (122) 
0

>  <r_i_glide_metal>  (122) 
-0

>  <r_i_glide_rewards>  (122) 
-0.0318068

>  <r_i_glide_evdw>  (122) 
-22.0376

>  <r_i_glide_ecoul>  (122) 
-6.77964

>  <r_i_glide_erotb>  (122) 
0.15168

>  <r_i_glide_esite>  (122) 
0

>  <r_i_glide_emodel>  (122) 
-32.4728

>  <r_i_glide_energy>  (122) 
-28.8173

>  <r_i_glide_einternal>  (122) 
1.40825

>  <r_i_glide_intrahb_reward>  (122) 
-0

>  <i_i_glide_confnum>  (122) 
1

>  <i_i_glide_posenum>  (122) 
18

>  <r_i_glide_eff_state_penalty>  (122) 
0

>  <ligand_id>  (122) 
34

>  <original_smiles>  (122) 
C=C1C(O)OC23C(C)CC4OC42C(O)C13C12C=CC3C1(O)CC(O2)C1(C)C(O)C(C)(O)CC(O)C31CO

>  <smiles>  (122) 
[H]OC1([H])OC23C([H])(C([H])([H])[H])C([H])([H])C4([H])OC42C([H])(O[H])C3(C23OC4([H])C([H])([H])C2(O[H])C([H])(C([H])=C3[H])C2(C([H])([H])O[H])C([H])(O[H])C([H])([H])C(O[H])(C([H])([H])[H])C([H])(O[H])C42C([H])([H])[H])C1=C([H])[H]

$$$$
34:0:2
     RDKit          3D

 73 80  0  0  1  0  0  0  0  0999 V2000
    4.8514   -1.3388    2.4543 C   0  0  0  0  0  0  0  0  0  0  0  0
    4.2247   -1.6745    3.5930 C   0  0  0  0  0  0  0  0  0  0  0  0
    4.6954   -1.4011    5.0249 C   0  0  1  0  0  0  0  0  0  0  0  0
    5.5008   -0.2395    5.1313 O   0  0  0  0  0  0  0  0  0  0  0  0
    3.4979   -1.3750    5.7979 O   0  0  0  0  0  0  0  0  0  0  0  0
    2.5001   -1.0909    4.8172 C   0  0  2  0  0  0  0  0  0  0  0  0
    2.5574    0.5140    4.7532 C   0  0  1  0  0  0  0  0  0  0  0  0
    2.6769    1.2957    3.4181 C   0  0  0  0  0  0  0  0  0  0  0  0
    1.3306    0.9823    5.5229 C   0  0  0  0  0  0  0  0  0  0  0  0
    0.4324   -0.1989    5.4902 C   0  0  1  0  0  0  0  0  0  0  0  0
   -0.1307   -0.5479    4.2842 O   0  0  0  0  0  0  0  0  0  0  0  0
    0.9978   -1.3857    4.6898 C   0  0  2  0  0  0  0  0  0  0  0  0
    1.4485   -1.8539    3.2627 C   0  0  1  0  0  0  0  0  0  0  0  0
    1.4310   -0.9260    2.1946 O   0  0  0  0  0  0  0  0  0  0  0  0
    2.8351   -2.2384    3.7932 C   0  0  1  0  0  0  0  0  0  0  0  0
    2.8622   -3.8047    4.1988 C   0  0  2  0  0  0  0  0  0  0  0  0
    3.7986   -4.2717    5.2899 C   0  0  0  0  0  0  0  0  0  0  0  0
    4.2958   -5.4886    5.0578 C   0  0  0  0  0  0  0  0  0  0  0  0
    3.7570   -6.1098    3.7956 C   0  0  2  0  0  0  0  0  0  0  0  0
    3.1416   -4.8532    3.0715 C   0  0  2  0  0  0  0  0  0  0  0  0
    4.0070   -4.4062    2.0500 O   0  0  0  0  0  0  0  0  0  0  0  0
    1.7698   -5.0841    2.4957 C   0  0  0  0  0  0  0  0  0  0  0  0
    1.0271   -5.2984    3.8009 C   0  0  2  0  0  0  0  0  0  0  0  0
    1.5389   -4.2104    4.5903 O   0  0  0  0  0  0  0  0  0  0  0  0
    1.2829   -6.7058    4.4683 C   0  0  1  0  0  0  0  0  0  0  0  0
    1.1376   -6.4661    6.0085 C   0  0  0  0  0  0  0  0  0  0  0  0
    0.1181   -7.7267    4.1519 C   0  0  1  0  0  0  0  0  0  0  0  0
   -1.1749   -7.1881    4.3846 O   0  0  0  0  0  0  0  0  0  0  0  0
    0.1392   -8.4623    2.7910 C   0  0  1  0  0  0  0  0  0  0  0  0
   -0.9956   -9.4981    2.6421 C   0  0  0  0  0  0  0  0  0  0  0  0
   -0.0676   -7.5769    1.7083 O   0  0  0  0  0  0  0  0  0  0  0  0
    1.4919   -9.1814    2.6833 C   0  0  0  0  0  0  0  0  0  0  0  0
    2.7194   -8.2628    2.8111 C   0  0  1  0  0  0  0  0  0  0  0  0
    3.0107   -7.6909    1.5503 O   0  0  0  0  0  0  0  0  0  0  0  0
    2.7379   -7.2978    4.0753 C   0  0  1  0  0  0  0  0  0  0  0  0
    3.2668   -8.2212    5.2360 C   0  0  0  0  0  0  0  0  0  0  0  0
    4.5735   -8.7252    5.0302 O   0  0  0  0  0  0  0  0  0  0  0  0
    4.4010   -1.5247    1.4943 H   0  0  0  0  0  0  0  0  0  0  0  0
    5.8340   -0.8934    2.4668 H   0  0  0  0  0  0  0  0  0  0  0  0
    5.3326   -2.2179    5.3586 H   0  0  0  0  0  0  0  0  0  0  0  0
    5.0193    0.4856    4.7669 H   0  0  0  0  0  0  0  0  0  0  0  0
    3.3828    0.8970    5.3473 H   0  0  0  0  0  0  0  0  0  0  0  0
    1.7288    1.3764    2.8840 H   0  0  0  0  0  0  0  0  0  0  0  0
    3.4210    0.8874    2.7439 H   0  0  0  0  0  0  0  0  0  0  0  0
    2.9661    2.3269    3.6180 H   0  0  0  0  0  0  0  0  0  0  0  0
    1.5790    1.1997    6.5600 H   0  0  0  0  0  0  0  0  0  0  0  0
    0.8133    1.8390    5.0982 H   0  0  0  0  0  0  0  0  0  0  0  0
   -0.1402   -0.4345    6.3881 H   0  0  0  0  0  0  0  0  0  0  0  0
    0.7635   -2.6316    2.9602 H   0  0  0  0  0  0  0  0  0  0  0  0
    1.5169   -1.3837    1.3712 H   0  0  0  0  0  0  0  0  0  0  0  0
    4.0051   -3.7110    6.1858 H   0  0  0  0  0  0  0  0  0  0  0  0
    4.9622   -6.0133    5.7222 H   0  0  0  0  0  0  0  0  0  0  0  0
    4.6229   -6.4930    3.2530 H   0  0  0  0  0  0  0  0  0  0  0  0
    4.0813   -5.1057    1.4170 H   0  0  0  0  0  0  0  0  0  0  0  0
    1.4470   -4.2098    1.9530 H   0  0  0  0  0  0  0  0  0  0  0  0
    1.6561   -5.8734    1.7748 H   0  0  0  0  0  0  0  0  0  0  0  0
   -0.0352   -5.1096    3.6894 H   0  0  0  0  0  0  0  0  0  0  0  0
    1.0951   -7.3986    6.5757 H   0  0  0  0  0  0  0  0  0  0  0  0
    0.2178   -5.9286    6.2467 H   0  0  0  0  0  0  0  0  0  0  0  0
    1.9536   -5.8816    6.4289 H   0  0  0  0  0  0  0  0  0  0  0  0
    0.1948   -8.5262    4.8903 H   0  0  0  0  0  0  0  0  0  0  0  0
   -1.7772   -7.9171    4.4180 H   0  0  0  0  0  0  0  0  0  0  0  0
   -0.9538  -10.2445    3.4327 H   0  0  0  0  0  0  0  0  0  0  0  0
   -0.9218  -10.0401    1.6985 H   0  0  0  0  0  0  0  0  0  0  0  0
   -1.9848   -9.0398    2.6634 H   0  0  0  0  0  0  0  0  0  0  0  0
   -0.0276   -8.0937    0.9142 H   0  0  0  0  0  0  0  0  0  0  0  0
    1.5423   -9.9115    3.4932 H   0  0  0  0  0  0  0  0  0  0  0  0
    1.5524   -9.7763    1.7708 H   0  0  0  0  0  0  0  0  0  0  0  0
    3.5681   -8.9396    2.8749 H   0  0  0  0  0  0  0  0  0  0  0  0
    3.1343   -8.3894    0.9258 H   0  0  0  0  0  0  0  0  0  0  0  0
    3.3127   -7.7182    6.1993 H   0  0  0  0  0  0  0  0  0  0  0  0
    2.5998   -9.0735    5.3753 H   0  0  0  0  0  0  0  0  0  0  0  0
    4.7441   -9.3830    5.6878 H   0  0  0  0  0  0  0  0  0  0  0  0
  1  2  2  0
  1 38  1  0
  1 39  1  0
 15  2  1  6
  2  3  1  0
  3  4  1  0
  3  5  1  0
  3 40  1  1
  4 41  1  0
  6  5  1  1
  6 12  1  0
  6 15  1  0
  6  7  1  0
  7  8  1  0
  7  9  1  0
  7 42  1  1
  8 43  1  0
  8 44  1  0
  8 45  1  0
  9 10  1  0
  9 46  1  0
  9 47  1  0
 10 12  1  0
 10 11  1  0
 10 48  1  1
 12 11  1  6
 12 13  1  0
 13 14  1  0
 13 15  1  0
 13 49  1  6
 14 50  1  0
 15 16  1  0
 16 20  1  0
 16 24  1  1
 16 17  1  0
 17 18  2  0
 17 51  1  0
 18 19  1  0
 18 52  1  0
 19 35  1  0
 19 20  1  0
 19 53  1  6
 20 21  1  6
 20 22  1  0
 21 54  1  0
 22 23  1  0
 22 55  1  0
 22 56  1  0
 23 24  1  0
 23 25  1  0
 23 57  1  6
 25 35  1  0
 25 26  1  1
 25 27  1  0
 26 58  1  0
 26 59  1  0
 26 60  1  0
 27 28  1  0
 27 29  1  0
 27 61  1  1
 28 62  1  0
 29 30  1  0
 29 31  1  6
 29 32  1  0
 30 63  1  0
 30 64  1  0
 30 65  1  0
 31 66  1  0
 32 33  1  0
 32 67  1  0
 32 68  1  0
 33 34  1  0
 33 35  1  0
 33 69  1  1
 34 70  1  0
 35 36  1  1
 36 37  1  0
 36 71  1  0
 36 72  1  0
 37 73  1  0
M  END
>  <i_m_ct_stereo_status>  (123) 
1

>  <s_m_source_file>  (123) 
/var/tmp/pbs.5076255.sched01/tmp276pg2sv/48_ir7zhrj.sdf

>  <i_m_source_file_index>  (123) 
6

>  <i_lp_mmshare_version>  (123) 
48012

>  <i_f3d_flags>  (123) 
0

>  <s_epik_input>  (123) 
W0NIM11bQ0BIXTFbQ0gyXVtDQEBIXShPMilbQ0BAXTIoW0NAQF0xMzQpW0NAQEhdKFtPSF0pW0NAXTQoQyg9W0NIMl0pW0NASF0oTzMpW09IXSlbQ0BAXTU2W0NAQF03KFtPSF0pW0NAQEhdKFtDSF09W0NIXTUpW0NAQF04KFtDSDJdW09IXSlbQ0BAXShbQ0gzXSkoW0NAQEhdKE82KVtDSDJdNylbQ0BASF0oW09IXSlbQ0BAXShbQ0gzXSkoW09IXSlbQ0gyXVtDQEhdOFtPSF0=

>  <s_epik_cmdline>  (123) 
J2VwaWtfcHl0aG9uJywgJy1waHQnLCAnMi4wJywgJy1waCcsICc3LjAnLCAnLXRuJywgJzgnLCAnLW1hJywgJzIwMCcsICctaW1hZScsICc8aW5maWxlLm1hZT4nLCAnLW9tYWUnLCAnPG91dGZpbGUubWFlPic=

>  <r_lp_tautomer_probability>  (123) 
1

>  <r_epik_Ionization_Penalty>  (123) 
8.76477e-06

>  <r_epik_Ionization_Penalty_Charging>  (123) 
0

>  <r_epik_Ionization_Penalty_Neutral>  (123) 
8.76477e-06

>  <r_epik_State_Penalty>  (123) 
-0

>  <r_epik_Charging_Adjusted_Penalty>  (123) 
0

>  <i_epik_Tot_Q>  (123) 
0

>  <i_epik_Tot_abs_Q>  (123) 
0

>  <s_epik_Chemistry_Notes>  (123) 
This compound contains an acetal/aminal-like group ( X-CH(R)-Y where X, Y are N, S, or O) that may be acid/base labile, releasing an aldehyde.

>  <s_lp_Force_Field>  (123) 
OPLS3e

>  <r_lp_Energy>  (123) 
159.765

>  <b_lp_Chiralities_Consistent>  (123) 
1

>  <s_lp_Variant>  (123) 
34:0-1

>  <s_i_glide_gridfile>  (123) 
pfpi4k_grid

>  <i_i_glide_lignum>  (123) 
6

>  <i_i_glide_rotatable_bonds>  (123) 
9

>  <r_i_docking_score>  (123) 
-2.11122

>  <r_i_glide_ligand_efficiency>  (123) 
-0.0570599

>  <r_i_glide_ligand_efficiency_sa>  (123) 
-0.190136

>  <r_i_glide_ligand_efficiency_ln>  (123) 
-0.457873

>  <r_i_glide_gscore>  (123) 
-2.11122

>  <r_i_glide_lipo>  (123) 
-0.21564

>  <r_i_glide_hbond>  (123) 
0

>  <r_i_glide_metal>  (123) 
-0

>  <r_i_glide_rewards>  (123) 
-0.031154

>  <r_i_glide_evdw>  (123) 
-22.7947

>  <r_i_glide_ecoul>  (123) 
-5.84244

>  <r_i_glide_erotb>  (123) 
0.15168

>  <r_i_glide_esite>  (123) 
0

>  <r_i_glide_emodel>  (123) 
-32.1533

>  <r_i_glide_energy>  (123) 
-28.6372

>  <r_i_glide_einternal>  (123) 
1.38579

>  <r_i_glide_intrahb_reward>  (123) 
-0

>  <i_i_glide_confnum>  (123) 
5

>  <i_i_glide_posenum>  (123) 
7

>  <r_i_glide_eff_state_penalty>  (123) 
0

>  <ligand_id>  (123) 
34

>  <original_smiles>  (123) 
C=C1C(O)OC23C(C)CC4OC42C(O)C13C12C=CC3C1(O)CC(O2)C1(C)C(O)C(C)(O)CC(O)C31CO

>  <smiles>  (123) 
[H]OC1([H])OC23C([H])(C([H])([H])[H])C([H])([H])C4([H])OC42C([H])(O[H])C3(C23OC4([H])C([H])([H])C2(O[H])C([H])(C([H])=C3[H])C2(C([H])([H])O[H])C([H])(O[H])C([H])([H])C(O[H])(C([H])([H])[H])C([H])(O[H])C42C([H])([H])[H])C1=C([H])[H]

$$$$
35:0:0
     RDKit          3D

 22 23  0  0  1  0  0  0  0  0999 V2000
   -2.2006    4.5205    3.4034 O   0  0  0  0  0  0  0  0  0  0  0  0
   -1.8273    3.4323    3.8368 C   0  0  0  0  0  0  0  0  0  0  0  0
   -2.2033    2.9647    5.1816 C   0  0  0  0  0  0  0  0  0  0  0  0
   -1.7893    1.7671    5.6559 C   0  0  0  0  0  0  0  0  0  0  0  0
   -0.9480    0.8541    4.8524 C   0  0  0  0  0  0  0  0  0  0  0  0
   -0.6198   -0.2525    5.2855 O   0  0  0  0  0  0  0  0  0  0  0  0
   -0.5385    1.3357    3.5024 C   0  0  0  0  0  0  0  0  0  0  0  0
    0.3698    0.4019    2.7005 C   0  0  2  0  0  0  0  0  0  0  0  0
    1.8380    0.4589    3.1105 C   0  0  0  0  0  0  0  0  0  0  0  0
    2.1566    0.4983    1.6259 C   0  0  0  0  0  0  0  0  0  0  0  0
    0.7808    0.9236    1.3893 N   0  0  0  0  0  0  0  0  0  0  0  0
   -0.9697    2.5382    3.0468 C   0  0  0  0  0  0  0  0  0  0  0  0
   -2.8425    3.6064    5.7701 H   0  0  0  0  0  0  0  0  0  0  0  0
   -2.0860    1.4379    6.6443 H   0  0  0  0  0  0  0  0  0  0  0  0
    0.0062   -0.6258    2.6222 H   0  0  0  0  0  0  0  0  0  0  0  0
    2.1201    1.3739    3.6345 H   0  0  0  0  0  0  0  0  0  0  0  0
    2.1991   -0.4306    3.6213 H   0  0  0  0  0  0  0  0  0  0  0  0
    2.8971    1.2456    1.3352 H   0  0  0  0  0  0  0  0  0  0  0  0
    2.3519   -0.4848    1.1876 H   0  0  0  0  0  0  0  0  0  0  0  0
    0.3581    0.4495    0.5901 H   0  0  0  0  0  0  0  0  0  0  0  0
   -0.6845    2.9154    2.0843 H   0  0  0  0  0  0  0  0  0  0  0  0
    0.6947    1.9297    1.3342 H   0  0  0  0  0  0  0  0  0  0  0  0
  1  2  2  0
  2 12  1  0
  2  3  1  0
  3  4  2  0
  3 13  1  0
  4  5  1  0
  4 14  1  0
  5  6  2  0
  5  7  1  0
  7  8  1  0
  7 12  2  0
  8 11  1  0
  8  9  1  0
  8 15  1  6
  9 10  1  0
  9 16  1  0
  9 17  1  0
 10 11  1  0
 10 18  1  0
 10 19  1  0
 11 20  1  0
 11 22  1  0
 12 21  1  0
M  CHG  1  11   1
M  END
>  <i_m_ct_stereo_status>  (124) 
1

>  <s_m_source_file>  (124) 
/var/tmp/pbs.5076255.sched01/tmp276pg2sv/48_ir7zhrj.sdf

>  <i_m_source_file_index>  (124) 
7

>  <i_lp_mmshare_version>  (124) 
48012

>  <i_f3d_flags>  (124) 
0

>  <s_epik_input>  (124) 
Tz1DMVtDSF09W0NIXUMoPU8pQyg9W0NIXTEpW0NAQEhdMltDSDJdW0NIMl1bTkhdMg==

>  <s_epik_cmdline>  (124) 
J2VwaWtfcHl0aG9uJywgJy1waHQnLCAnMi4wJywgJy1waCcsICc3LjAnLCAnLXRuJywgJzgnLCAnLW1hJywgJzIwMCcsICctaW1hZScsICc8aW5maWxlLm1hZT4nLCAnLW9tYWUnLCAnPG91dGZpbGUubWFlPic=

>  <r_epik_Ionization_Penalty>  (124) 
0.00358186

>  <r_epik_Ionization_Penalty_Charging>  (124) 
0.00358186

>  <r_epik_Ionization_Penalty_Neutral>  (124) 
0

>  <r_epik_State_Penalty>  (124) 
0.00254539

>  <r_epik_Charging_Adjusted_Penalty>  (124) 
0.00612724

>  <i_epik_Tot_Q>  (124) 
1

>  <i_epik_Tot_abs_Q>  (124) 
1

>  <s_lp_Force_Field>  (124) 
OPLS3e

>  <r_lp_Energy>  (124) 
30.0724

>  <b_lp_Chiralities_Consistent>  (124) 
1

>  <s_lp_Variant>  (124) 
35:0-1

>  <s_i_glide_gridfile>  (124) 
pfpi4k_grid

>  <i_i_glide_lignum>  (124) 
7

>  <i_i_glide_rotatable_bonds>  (124) 
1

>  <r_i_docking_score>  (124) 
-4.44058

>  <r_i_glide_ligand_efficiency>  (124) 
-0.370048

>  <r_i_glide_ligand_efficiency_sa>  (124) 
-0.847199

>  <r_i_glide_ligand_efficiency_ln>  (124) 
-1.27423

>  <r_i_glide_gscore>  (124) 
-4.44058

>  <r_i_glide_lipo>  (124) 
0

>  <r_i_glide_hbond>  (124) 
-0.536031

>  <r_i_glide_metal>  (124) 
-0

>  <r_i_glide_rewards>  (124) 
-2.25

>  <r_i_glide_evdw>  (124) 
-13.9638

>  <r_i_glide_ecoul>  (124) 
-9.01212

>  <r_i_glide_erotb>  (124) 
0.56486

>  <r_i_glide_esite>  (124) 
-0.169398

>  <r_i_glide_emodel>  (124) 
-32.5043

>  <r_i_glide_energy>  (124) 
-22.9759

>  <r_i_glide_einternal>  (124) 
1.4872

>  <r_i_glide_intrahb_reward>  (124) 
-0

>  <i_i_glide_confnum>  (124) 
2

>  <i_i_glide_posenum>  (124) 
1

>  <r_i_glide_eff_state_penalty>  (124) 
0

>  <ligand_id>  (124) 
35

>  <original_smiles>  (124) 
O=C1C=CC(=O)C(C2CCN2)=C1

>  <smiles>  (124) 
[H]C1=C([H])C(=O)C(C2([H])C([H])([H])C([H])([H])[N+]2([H])[H])=C([H])C1=O

$$$$
35:0:1
     RDKit          3D

 22 23  0  0  1  0  0  0  0  0999 V2000
   -1.2923    0.6044    7.3110 O   0  0  0  0  0  0  0  0  0  0  0  0
   -1.4356    1.3003    6.3186 C   0  0  0  0  0  0  0  0  0  0  0  0
   -2.2126    2.5465    6.3677 C   0  0  0  0  0  0  0  0  0  0  0  0
   -2.3770    3.2895    5.2565 C   0  0  0  0  0  0  0  0  0  0  0  0
   -1.7789    2.9000    3.9572 C   0  0  0  0  0  0  0  0  0  0  0  0
   -1.9345    3.5983    2.9607 O   0  0  0  0  0  0  0  0  0  0  0  0
   -0.9851    1.6319    3.9116 C   0  0  0  0  0  0  0  0  0  0  0  0
   -0.3751    1.2074    2.5704 C   0  0  2  0  0  0  0  0  0  0  0  0
    0.7487    0.1602    2.6494 C   0  0  0  0  0  0  0  0  0  0  0  0
    1.5040    1.0270    1.6777 C   0  0  0  0  0  0  0  0  0  0  0  0
    0.6285    2.1440    2.0561 N   0  0  0  0  0  0  0  0  0  0  0  0
   -0.8568    0.8893    5.0309 C   0  0  0  0  0  0  0  0  0  0  0  0
   -2.6600    2.8155    7.3098 H   0  0  0  0  0  0  0  0  0  0  0  0
   -2.9760    4.1740    5.2779 H   0  0  0  0  0  0  0  0  0  0  0  0
   -1.1198    0.9982    1.7967 H   0  0  0  0  0  0  0  0  0  0  0  0
    1.3183    0.1174    3.5796 H   0  0  0  0  0  0  0  0  0  0  0  0
    0.4617   -0.8249    2.2921 H   0  0  0  0  0  0  0  0  0  0  0  0
    2.5532    1.1840    1.9329 H   0  0  0  0  0  0  0  0  0  0  0  0
    1.3668    0.7121    0.6369 H   0  0  0  0  0  0  0  0  0  0  0  0
    0.2965    2.7370    1.2880 H   0  0  0  0  0  0  0  0  0  0  0  0
   -0.3398   -0.0586    5.0611 H   0  0  0  0  0  0  0  0  0  0  0  0
    1.0500    2.6700    2.8080 H   0  0  0  0  0  0  0  0  0  0  0  0
  1  2  2  0
  2 12  1  0
  2  3  1  0
  3  4  2  0
  3 13  1  0
  4  5  1  0
  4 14  1  0
  5  6  2  0
  5  7  1  0
  7  8  1  0
  7 12  2  0
  8 11  1  0
  8  9  1  0
  8 15  1  6
  9 10  1  0
  9 16  1  0
  9 17  1  0
 10 11  1  0
 10 18  1  0
 10 19  1  0
 11 20  1  0
 11 22  1  0
 12 21  1  0
M  CHG  1  11   1
M  END
>  <i_m_ct_stereo_status>  (125) 
1

>  <s_m_source_file>  (125) 
/var/tmp/pbs.5076255.sched01/tmp276pg2sv/48_ir7zhrj.sdf

>  <i_m_source_file_index>  (125) 
7

>  <i_lp_mmshare_version>  (125) 
48012

>  <i_f3d_flags>  (125) 
0

>  <s_epik_input>  (125) 
Tz1DMVtDSF09W0NIXUMoPU8pQyg9W0NIXTEpW0NAQEhdMltDSDJdW0NIMl1bTkhdMg==

>  <s_epik_cmdline>  (125) 
J2VwaWtfcHl0aG9uJywgJy1waHQnLCAnMi4wJywgJy1waCcsICc3LjAnLCAnLXRuJywgJzgnLCAnLW1hJywgJzIwMCcsICctaW1hZScsICc8aW5maWxlLm1hZT4nLCAnLW9tYWUnLCAnPG91dGZpbGUubWFlPic=

>  <r_epik_Ionization_Penalty>  (125) 
0.00358186

>  <r_epik_Ionization_Penalty_Charging>  (125) 
0.00358186

>  <r_epik_Ionization_Penalty_Neutral>  (125) 
0

>  <r_epik_State_Penalty>  (125) 
0.00254539

>  <r_epik_Charging_Adjusted_Penalty>  (125) 
0.00612724

>  <i_epik_Tot_Q>  (125) 
1

>  <i_epik_Tot_abs_Q>  (125) 
1

>  <s_lp_Force_Field>  (125) 
OPLS3e

>  <r_lp_Energy>  (125) 
30.0724

>  <b_lp_Chiralities_Consistent>  (125) 
1

>  <s_lp_Variant>  (125) 
35:0-1

>  <s_i_glide_gridfile>  (125) 
pfpi4k_grid

>  <i_i_glide_lignum>  (125) 
7

>  <i_i_glide_rotatable_bonds>  (125) 
1

>  <r_i_docking_score>  (125) 
-4.23503

>  <r_i_glide_ligand_efficiency>  (125) 
-0.352919

>  <r_i_glide_ligand_efficiency_sa>  (125) 
-0.807983

>  <r_i_glide_ligand_efficiency_ln>  (125) 
-1.21525

>  <r_i_glide_gscore>  (125) 
-4.23503

>  <r_i_glide_lipo>  (125) 
-0.100515

>  <r_i_glide_hbond>  (125) 
-0.326045

>  <r_i_glide_metal>  (125) 
-0

>  <r_i_glide_rewards>  (125) 
-2.25

>  <r_i_glide_evdw>  (125) 
-13.4241

>  <r_i_glide_ecoul>  (125) 
-8.58971

>  <r_i_glide_erotb>  (125) 
0.56486

>  <r_i_glide_esite>  (125) 
-0.163664

>  <r_i_glide_emodel>  (125) 
-31.3362

>  <r_i_glide_energy>  (125) 
-22.0138

>  <r_i_glide_einternal>  (125) 
0.577981

>  <r_i_glide_intrahb_reward>  (125) 
-0

>  <i_i_glide_confnum>  (125) 
1

>  <i_i_glide_posenum>  (125) 
24

>  <r_i_glide_eff_state_penalty>  (125) 
0

>  <ligand_id>  (125) 
35

>  <original_smiles>  (125) 
O=C1C=CC(=O)C(C2CCN2)=C1

>  <smiles>  (125) 
[H]C1=C([H])C(=O)C(C2([H])C([H])([H])C([H])([H])[N+]2([H])[H])=C([H])C1=O

$$$$
35:0:2
     RDKit          3D

 22 23  0  0  1  0  0  0  0  0999 V2000
   -1.7557    1.4643    5.5182 O   0  0  0  0  0  0  0  0  0  0  0  0
   -0.8898    1.4995    4.6531 C   0  0  0  0  0  0  0  0  0  0  0  0
   -0.8292    0.4826    3.5833 C   0  0  0  0  0  0  0  0  0  0  0  0
    0.1222    0.5092    2.6397 C   0  0  0  0  0  0  0  0  0  0  0  0
    1.1683    1.5628    2.6181 C   0  0  0  0  0  0  0  0  0  0  0  0
    2.0625    1.5737    1.7859 O   0  0  0  0  0  0  0  0  0  0  0  0
    1.1081    2.5951    3.6990 C   0  0  0  0  0  0  0  0  0  0  0  0
    2.1902    3.6793    3.6828 C   0  0  2  0  0  0  0  0  0  0  0  0
    1.8555    4.9676    4.4542 C   0  0  0  0  0  0  0  0  0  0  0  0
    2.4187    5.7095    3.2650 C   0  0  0  0  0  0  0  0  0  0  0  0
    2.2273    4.4963    2.4707 N   0  0  0  0  0  0  0  0  0  0  0  0
    0.1573    2.5447    4.6356 C   0  0  0  0  0  0  0  0  0  0  0  0
   -1.5890   -0.2758    3.6106 H   0  0  0  0  0  0  0  0  0  0  0  0
    0.1935   -0.2350    1.8562 H   0  0  0  0  0  0  0  0  0  0  0  0
    3.1946    3.2956    3.9073 H   0  0  0  0  0  0  0  0  0  0  0  0
    0.7934    5.1960    4.5466 H   0  0  0  0  0  0  0  0  0  0  0  0
    2.4055    5.0827    5.3850 H   0  0  0  0  0  0  0  0  0  0  0  0
    1.7913    6.5397    2.9226 H   0  0  0  0  0  0  0  0  0  0  0  0
    3.4730    5.9855    3.3736 H   0  0  0  0  0  0  0  0  0  0  0  0
    3.0309    4.2827    1.8826 H   0  0  0  0  0  0  0  0  0  0  0  0
    0.1011    3.2424    5.4604 H   0  0  0  0  0  0  0  0  0  0  0  0
    1.3265    4.5013    1.9613 H   0  0  0  0  0  0  0  0  0  0  0  0
  1  2  2  0
  2 12  1  0
  2  3  1  0
  3  4  2  0
  3 13  1  0
  4  5  1  0
  4 14  1  0
  5  6  2  0
  5  7  1  0
  7  8  1  0
  7 12  2  0
  8 11  1  0
  8  9  1  0
  8 15  1  1
  9 10  1  0
  9 16  1  0
  9 17  1  0
 10 11  1  0
 10 18  1  0
 10 19  1  0
 11 20  1  0
 11 22  1  0
 12 21  1  0
M  CHG  1  11   1
M  END
>  <i_m_ct_stereo_status>  (126) 
1

>  <s_m_source_file>  (126) 
/var/tmp/pbs.5076255.sched01/tmp276pg2sv/48_ir7zhrj.sdf

>  <i_m_source_file_index>  (126) 
7

>  <i_lp_mmshare_version>  (126) 
48012

>  <i_f3d_flags>  (126) 
0

>  <s_epik_input>  (126) 
Tz1DMVtDSF09W0NIXUMoPU8pQyg9W0NIXTEpW0NAQEhdMltDSDJdW0NIMl1bTkhdMg==

>  <s_epik_cmdline>  (126) 
J2VwaWtfcHl0aG9uJywgJy1waHQnLCAnMi4wJywgJy1waCcsICc3LjAnLCAnLXRuJywgJzgnLCAnLW1hJywgJzIwMCcsICctaW1hZScsICc8aW5maWxlLm1hZT4nLCAnLW9tYWUnLCAnPG91dGZpbGUubWFlPic=

>  <r_epik_Ionization_Penalty>  (126) 
0.00358186

>  <r_epik_Ionization_Penalty_Charging>  (126) 
0.00358186

>  <r_epik_Ionization_Penalty_Neutral>  (126) 
0

>  <r_epik_State_Penalty>  (126) 
0.00254539

>  <r_epik_Charging_Adjusted_Penalty>  (126) 
0.00612724

>  <i_epik_Tot_Q>  (126) 
1

>  <i_epik_Tot_abs_Q>  (126) 
1

>  <s_lp_Force_Field>  (126) 
OPLS3e

>  <r_lp_Energy>  (126) 
30.0724

>  <b_lp_Chiralities_Consistent>  (126) 
1

>  <s_lp_Variant>  (126) 
35:0-1

>  <s_i_glide_gridfile>  (126) 
pfpi4k_grid

>  <i_i_glide_lignum>  (126) 
7

>  <i_i_glide_rotatable_bonds>  (126) 
1

>  <r_i_docking_score>  (126) 
-3.96366

>  <r_i_glide_ligand_efficiency>  (126) 
-0.330305

>  <r_i_glide_ligand_efficiency_sa>  (126) 
-0.75621

>  <r_i_glide_ligand_efficiency_ln>  (126) 
-1.13738

>  <r_i_glide_gscore>  (126) 
-3.96366

>  <r_i_glide_lipo>  (126) 
0

>  <r_i_glide_hbond>  (126) 
-0.2

>  <r_i_glide_metal>  (126) 
-0

>  <r_i_glide_rewards>  (126) 
-2.25

>  <r_i_glide_evdw>  (126) 
-14.0718

>  <r_i_glide_ecoul>  (126) 
-8.15273

>  <r_i_glide_erotb>  (126) 
0.56486

>  <r_i_glide_esite>  (126) 
-0.152022

>  <r_i_glide_emodel>  (126) 
-31.1174

>  <r_i_glide_energy>  (126) 
-22.2245

>  <r_i_glide_einternal>  (126) 
0.212526

>  <r_i_glide_intrahb_reward>  (126) 
-0

>  <i_i_glide_confnum>  (126) 
2

>  <i_i_glide_posenum>  (126) 
39

>  <r_i_glide_eff_state_penalty>  (126) 
0

>  <ligand_id>  (126) 
35

>  <original_smiles>  (126) 
O=C1C=CC(=O)C(C2CCN2)=C1

>  <smiles>  (126) 
[H]C1=C([H])C(=O)C(C2([H])C([H])([H])C([H])([H])[N+]2([H])[H])=C([H])C1=O

$$$$
36:0:0
     RDKit          3D

 62 69  0  0  1  0  0  0  0  0999 V2000
    3.6123   -0.3904   -4.6968 C   0  0  0  0  0  0  0  0  0  0  0  0
    3.4173   -1.1684   -3.5329 O   0  0  0  0  0  0  0  0  0  0  0  0
    4.6087   -1.7292   -2.9929 C   0  0  0  0  0  0  0  0  0  0  0  0
    4.3113   -2.4151   -1.6433 C   0  0  2  0  0  0  0  0  0  0  0  0
    3.0498   -3.3885   -1.7469 C   0  0  0  0  0  0  0  0  0  0  0  0
    2.4205   -3.9606   -0.3954 C   0  0  2  0  0  0  0  0  0  0  0  0
    2.5594   -2.9330    0.7430 C   0  0  0  0  0  0  0  0  0  0  0  0
    4.0146   -2.4967    0.6826 C   0  0  2  0  0  0  0  0  0  0  0  0
    3.9756   -1.4687   -0.5048 C   0  0  0  0  0  0  0  0  0  0  0  0
    4.9681   -3.6662    0.2254 C   0  0  2  0  0  0  0  0  0  0  0  0
    5.5140   -3.0450   -0.9511 C   0  0  0  0  0  0  0  0  0  0  0  0
    6.6449   -2.3477   -0.6806 C   0  0  0  0  0  0  0  0  0  0  0  0
    7.2086   -2.1487    0.7612 C   0  0  1  0  0  0  0  0  0  0  0  0
    8.1691   -1.1131    0.6506 O   0  0  0  0  0  0  0  0  0  0  0  0
    6.1806   -1.8464    1.9624 C   0  0  1  0  0  0  0  0  0  0  0  0
    4.6612   -1.9153    1.9113 C   0  0  2  0  0  0  0  0  0  0  0  0
    5.3308   -2.7943    2.9656 C   0  0  2  0  0  0  0  0  0  0  0  0
    5.4151   -2.2553    4.3890 C   0  0  0  0  0  0  0  0  0  0  0  0
    4.8162   -4.3089    2.9914 C   0  0  2  0  0  0  0  0  0  0  0  0
    6.0443   -5.0656    3.3066 O   0  0  0  0  0  0  0  0  0  0  0  0
    5.1954   -5.7455    2.4121 C   0  0  2  0  0  0  0  0  0  0  0  0
    5.4439   -6.0232    0.9474 C   0  0  0  0  0  0  0  0  0  0  0  0
    4.5619   -5.1336    0.0211 C   0  0  1  0  0  0  0  0  0  0  0  0
    3.0473   -5.2723    0.1280 C   0  0  1  0  0  0  0  0  0  0  0  0
    2.4613   -5.9878    1.3954 C   0  0  0  0  0  0  0  0  0  0  0  0
    2.3537   -5.4085    2.8545 C   0  0  0  0  0  0  0  0  0  0  0  0
    3.4539   -4.5802    3.6432 C   0  0  1  0  0  0  0  0  0  0  0  0
    3.5925   -5.1037    5.0858 C   0  0  0  0  0  0  0  0  0  0  0  0
    2.6517   -0.0212   -5.0517 H   0  0  0  0  0  0  0  0  0  0  0  0
    4.0637   -0.9675   -5.5002 H   0  0  0  0  0  0  0  0  0  0  0  0
    4.2318    0.4771   -4.4839 H   0  0  0  0  0  0  0  0  0  0  0  0
    5.0170   -2.4521   -3.7002 H   0  0  0  0  0  0  0  0  0  0  0  0
    5.3389   -0.9400   -2.8383 H   0  0  0  0  0  0  0  0  0  0  0  0
    2.2266   -2.8402   -2.2257 H   0  0  0  0  0  0  0  0  0  0  0  0
    3.3134   -4.1792   -2.4401 H   0  0  0  0  0  0  0  0  0  0  0  0
    1.3841   -4.1862   -0.6234 H   0  0  0  0  0  0  0  0  0  0  0  0
    1.8756   -2.1045    0.6299 H   0  0  0  0  0  0  0  0  0  0  0  0
    2.2925   -3.2960    1.7148 H   0  0  0  0  0  0  0  0  0  0  0  0
    4.7036   -0.6621   -0.4111 H   0  0  0  0  0  0  0  0  0  0  0  0
    3.0283   -0.9669   -0.6802 H   0  0  0  0  0  0  0  0  0  0  0  0
    5.8001   -3.8864    0.8360 H   0  0  0  0  0  0  0  0  0  0  0  0
    6.9345   -1.6265   -1.4037 H   0  0  0  0  0  0  0  0  0  0  0  0
    7.7446   -3.0664    1.0296 H   0  0  0  0  0  0  0  0  0  0  0  0
    7.9595   -0.4039    1.2404 H   0  0  0  0  0  0  0  0  0  0  0  0
    6.5321   -0.9487    2.4685 H   0  0  0  0  0  0  0  0  0  0  0  0
    4.1412   -1.0330    2.2869 H   0  0  0  0  0  0  0  0  0  0  0  0
    4.4432   -2.3198    4.8858 H   0  0  0  0  0  0  0  0  0  0  0  0
    5.6983   -1.2059    4.4194 H   0  0  0  0  0  0  0  0  0  0  0  0
    6.1266   -2.8358    4.9762 H   0  0  0  0  0  0  0  0  0  0  0  0
    4.7741   -6.6143    2.9124 H   0  0  0  0  0  0  0  0  0  0  0  0
    6.5087   -5.9087    0.7303 H   0  0  0  0  0  0  0  0  0  0  0  0
    5.1945   -7.0717    0.7561 H   0  0  0  0  0  0  0  0  0  0  0  0
    4.8338   -5.4175   -0.9959 H   0  0  0  0  0  0  0  0  0  0  0  0
    2.7920   -5.9948   -0.6293 H   0  0  0  0  0  0  0  0  0  0  0  0
    1.4442   -6.2675    1.1185 H   0  0  0  0  0  0  0  0  0  0  0  0
    2.9524   -6.9566    1.4609 H   0  0  0  0  0  0  0  0  0  0  0  0
    1.4292   -4.8313    2.9008 H   0  0  0  0  0  0  0  0  0  0  0  0
    2.1135   -6.2793    3.4641 H   0  0  0  0  0  0  0  0  0  0  0  0
    3.0048   -3.5881    3.7542 H   0  0  0  0  0  0  0  0  0  0  0  0
    3.9647   -6.1292    5.1045 H   0  0  0  0  0  0  0  0  0  0  0  0
    2.6275   -5.0982    5.5924 H   0  0  0  0  0  0  0  0  0  0  0  0
    4.2786   -4.5009    5.6782 H   0  0  0  0  0  0  0  0  0  0  0  0
  1  2  1  0
  1 29  1  0
  1 30  1  0
  1 31  1  0
  2  3  1  0
  4  3  1  6
  3 32  1  0
  3 33  1  0
  4  9  1  0
  4 11  1  0
  4  5  1  0
  5  6  1  0
  5 34  1  0
  5 35  1  0
  6 24  1  0
  6  7  1  0
  6 36  1  6
  8  7  1  1
  7 37  1  0
  7 38  1  0
  8 16  1  0
  8  9  1  0
  8 10  1  0
  9 39  1  0
  9 40  1  0
 10 23  1  0
 10 11  1  0
 10 41  1  1
 11 12  2  0
 12 13  1  0
 12 42  1  0
 13 14  1  0
 13 15  1  0
 13 43  1  1
 14 44  1  0
 15 17  1  0
 15 16  1  0
 15 45  1  1
 16 17  1  0
 16 46  1  1
 17 18  1  1
 17 19  1  0
 18 47  1  0
 18 48  1  0
 18 49  1  0
 19 21  1  0
 19 27  1  0
 19 20  1  1
 20 21  1  0
 21 22  1  0
 21 50  1  1
 22 23  1  0
 22 51  1  0
 22 52  1  0
 23 24  1  0
 23 53  1  6
 24 25  1  0
 24 54  1  6
 25 26  1  0
 25 55  1  0
 25 56  1  0
 26 27  1  0
 26 57  1  0
 26 58  1  0
 27 28  1  0
 27 59  1  1
 28 60  1  0
 28 61  1  0
 28 62  1  0
M  END
>  <i_m_ct_stereo_status>  (127) 
1

>  <s_m_source_file>  (127) 
/var/tmp/pbs.5076255.sched01/tmp276pg2sv/48_ir7zhrj.sdf

>  <i_m_source_file_index>  (127) 
8

>  <i_lp_mmshare_version>  (127) 
48012

>  <i_f3d_flags>  (127) 
0

>  <s_epik_input>  (127) 
W0NIM11PW0NIMl1bQ0BdKFtDSDJdMSkoQz0yW0NASF0zW0NAQF0xNDUpW0NIMl1bQ0BIXShbQ0gyXTQpW0NASF02W0NAQEhdM1tDSDJdW0NAQEhdN1tDQF0oTzcpKFtDQEhdKFtDSDNdKVtDSDJdW0NIMl02KVtDQEBdOChbQ0gzXSlbQ0BIXShbQ0BASF01OClbQ0BASF0oW0NIXTIpW09IXQ==

>  <s_epik_cmdline>  (127) 
J2VwaWtfcHl0aG9uJywgJy1waHQnLCAnMi4wJywgJy1waCcsICc3LjAnLCAnLXRuJywgJzgnLCAnLW1hJywgJzIwMCcsICctaW1hZScsICc8aW5maWxlLm1hZT4nLCAnLW9tYWUnLCAnPG91dGZpbGUubWFlPic=

>  <r_lp_tautomer_probability>  (127) 
1

>  <r_epik_Ionization_Penalty>  (127) 
3.39401e-07

>  <r_epik_Ionization_Penalty_Charging>  (127) 
0

>  <r_epik_Ionization_Penalty_Neutral>  (127) 
3.39401e-07

>  <r_epik_State_Penalty>  (127) 
-0

>  <r_epik_Charging_Adjusted_Penalty>  (127) 
0

>  <i_epik_Tot_Q>  (127) 
0

>  <i_epik_Tot_abs_Q>  (127) 
0

>  <s_lp_Force_Field>  (127) 
OPLS3e

>  <r_lp_Energy>  (127) 
227.14

>  <b_lp_Chiralities_Consistent>  (127) 
1

>  <s_lp_Variant>  (127) 
36:0-1

>  <s_i_glide_gridfile>  (127) 
pfpi4k_grid

>  <i_i_glide_lignum>  (127) 
8

>  <i_i_glide_rotatable_bonds>  (127) 
3

>  <r_i_docking_score>  (127) 
-3.0333

>  <r_i_glide_ligand_efficiency>  (127) 
-0.108332

>  <r_i_glide_ligand_efficiency_sa>  (127) 
-0.32896

>  <r_i_glide_ligand_efficiency_ln>  (127) 
-0.700174

>  <r_i_glide_gscore>  (127) 
-3.0333

>  <r_i_glide_lipo>  (127) 
-0.874199

>  <r_i_glide_hbond>  (127) 
-0.324525

>  <r_i_glide_metal>  (127) 
-0

>  <r_i_glide_rewards>  (127) 
-0.800893

>  <r_i_glide_evdw>  (127) 
-15.403

>  <r_i_glide_ecoul>  (127) 
-2.64171

>  <r_i_glide_erotb>  (127) 
0.132729

>  <r_i_glide_esite>  (127) 
0

>  <r_i_glide_emodel>  (127) 
-20.8494

>  <r_i_glide_energy>  (127) 
-18.0447

>  <r_i_glide_einternal>  (127) 
1.51711

>  <r_i_glide_intrahb_reward>  (127) 
-0

>  <i_i_glide_confnum>  (127) 
2

>  <i_i_glide_posenum>  (127) 
33

>  <r_i_glide_eff_state_penalty>  (127) 
0

>  <ligand_id>  (127) 
36

>  <original_smiles>  (127) 
COCC12CC3CC4(C1)C1C2=CC(O)C2C4C2(C)C24OC2CC1C3CCC4C

>  <smiles>  (127) 
[H]OC1([H])C([H])=C2C3([H])C4([H])C([H])([H])C5([H])OC56C([H])(C([H])([H])[H])C([H])([H])C([H])([H])C4([H])C4([H])C([H])([H])C2(C([H])([H])OC([H])([H])[H])C([H])([H])C3(C4([H])[H])C2([H])C1([H])C26C([H])([H])[H]

$$$$
36:0:1
     RDKit          3D

 62 69  0  0  1  0  0  0  0  0999 V2000
   -4.2592    3.9412    2.1267 C   0  0  0  0  0  0  0  0  0  0  0  0
   -3.0414    3.9085    2.8719 O   0  0  0  0  0  0  0  0  0  0  0  0
   -3.0351    2.9114    3.8836 C   0  0  0  0  0  0  0  0  0  0  0  0
   -1.6544    2.2334    3.9763 C   0  0  2  0  0  0  0  0  0  0  0  0
   -1.1658    1.6834    2.5415 C   0  0  0  0  0  0  0  0  0  0  0  0
    0.1003    0.7064    2.4721 C   0  0  2  0  0  0  0  0  0  0  0  0
    0.1567   -0.1708    3.7268 C   0  0  0  0  0  0  0  0  0  0  0  0
   -0.0223    0.8055    4.8825 C   0  0  2  0  0  0  0  0  0  0  0  0
   -1.5856    0.9956    4.8616 C   0  0  0  0  0  0  0  0  0  0  0  0
    0.5982    2.2197    4.5929 C   0  0  2  0  0  0  0  0  0  0  0  0
   -0.5978    3.0233    4.7400 C   0  0  0  0  0  0  0  0  0  0  0  0
   -0.7873    3.4032    6.0316 C   0  0  0  0  0  0  0  0  0  0  0  0
    0.1971    3.0429    7.2025 C   0  0  1  0  0  0  0  0  0  0  0  0
   -0.3834    3.3979    8.4358 O   0  0  0  0  0  0  0  0  0  0  0  0
    0.6696    1.5285    7.2887 C   0  0  1  0  0  0  0  0  0  0  0  0
    0.5002    0.4414    6.2445 C   0  0  2  0  0  0  0  0  0  0  0  0
    1.9373    0.7234    6.6874 C   0  0  2  0  0  0  0  0  0  0  0  0
    2.5510   -0.1519    7.7683 C   0  0  0  0  0  0  0  0  0  0  0  0
    2.9679    0.9177    5.4821 C   0  0  2  0  0  0  0  0  0  0  0  0
    3.8563    1.9852    5.9879 O   0  0  0  0  0  0  0  0  0  0  0  0
    3.6084    2.0572    4.6018 C   0  0  2  0  0  0  0  0  0  0  0  0
    2.8206    3.1209    3.8705 C   0  0  0  0  0  0  0  0  0  0  0  0
    1.4418    2.5900    3.3647 C   0  0  1  0  0  0  0  0  0  0  0  0
    1.4462    1.4525    2.3433 C   0  0  1  0  0  0  0  0  0  0  0  0
    2.7693    0.6276    2.1808 C   0  0  0  0  0  0  0  0  0  0  0  0
    3.3653   -0.4329    3.1832 C   0  0  0  0  0  0  0  0  0  0  0  0
    3.4616   -0.3435    4.7658 C   0  0  1  0  0  0  0  0  0  0  0  0
    4.8524   -0.7892    5.2581 C   0  0  0  0  0  0  0  0  0  0  0  0
   -4.2276    4.7188    1.3646 H   0  0  0  0  0  0  0  0  0  0  0  0
   -5.1169    4.1453    2.7662 H   0  0  0  0  0  0  0  0  0  0  0  0
   -4.4388    2.9924    1.6161 H   0  0  0  0  0  0  0  0  0  0  0  0
   -3.3558    3.3360    4.8253 H   0  0  0  0  0  0  0  0  0  0  0  0
   -3.7696    2.1447    3.6728 H   0  0  0  0  0  0  0  0  0  0  0  0
   -1.9993    1.1484    2.0733 H   0  0  0  0  0  0  0  0  0  0  0  0
   -0.9697    2.5202    1.8666 H   0  0  0  0  0  0  0  0  0  0  0  0
    0.0090    0.0664    1.5869 H   0  0  0  0  0  0  0  0  0  0  0  0
   -0.6023   -0.9480    3.7011 H   0  0  0  0  0  0  0  0  0  0  0  0
    1.0597   -0.7394    3.8154 H   0  0  0  0  0  0  0  0  0  0  0  0
   -2.0058    1.1788    5.8454 H   0  0  0  0  0  0  0  0  0  0  0  0
   -2.1692    0.1706    4.4584 H   0  0  0  0  0  0  0  0  0  0  0  0
    1.2733    2.6263    5.2918 H   0  0  0  0  0  0  0  0  0  0  0  0
   -1.7804    3.6863    6.3769 H   0  0  0  0  0  0  0  0  0  0  0  0
    1.0805    3.6751    7.0925 H   0  0  0  0  0  0  0  0  0  0  0  0
    0.2888    3.4251    9.0875 H   0  0  0  0  0  0  0  0  0  0  0  0
    0.4212    1.1742    8.2888 H   0  0  0  0  0  0  0  0  0  0  0  0
    0.0901   -0.4974    6.6197 H   0  0  0  0  0  0  0  0  0  0  0  0
    2.8457   -1.1152    7.3526 H   0  0  0  0  0  0  0  0  0  0  0  0
    1.8561   -0.3691    8.5774 H   0  0  0  0  0  0  0  0  0  0  0  0
    3.4354    0.3259    8.1869 H   0  0  0  0  0  0  0  0  0  0  0  0
    4.5390    1.8221    4.0873 H   0  0  0  0  0  0  0  0  0  0  0  0
    2.7171    4.0012    4.5063 H   0  0  0  0  0  0  0  0  0  0  0  0
    3.4075    3.4442    3.0088 H   0  0  0  0  0  0  0  0  0  0  0  0
    0.9727    3.4504    2.8774 H   0  0  0  0  0  0  0  0  0  0  0  0
    1.3660    1.9729    1.3877 H   0  0  0  0  0  0  0  0  0  0  0  0
    2.6650    0.1022    1.2302 H   0  0  0  0  0  0  0  0  0  0  0  0
    3.5542    1.3429    1.9618 H   0  0  0  0  0  0  0  0  0  0  0  0
    2.8924   -1.3892    2.9495 H   0  0  0  0  0  0  0  0  0  0  0  0
    4.3802   -0.5989    2.8195 H   0  0  0  0  0  0  0  0  0  0  0  0
    2.7872   -1.1276    5.1114 H   0  0  0  0  0  0  0  0  0  0  0  0
    5.6370   -0.1179    4.9060 H   0  0  0  0  0  0  0  0  0  0  0  0
    5.0919   -1.7890    4.8902 H   0  0  0  0  0  0  0  0  0  0  0  0
    4.9153   -0.8177    6.3448 H   0  0  0  0  0  0  0  0  0  0  0  0
  1  2  1  0
  1 29  1  0
  1 30  1  0
  1 31  1  0
  2  3  1  0
  4  3  1  6
  3 32  1  0
  3 33  1  0
  4  9  1  0
  4 11  1  0
  4  5  1  0
  5  6  1  0
  5 34  1  0
  5 35  1  0
  6 24  1  0
  6  7  1  0
  6 36  1  6
  8  7  1  6
  7 37  1  0
  7 38  1  0
  8 16  1  0
  8  9  1  0
  8 10  1  0
  9 39  1  0
  9 40  1  0
 10 23  1  0
 10 11  1  0
 10 41  1  1
 11 12  2  0
 12 13  1  0
 12 42  1  0
 13 14  1  0
 13 15  1  0
 13 43  1  6
 14 44  1  0
 15 17  1  0
 15 16  1  0
 15 45  1  1
 16 17  1  0
 16 46  1  1
 17 18  1  1
 17 19  1  0
 18 47  1  0
 18 48  1  0
 18 49  1  0
 19 21  1  0
 19 27  1  0
 19 20  1  1
 20 21  1  0
 21 22  1  0
 21 50  1  6
 22 23  1  0
 22 51  1  0
 22 52  1  0
 23 24  1  0
 23 53  1  6
 24 25  1  0
 24 54  1  6
 25 26  1  0
 25 55  1  0
 25 56  1  0
 26 27  1  0
 26 57  1  0
 26 58  1  0
 27 28  1  0
 27 59  1  1
 28 60  1  0
 28 61  1  0
 28 62  1  0
M  END
>  <i_m_ct_stereo_status>  (128) 
1

>  <s_m_source_file>  (128) 
/var/tmp/pbs.5076255.sched01/tmp276pg2sv/48_ir7zhrj.sdf

>  <i_m_source_file_index>  (128) 
8

>  <i_lp_mmshare_version>  (128) 
48012

>  <i_f3d_flags>  (128) 
0

>  <s_epik_input>  (128) 
W0NIM11PW0NIMl1bQ0BdKFtDSDJdMSkoQz0yW0NASF0zW0NAQF0xNDUpW0NIMl1bQ0BIXShbQ0gyXTQpW0NASF02W0NAQEhdM1tDSDJdW0NAQEhdN1tDQF0oTzcpKFtDQEhdKFtDSDNdKVtDSDJdW0NIMl02KVtDQEBdOChbQ0gzXSlbQ0BIXShbQ0BASF01OClbQ0BASF0oW0NIXTIpW09IXQ==

>  <s_epik_cmdline>  (128) 
J2VwaWtfcHl0aG9uJywgJy1waHQnLCAnMi4wJywgJy1waCcsICc3LjAnLCAnLXRuJywgJzgnLCAnLW1hJywgJzIwMCcsICctaW1hZScsICc8aW5maWxlLm1hZT4nLCAnLW9tYWUnLCAnPG91dGZpbGUubWFlPic=

>  <r_lp_tautomer_probability>  (128) 
1

>  <r_epik_Ionization_Penalty>  (128) 
3.39401e-07

>  <r_epik_Ionization_Penalty_Charging>  (128) 
0

>  <r_epik_Ionization_Penalty_Neutral>  (128) 
3.39401e-07

>  <r_epik_State_Penalty>  (128) 
-0

>  <r_epik_Charging_Adjusted_Penalty>  (128) 
0

>  <i_epik_Tot_Q>  (128) 
0

>  <i_epik_Tot_abs_Q>  (128) 
0

>  <s_lp_Force_Field>  (128) 
OPLS3e

>  <r_lp_Energy>  (128) 
227.14

>  <b_lp_Chiralities_Consistent>  (128) 
1

>  <s_lp_Variant>  (128) 
36:0-1

>  <s_i_glide_gridfile>  (128) 
pfpi4k_grid

>  <i_i_glide_lignum>  (128) 
8

>  <i_i_glide_rotatable_bonds>  (128) 
3

>  <r_i_docking_score>  (128) 
-2.26073

>  <r_i_glide_ligand_efficiency>  (128) 
-0.0807405

>  <r_i_glide_ligand_efficiency_sa>  (128) 
-0.245176

>  <r_i_glide_ligand_efficiency_ln>  (128) 
-0.521844

>  <r_i_glide_gscore>  (128) 
-2.26073

>  <r_i_glide_lipo>  (128) 
-0.266603

>  <r_i_glide_hbond>  (128) 
0

>  <r_i_glide_metal>  (128) 
-0

>  <r_i_glide_rewards>  (128) 
-0.800893

>  <r_i_glide_evdw>  (128) 
-20.2951

>  <r_i_glide_ecoul>  (128) 
-2.07475

>  <r_i_glide_erotb>  (128) 
0.132729

>  <r_i_glide_esite>  (128) 
0

>  <r_i_glide_emodel>  (128) 
-23.5621

>  <r_i_glide_energy>  (128) 
-22.3698

>  <r_i_glide_einternal>  (128) 
3.02048

>  <r_i_glide_intrahb_reward>  (128) 
-0

>  <i_i_glide_confnum>  (128) 
1

>  <i_i_glide_posenum>  (128) 
5

>  <r_i_glide_eff_state_penalty>  (128) 
0

>  <ligand_id>  (128) 
36

>  <original_smiles>  (128) 
COCC12CC3CC4(C1)C1C2=CC(O)C2C4C2(C)C24OC2CC1C3CCC4C

>  <smiles>  (128) 
[H]OC1([H])C([H])=C2C3([H])C4([H])C([H])([H])C5([H])OC56C([H])(C([H])([H])[H])C([H])([H])C([H])([H])C4([H])C4([H])C([H])([H])C2(C([H])([H])OC([H])([H])[H])C([H])([H])C3(C4([H])[H])C2([H])C1([H])C26C([H])([H])[H]

$$$$
36:0:2
     RDKit          3D

 62 69  0  0  1  0  0  0  0  0999 V2000
   -4.1746    4.6425    2.0721 C   0  0  0  0  0  0  0  0  0  0  0  0
   -2.9832    4.1335    2.6586 O   0  0  0  0  0  0  0  0  0  0  0  0
   -3.0656    2.7524    2.9588 C   0  0  0  0  0  0  0  0  0  0  0  0
   -1.6826    2.1839    3.3659 C   0  0  2  0  0  0  0  0  0  0  0  0
   -0.9552    1.4134    2.1582 C   0  0  0  0  0  0  0  0  0  0  0  0
    0.3390    0.5265    2.4745 C   0  0  2  0  0  0  0  0  0  0  0  0
    0.2428   -0.0821    3.8800 C   0  0  0  0  0  0  0  0  0  0  0  0
   -0.1654    1.0808    4.7792 C   0  0  2  0  0  0  0  0  0  0  0  0
   -1.7045    1.1468    4.4871 C   0  0  0  0  0  0  0  0  0  0  0  0
    0.4328    2.4583    4.3026 C   0  0  2  0  0  0  0  0  0  0  0  0
   -0.8212    3.1695    4.1510 C   0  0  0  0  0  0  0  0  0  0  0  0
   -1.2323    3.7923    5.2777 C   0  0  0  0  0  0  0  0  0  0  0  0
   -0.4258    3.7294    6.6179 C   0  0  1  0  0  0  0  0  0  0  0  0
   -1.2124    4.2791    7.6533 O   0  0  0  0  0  0  0  0  0  0  0  0
    0.1024    2.2920    7.0821 C   0  0  1  0  0  0  0  0  0  0  0  0
    0.1476    1.0119    6.2602 C   0  0  2  0  0  0  0  0  0  0  0  0
    1.4724    1.4953    6.8362 C   0  0  2  0  0  0  0  0  0  0  0  0
    1.9535    0.8799    8.1485 C   0  0  0  0  0  0  0  0  0  0  0  0
    2.6906    1.5452    5.7806 C   0  0  2  0  0  0  0  0  0  0  0  0
    3.4328    2.7333    6.1765 O   0  0  0  0  0  0  0  0  0  0  0  0
    3.4088    2.5296    4.8038 C   0  0  2  0  0  0  0  0  0  0  0  0
    2.6956    3.3753    3.7530 C   0  0  0  0  0  0  0  0  0  0  0  0
    1.4460    2.6477    3.1849 C   0  0  1  0  0  0  0  0  0  0  0  0
    1.6536    1.3451    2.4074 C   0  0  1  0  0  0  0  0  0  0  0  0
    3.0246    0.6069    2.6121 C   0  0  0  0  0  0  0  0  0  0  0  0
    3.4990   -0.2021    3.8804 C   0  0  0  0  0  0  0  0  0  0  0  0
    3.3336    0.1920    5.4107 C   0  0  1  0  0  0  0  0  0  0  0  0
    4.6495   -0.0445    6.1798 C   0  0  0  0  0  0  0  0  0  0  0  0
   -4.0301    5.7068    1.8854 H   0  0  0  0  0  0  0  0  0  0  0  0
   -5.0457    4.5155    2.7115 H   0  0  0  0  0  0  0  0  0  0  0  0
   -4.3937    4.1563    1.1228 H   0  0  0  0  0  0  0  0  0  0  0  0
   -3.7938    2.6000    3.7516 H   0  0  0  0  0  0  0  0  0  0  0  0
   -3.4309    2.2208    2.0763 H   0  0  0  0  0  0  0  0  0  0  0  0
   -1.6894    0.7359    1.7091 H   0  0  0  0  0  0  0  0  0  0  0  0
   -0.6655    2.1066    1.3691 H   0  0  0  0  0  0  0  0  0  0  0  0
    0.4151   -0.2705    1.7334 H   0  0  0  0  0  0  0  0  0  0  0  0
   -0.4707   -0.9051    3.8960 H   0  0  0  0  0  0  0  0  0  0  0  0
    1.1405   -0.5555    4.2147 H   0  0  0  0  0  0  0  0  0  0  0  0
   -2.2727    1.4734    5.3537 H   0  0  0  0  0  0  0  0  0  0  0  0
   -2.1870    0.2177    4.1793 H   0  0  0  0  0  0  0  0  0  0  0  0
    0.9630    3.0352    5.0151 H   0  0  0  0  0  0  0  0  0  0  0  0
   -2.2851    4.0248    5.3852 H   0  0  0  0  0  0  0  0  0  0  0  0
    0.4360    4.3927    6.5185 H   0  0  0  0  0  0  0  0  0  0  0  0
   -0.6554    4.4171    8.4063 H   0  0  0  0  0  0  0  0  0  0  0  0
   -0.2960    2.1192    8.0802 H   0  0  0  0  0  0  0  0  0  0  0  0
   -0.2814    0.1362    6.7387 H   0  0  0  0  0  0  0  0  0  0  0  0
    2.3503   -0.1191    7.9801 H   0  0  0  0  0  0  0  0  0  0  0  0
    1.1477    0.7703    8.8735 H   0  0  0  0  0  0  0  0  0  0  0  0
    2.7356    1.4953    8.5902 H   0  0  0  0  0  0  0  0  0  0  0  0
    4.4111    2.2693    4.4602 H   0  0  0  0  0  0  0  0  0  0  0  0
    2.4470    4.3453    4.1862 H   0  0  0  0  0  0  0  0  0  0  0  0
    3.3942    3.5746    2.9442 H   0  0  0  0  0  0  0  0  0  0  0  0
    1.0157    3.3636    2.4837 H   0  0  0  0  0  0  0  0  0  0  0  0
    1.7090    1.6671    1.3683 H   0  0  0  0  0  0  0  0  0  0  0  0
    3.0981   -0.0923    1.7778 H   0  0  0  0  0  0  0  0  0  0  0  0
    3.8031    1.3283    2.3819 H   0  0  0  0  0  0  0  0  0  0  0  0
    3.1107   -1.2157    3.7727 H   0  0  0  0  0  0  0  0  0  0  0  0
    4.5645   -0.3533    3.7093 H   0  0  0  0  0  0  0  0  0  0  0  0
    2.6497   -0.5581    5.8016 H   0  0  0  0  0  0  0  0  0  0  0  0
    5.4476    0.6059    5.8211 H   0  0  0  0  0  0  0  0  0  0  0  0
    4.9880   -1.0742    6.0565 H   0  0  0  0  0  0  0  0  0  0  0  0
    4.5392    0.1379    7.2475 H   0  0  0  0  0  0  0  0  0  0  0  0
  1  2  1  0
  1 29  1  0
  1 30  1  0
  1 31  1  0
  2  3  1  0
  4  3  1  6
  3 32  1  0
  3 33  1  0
  4  9  1  0
  4 11  1  0
  4  5  1  0
  5  6  1  0
  5 34  1  0
  5 35  1  0
  6 24  1  0
  6  7  1  0
  6 36  1  6
  8  7  1  6
  7 37  1  0
  7 38  1  0
  8 16  1  0
  8  9  1  0
  8 10  1  0
  9 39  1  0
  9 40  1  0
 10 23  1  0
 10 11  1  0
 10 41  1  1
 11 12  2  0
 12 13  1  0
 12 42  1  0
 13 14  1  0
 13 15  1  0
 13 43  1  6
 14 44  1  0
 15 17  1  0
 15 16  1  0
 15 45  1  1
 16 17  1  0
 16 46  1  1
 17 18  1  1
 17 19  1  0
 18 47  1  0
 18 48  1  0
 18 49  1  0
 19 21  1  0
 19 27  1  0
 19 20  1  1
 20 21  1  0
 21 22  1  0
 21 50  1  6
 22 23  1  0
 22 51  1  0
 22 52  1  0
 23 24  1  0
 23 53  1  6
 24 25  1  0
 24 54  1  6
 25 26  1  0
 25 55  1  0
 25 56  1  0
 26 27  1  0
 26 57  1  0
 26 58  1  0
 27 28  1  0
 27 59  1  1
 28 60  1  0
 28 61  1  0
 28 62  1  0
M  END
>  <i_m_ct_stereo_status>  (129) 
1

>  <s_m_source_file>  (129) 
/var/tmp/pbs.5076255.sched01/tmp276pg2sv/48_ir7zhrj.sdf

>  <i_m_source_file_index>  (129) 
8

>  <i_lp_mmshare_version>  (129) 
48012

>  <i_f3d_flags>  (129) 
0

>  <s_epik_input>  (129) 
W0NIM11PW0NIMl1bQ0BdKFtDSDJdMSkoQz0yW0NASF0zW0NAQF0xNDUpW0NIMl1bQ0BIXShbQ0gyXTQpW0NASF02W0NAQEhdM1tDSDJdW0NAQEhdN1tDQF0oTzcpKFtDQEhdKFtDSDNdKVtDSDJdW0NIMl02KVtDQEBdOChbQ0gzXSlbQ0BIXShbQ0BASF01OClbQ0BASF0oW0NIXTIpW09IXQ==

>  <s_epik_cmdline>  (129) 
J2VwaWtfcHl0aG9uJywgJy1waHQnLCAnMi4wJywgJy1waCcsICc3LjAnLCAnLXRuJywgJzgnLCAnLW1hJywgJzIwMCcsICctaW1hZScsICc8aW5maWxlLm1hZT4nLCAnLW9tYWUnLCAnPG91dGZpbGUubWFlPic=

>  <r_lp_tautomer_probability>  (129) 
1

>  <r_epik_Ionization_Penalty>  (129) 
3.39401e-07

>  <r_epik_Ionization_Penalty_Charging>  (129) 
0

>  <r_epik_Ionization_Penalty_Neutral>  (129) 
3.39401e-07

>  <r_epik_State_Penalty>  (129) 
-0

>  <r_epik_Charging_Adjusted_Penalty>  (129) 
0

>  <i_epik_Tot_Q>  (129) 
0

>  <i_epik_Tot_abs_Q>  (129) 
0

>  <s_lp_Force_Field>  (129) 
OPLS3e

>  <r_lp_Energy>  (129) 
227.14

>  <b_lp_Chiralities_Consistent>  (129) 
1

>  <s_lp_Variant>  (129) 
36:0-1

>  <s_i_glide_gridfile>  (129) 
pfpi4k_grid

>  <i_i_glide_lignum>  (129) 
8

>  <i_i_glide_rotatable_bonds>  (129) 
3

>  <r_i_docking_score>  (129) 
-2.07608

>  <r_i_glide_ligand_efficiency>  (129) 
-0.0741457

>  <r_i_glide_ligand_efficiency_sa>  (129) 
-0.22515

>  <r_i_glide_ligand_efficiency_ln>  (129) 
-0.47922

>  <r_i_glide_gscore>  (129) 
-2.07608

>  <r_i_glide_lipo>  (129) 
-0.067999

>  <r_i_glide_hbond>  (129) 
0

>  <r_i_glide_metal>  (129) 
-0

>  <r_i_glide_rewards>  (129) 
-0.800893

>  <r_i_glide_evdw>  (129) 
-19.0553

>  <r_i_glide_ecoul>  (129) 
-2.581

>  <r_i_glide_erotb>  (129) 
0.132729

>  <r_i_glide_esite>  (129) 
0

>  <r_i_glide_emodel>  (129) 
-22.2616

>  <r_i_glide_energy>  (129) 
-21.6363

>  <r_i_glide_einternal>  (129) 
3.10956

>  <r_i_glide_intrahb_reward>  (129) 
-0

>  <i_i_glide_confnum>  (129) 
1

>  <i_i_glide_posenum>  (129) 
8

>  <r_i_glide_eff_state_penalty>  (129) 
0

>  <ligand_id>  (129) 
36

>  <original_smiles>  (129) 
COCC12CC3CC4(C1)C1C2=CC(O)C2C4C2(C)C24OC2CC1C3CCC4C

>  <smiles>  (129) 
[H]OC1([H])C([H])=C2C3([H])C4([H])C([H])([H])C5([H])OC56C([H])(C([H])([H])[H])C([H])([H])C([H])([H])C4([H])C4([H])C([H])([H])C2(C([H])([H])OC([H])([H])[H])C([H])([H])C3(C4([H])[H])C2([H])C1([H])C26C([H])([H])[H]

$$$$
37:1:0
     RDKit          3D

 70 74  0  0  1  0  0  0  0  0999 V2000
    8.8029   -4.1024   -0.5371 C   0  0  0  0  0  0  0  0  0  0  0  0
    8.2369   -5.1325    0.3358 N   0  0  0  0  0  0  0  0  0  0  0  0
    8.7160   -6.5088    0.2068 C   0  0  0  0  0  0  0  0  0  0  0  0
    7.0637   -4.8437    1.0674 C   0  0  0  0  0  0  0  0  0  0  0  0
    6.5297   -3.5337    1.1358 C   0  0  0  0  0  0  0  0  0  0  0  0
    5.3755   -3.2813    1.8822 C   0  0  0  0  0  0  0  0  0  0  0  0
    4.7659   -4.3175    2.6225 C   0  0  0  0  0  0  0  0  0  0  0  0
    3.6025   -4.0793    3.5184 C   0  0  0  0  0  0  0  0  0  0  0  0
    3.1727   -2.9400    4.1124 C   0  0  0  0  0  0  0  0  0  0  0  0
    1.8750   -2.8514    4.8923 C   0  0  0  0  0  0  0  0  0  0  0  0
    1.8141   -1.4199    5.4882 C   0  0  2  0  0  0  0  0  0  0  0  0
    0.8798   -0.4861    4.6418 C   0  0  1  0  0  0  0  0  0  0  0  0
   -0.5962   -0.8069    4.9719 C   0  0  0  0  0  0  0  0  0  0  0  0
   -1.5694    0.2385    4.4908 C   0  0  0  0  0  0  0  0  0  0  0  0
   -1.2382    1.4561    4.0283 C   0  0  0  0  0  0  0  0  0  0  0  0
   -2.3004    2.4230    3.5250 C   0  0  0  0  0  0  0  0  0  0  0  0
   -2.1898    3.8014    4.1536 C   0  0  1  0  0  0  0  0  0  0  0  0
   -2.5402    3.7400    5.5208 O   0  0  0  0  0  0  0  0  0  0  0  0
   -0.7847    4.3710    3.9929 C   0  0  0  0  0  0  0  0  0  0  0  0
    0.2831    3.4046    4.5354 C   0  0  0  0  0  0  0  0  0  0  0  0
    0.2189    1.9530    3.9666 C   0  0  2  0  0  0  0  0  0  0  0  0
    0.6541    1.9567    2.4819 C   0  0  0  0  0  0  0  0  0  0  0  0
    1.1527    1.0324    4.8313 C   0  0  2  0  0  0  0  0  0  0  0  0
    2.6529    1.3361    4.6404 C   0  0  0  0  0  0  0  0  0  0  0  0
    3.4936    0.5416    5.6353 C   0  0  0  0  0  0  0  0  0  0  0  0
    3.2979   -0.9867    5.5291 C   0  0  1  0  0  0  0  0  0  0  0  0
    3.9901   -1.6298    6.7621 C   0  0  0  0  0  0  0  0  0  0  0  0
    3.8517   -1.5878    4.2292 C   0  0  1  0  0  0  0  0  0  0  0  0
    5.2539   -1.6316    4.2585 O   0  0  0  0  0  0  0  0  0  0  0  0
    5.3226   -5.6180    2.5060 C   0  0  0  0  0  0  0  0  0  0  0  0
    6.4146   -5.8271    1.7354 N   0  0  0  0  0  0  0  0  0  0  0  0
    8.0734   -3.7362   -1.2581 H   0  0  0  0  0  0  0  0  0  0  0  0
    9.6302   -4.4982   -1.1164 H   0  0  0  0  0  0  0  0  0  0  0  0
    9.1709   -3.2587    0.0455 H   0  0  0  0  0  0  0  0  0  0  0  0
    8.4865   -7.1297    1.0704 H   0  0  0  0  0  0  0  0  0  0  0  0
    9.7875   -6.4482    0.0867 H   0  0  0  0  0  0  0  0  0  0  0  0
    8.3534   -6.9925   -0.6954 H   0  0  0  0  0  0  0  0  0  0  0  0
    7.0031   -2.7061    0.6342 H   0  0  0  0  0  0  0  0  0  0  0  0
    4.9741   -2.2760    1.8869 H   0  0  0  0  0  0  0  0  0  0  0  0
    2.9515   -4.9310    3.6265 H   0  0  0  0  0  0  0  0  0  0  0  0
    1.0293   -3.0791    4.2436 H   0  0  0  0  0  0  0  0  0  0  0  0
    1.8870   -3.5984    5.6851 H   0  0  0  0  0  0  0  0  0  0  0  0
    1.4285   -1.4452    6.5140 H   0  0  0  0  0  0  0  0  0  0  0  0
    1.0440   -0.7071    3.5858 H   0  0  0  0  0  0  0  0  0  0  0  0
   -0.8776   -1.7621    4.5276 H   0  0  0  0  0  0  0  0  0  0  0  0
   -0.7355   -0.8953    6.0491 H   0  0  0  0  0  0  0  0  0  0  0  0
   -2.6051   -0.0531    4.5294 H   0  0  0  0  0  0  0  0  0  0  0  0
   -2.2137    2.5058    2.4487 H   0  0  0  0  0  0  0  0  0  0  0  0
   -3.3084    2.0788    3.7153 H   0  0  0  0  0  0  0  0  0  0  0  0
   -2.8964    4.4498    3.6368 H   0  0  0  0  0  0  0  0  0  0  0  0
   -1.9203    3.1582    5.9574 H   0  0  0  0  0  0  0  0  0  0  0  0
   -0.6090    4.5660    2.9357 H   0  0  0  0  0  0  0  0  0  0  0  0
   -0.7108    5.3351    4.5012 H   0  0  0  0  0  0  0  0  0  0  0  0
    1.2571    3.8490    4.3316 H   0  0  0  0  0  0  0  0  0  0  0  0
    0.1859    3.3740    5.6217 H   0  0  0  0  0  0  0  0  0  0  0  0
    1.6320    2.4190    2.3369 H   0  0  0  0  0  0  0  0  0  0  0  0
   -0.0443    2.5266    1.8756 H   0  0  0  0  0  0  0  0  0  0  0  0
    0.6822    0.9528    2.0568 H   0  0  0  0  0  0  0  0  0  0  0  0
    0.9242    1.2474    5.8731 H   0  0  0  0  0  0  0  0  0  0  0  0
    2.9751    1.1107    3.6232 H   0  0  0  0  0  0  0  0  0  0  0  0
    2.8575    2.3969    4.7951 H   0  0  0  0  0  0  0  0  0  0  0  0
    4.5462    0.7930    5.4979 H   0  0  0  0  0  0  0  0  0  0  0  0
    3.2341    0.8665    6.6444 H   0  0  0  0  0  0  0  0  0  0  0  0
    5.0469   -1.3644    6.8177 H   0  0  0  0  0  0  0  0  0  0  0  0
    3.9453   -2.7187    6.7385 H   0  0  0  0  0  0  0  0  0  0  0  0
    3.5330   -1.3021    7.6960 H   0  0  0  0  0  0  0  0  0  0  0  0
    3.5413   -1.0181    3.3611 H   0  0  0  0  0  0  0  0  0  0  0  0
    5.5598   -0.7227    4.2239 H   0  0  0  0  0  0  0  0  0  0  0  0
    4.9279   -6.4965    3.0071 H   0  0  0  0  0  0  0  0  0  0  0  0
    6.7797   -6.7782    1.6671 H   0  0  0  0  0  0  0  0  0  0  0  0
  1  2  1  0
  1 32  1  0
  1 33  1  0
  1 34  1  0
  2  3  1  0
  2  4  1  0
  3 35  1  0
  3 36  1  0
  3 37  1  0
  4 31  2  0
  4  5  1  0
  5  6  2  0
  5 38  1  0
  6  7  1  0
  6 39  1  0
  7  8  1  0
  7 30  2  0
  8  9  2  3
  8 40  1  0
  9 28  1  0
  9 10  1  0
 10 11  1  0
 10 41  1  0
 10 42  1  0
 11 26  1  0
 11 12  1  0
 11 43  1  1
 12 23  1  0
 12 13  1  0
 12 44  1  6
 13 14  1  0
 13 45  1  0
 13 46  1  0
 14 15  2  0
 14 47  1  0
 15 21  1  0
 15 16  1  0
 16 17  1  0
 16 48  1  0
 16 49  1  0
 17 18  1  0
 17 19  1  0
 17 50  1  6
 18 51  1  0
 19 20  1  0
 19 52  1  0
 19 53  1  0
 20 21  1  0
 20 54  1  0
 20 55  1  0
 21 22  1  6
 21 23  1  0
 22 56  1  0
 22 57  1  0
 22 58  1  0
 23 24  1  0
 23 59  1  1
 24 25  1  0
 24 60  1  0
 24 61  1  0
 25 26  1  0
 25 62  1  0
 25 63  1  0
 26 27  1  1
 26 28  1  0
 27 64  1  0
 27 65  1  0
 27 66  1  0
 28 29  1  0
 28 67  1  6
 29 68  1  0
 30 31  1  0
 30 69  1  0
 31 70  1  0
M  CHG  1  31   1
M  END
>  <i_m_ct_stereo_status>  (130) 
1

>  <s_m_source_file>  (130) 
/var/tmp/pbs.5076255.sched01/tmp276pg2sv/48_ir7zhrj.sdf

>  <i_m_source_file_index>  (130) 
10

>  <i_lp_mmshare_version>  (130) 
48012

>  <i_f3d_flags>  (130) 
0

>  <s_epik_input>  (130) 
W0NIM11OKFtDSDNdKWMxW2NIXVtjSF1jKFtjSF1uMSkvW0NIXT1DKFxbQ0gyXTIpW0NASF0oW09IXSlbQ0BAXShbQ0gzXSkoW0NIMl1bQ0gyXVtDQEhdMzQpW0NASF0yW0NASF0zW0NIMl1bQ0hdPUMoW0NAXTQ1W0NIM10pW0NIMl1bQ0BASF0oW09IXSlbQ0gyXVtDSDJdNQ==

>  <s_epik_cmdline>  (130) 
J2VwaWtfcHl0aG9uJywgJy1waHQnLCAnMi4wJywgJy1waCcsICc3LjAnLCAnLXRuJywgJzgnLCAnLW1hJywgJzIwMCcsICctaW1hZScsICc8aW5maWxlLm1hZT4nLCAnLW9tYWUnLCAnPG91dGZpbGUubWFlPic=

>  <r_epik_Ionization_Penalty>  (130) 
0.0237866

>  <r_epik_Ionization_Penalty_Charging>  (130) 
0.0237852

>  <r_epik_Ionization_Penalty_Neutral>  (130) 
1.34327e-06

>  <r_epik_State_Penalty>  (130) 
0.0192703

>  <r_epik_Charging_Adjusted_Penalty>  (130) 
0.0430555

>  <i_epik_Tot_Q>  (130) 
1

>  <i_epik_Tot_abs_Q>  (130) 
1

>  <s_lp_Force_Field>  (130) 
OPLS3e

>  <r_lp_Energy>  (130) 
56.0967

>  <b_lp_Chiralities_Consistent>  (130) 
1

>  <s_lp_Variant>  (130) 
37:0-2

>  <s_i_glide_gridfile>  (130) 
pfpi4k_grid

>  <i_i_glide_lignum>  (130) 
10

>  <i_i_glide_rotatable_bonds>  (130) 
4

>  <r_i_docking_score>  (130) 
-1.9795

>  <r_i_glide_ligand_efficiency>  (130) 
-0.0638548

>  <r_i_glide_ligand_efficiency_sa>  (130) 
-0.200592

>  <r_i_glide_ligand_efficiency_ln>  (130) 
-0.446438

>  <r_i_glide_gscore>  (130) 
-1.9795

>  <r_i_glide_lipo>  (130) 
-0.258692

>  <r_i_glide_hbond>  (130) 
0

>  <r_i_glide_metal>  (130) 
-0

>  <r_i_glide_rewards>  (130) 
-0.662166

>  <r_i_glide_evdw>  (130) 
-15.9658

>  <r_i_glide_ecoul>  (130) 
-2.47204

>  <r_i_glide_erotb>  (130) 
0.110456

>  <r_i_glide_esite>  (130) 
0

>  <r_i_glide_emodel>  (130) 
-19.5302

>  <r_i_glide_energy>  (130) 
-18.4379

>  <r_i_glide_einternal>  (130) 
0.651491

>  <r_i_glide_intrahb_reward>  (130) 
-0

>  <i_i_glide_confnum>  (130) 
1

>  <i_i_glide_posenum>  (130) 
2

>  <r_i_glide_eff_state_penalty>  (130) 
0

>  <ligand_id>  (130) 
37

>  <original_smiles>  (130) 
CN(C)c1ccc(C=C2CC3C4CC=C5CC(O)CCC5(C)C4CCC3(C)C2O)cn1

>  <smiles>  (130) 
[H]OC1([H])C(=C([H])c2c([H])c([H])c(N(C([H])([H])[H])C([H])([H])[H])[n+]([H])c2[H])C([H])([H])C2([H])C3([H])C([H])([H])C([H])=C4C([H])([H])C([H])(O[H])C([H])([H])C([H])([H])C4(C([H])([H])[H])C3([H])C([H])([H])C([H])([H])C12C([H])([H])[H]

$$$$
37:3:0
     RDKit          3D

 69 73  0  0  1  0  0  0  0  0999 V2000
   -1.7879    1.9669    7.0898 C   0  0  0  0  0  0  0  0  0  0  0  0
   -2.0974    2.1484    5.6749 N   0  0  0  0  0  0  0  0  0  0  0  0
   -3.0207    3.2034    5.2964 C   0  0  0  0  0  0  0  0  0  0  0  0
   -1.2365    1.6146    4.6947 C   0  0  0  0  0  0  0  0  0  0  0  0
   -1.1361    2.1481    3.3845 C   0  0  0  0  0  0  0  0  0  0  0  0
   -0.2219    1.5731    2.4822 C   0  0  0  0  0  0  0  0  0  0  0  0
    0.5610    0.4649    2.8918 C   0  0  0  0  0  0  0  0  0  0  0  0
    1.5563   -0.1376    1.9747 C   0  0  0  0  0  0  0  0  0  0  0  0
    2.5410   -1.0340    2.2119 C   0  0  0  0  0  0  0  0  0  0  0  0
    3.3955   -1.6706    1.1168 C   0  0  0  0  0  0  0  0  0  0  0  0
    4.4032   -2.6146    1.8264 C   0  0  2  0  0  0  0  0  0  0  0  0
    3.9389   -4.1195    1.7600 C   0  0  1  0  0  0  0  0  0  0  0  0
    4.2398   -4.6818    0.3549 C   0  0  0  0  0  0  0  0  0  0  0  0
    4.1607   -6.1877    0.2771 C   0  0  0  0  0  0  0  0  0  0  0  0
    4.0694   -7.0222    1.3271 C   0  0  0  0  0  0  0  0  0  0  0  0
    3.9453   -8.5302    1.1190 C   0  0  0  0  0  0  0  0  0  0  0  0
    4.9652   -9.3303    1.9340 C   0  0  1  0  0  0  0  0  0  0  0  0
    6.2658   -9.1076    1.4260 O   0  0  0  0  0  0  0  0  0  0  0  0
    4.9001   -8.9319    3.4141 C   0  0  0  0  0  0  0  0  0  0  0  0
    5.0543   -7.4093    3.6118 C   0  0  0  0  0  0  0  0  0  0  0  0
    4.0719   -6.5244    2.7856 C   0  0  2  0  0  0  0  0  0  0  0  0
    2.6401   -6.6745    3.3492 C   0  0  0  0  0  0  0  0  0  0  0  0
    4.5646   -5.0292    2.8489 C   0  0  2  0  0  0  0  0  0  0  0  0
    4.4010   -4.3915    4.2474 C   0  0  0  0  0  0  0  0  0  0  0  0
    5.0401   -3.0085    4.3003 C   0  0  0  0  0  0  0  0  0  0  0  0
    4.4936   -2.0153    3.2531 C   0  0  1  0  0  0  0  0  0  0  0  0
    5.4250   -0.7700    3.2293 C   0  0  0  0  0  0  0  0  0  0  0  0
    3.0404   -1.5904    3.5359 C   0  0  1  0  0  0  0  0  0  0  0  0
    2.9481   -0.6841    4.6157 O   0  0  0  0  0  0  0  0  0  0  0  0
    0.3402   -0.0355    4.1907 C   0  0  0  0  0  0  0  0  0  0  0  0
   -0.5093    0.5289    5.0718 N   0  0  0  0  0  0  0  0  0  0  0  0
   -1.6370    0.9173    7.3529 H   0  0  0  0  0  0  0  0  0  0  0  0
   -2.5995    2.3441    7.7194 H   0  0  0  0  0  0  0  0  0  0  0  0
   -0.8809    2.5157    7.3452 H   0  0  0  0  0  0  0  0  0  0  0  0
   -3.5515    2.9350    4.3787 H   0  0  0  0  0  0  0  0  0  0  0  0
   -2.4641    4.1361    5.1531 H   0  0  0  0  0  0  0  0  0  0  0  0
   -3.7670    3.3424    6.0771 H   0  0  0  0  0  0  0  0  0  0  0  0
   -1.7549    2.9816    3.0535 H   0  0  0  0  0  0  0  0  0  0  0  0
   -0.1494    1.9782    1.4796 H   0  0  0  0  0  0  0  0  0  0  0  0
    1.4207    0.1281    0.9367 H   0  0  0  0  0  0  0  0  0  0  0  0
    2.7611   -2.1868    0.3898 H   0  0  0  0  0  0  0  0  0  0  0  0
    3.9165   -0.8816    0.5749 H   0  0  0  0  0  0  0  0  0  0  0  0
    5.3878   -2.5444    1.3491 H   0  0  0  0  0  0  0  0  0  0  0  0
    2.8606   -4.1391    1.9123 H   0  0  0  0  0  0  0  0  0  0  0  0
    3.5390   -4.2695   -0.3714 H   0  0  0  0  0  0  0  0  0  0  0  0
    5.2377   -4.3990    0.0290 H   0  0  0  0  0  0  0  0  0  0  0  0
    4.1975   -6.5975   -0.7185 H   0  0  0  0  0  0  0  0  0  0  0  0
    2.9411   -8.8348    1.4110 H   0  0  0  0  0  0  0  0  0  0  0  0
    4.0489   -8.7867    0.0706 H   0  0  0  0  0  0  0  0  0  0  0  0
    4.7476  -10.3949    1.8336 H   0  0  0  0  0  0  0  0  0  0  0  0
    6.8696   -9.6383    1.9272 H   0  0  0  0  0  0  0  0  0  0  0  0
    3.9463   -9.2556    3.8219 H   0  0  0  0  0  0  0  0  0  0  0  0
    5.6672   -9.4649    3.9795 H   0  0  0  0  0  0  0  0  0  0  0  0
    4.9530   -7.1977    4.6728 H   0  0  0  0  0  0  0  0  0  0  0  0
    6.0857   -7.1486    3.3558 H   0  0  0  0  0  0  0  0  0  0  0  0
    2.5917   -6.4392    4.4116 H   0  0  0  0  0  0  0  0  0  0  0  0
    2.2622   -7.6872    3.2437 H   0  0  0  0  0  0  0  0  0  0  0  0
    1.9349   -6.0223    2.8269 H   0  0  0  0  0  0  0  0  0  0  0  0
    5.6335   -5.0394    2.6435 H   0  0  0  0  0  0  0  0  0  0  0  0
    3.3483   -4.3139    4.5241 H   0  0  0  0  0  0  0  0  0  0  0  0
    4.8756   -5.0094    5.0131 H   0  0  0  0  0  0  0  0  0  0  0  0
    4.9388   -2.5872    5.3000 H   0  0  0  0  0  0  0  0  0  0  0  0
    6.1130   -3.1349    4.1470 H   0  0  0  0  0  0  0  0  0  0  0  0
    5.5205   -0.3218    4.2189 H   0  0  0  0  0  0  0  0  0  0  0  0
    5.0557    0.0096    2.5624 H   0  0  0  0  0  0  0  0  0  0  0  0
    6.4304   -1.0219    2.8880 H   0  0  0  0  0  0  0  0  0  0  0  0
    2.4361   -2.4626    3.7552 H   0  0  0  0  0  0  0  0  0  0  0  0
    3.3460    0.1133    4.3486 H   0  0  0  0  0  0  0  0  0  0  0  0
    0.8536   -0.9111    4.5584 H   0  0  0  0  0  0  0  0  0  0  0  0
  1  2  1  0
  1 32  1  0
  1 33  1  0
  1 34  1  0
  2  3  1  0
  2  4  1  0
  3 35  1  0
  3 36  1  0
  3 37  1  0
  4 31  2  0
  4  5  1  0
  5  6  2  0
  5 38  1  0
  6  7  1  0
  6 39  1  0
  7  8  1  0
  7 30  2  0
  8  9  2  3
  8 40  1  0
  9 28  1  0
  9 10  1  0
 10 11  1  0
 10 41  1  0
 10 42  1  0
 11 26  1  0
 11 12  1  0
 11 43  1  6
 12 23  1  0
 12 13  1  0
 12 44  1  1
 13 14  1  0
 13 45  1  0
 13 46  1  0
 14 15  2  0
 14 47  1  0
 15 21  1  0
 15 16  1  0
 16 17  1  0
 16 48  1  0
 16 49  1  0
 17 18  1  0
 17 19  1  0
 17 50  1  1
 18 51  1  0
 19 20  1  0
 19 52  1  0
 19 53  1  0
 20 21  1  0
 20 54  1  0
 20 55  1  0
 21 22  1  1
 21 23  1  0
 22 56  1  0
 22 57  1  0
 22 58  1  0
 23 24  1  0
 23 59  1  6
 24 25  1  0
 24 60  1  0
 24 61  1  0
 25 26  1  0
 25 62  1  0
 25 63  1  0
 26 27  1  6
 26 28  1  0
 27 64  1  0
 27 65  1  0
 27 66  1  0
 28 29  1  0
 28 67  1  1
 29 68  1  0
 30 31  1  0
 30 69  1  0
M  END
>  <i_m_ct_stereo_status>  (131) 
1

>  <s_m_source_file>  (131) 
/var/tmp/pbs.5076255.sched01/tmp276pg2sv/48_ir7zhrj.sdf

>  <i_m_source_file_index>  (131) 
12

>  <i_lp_mmshare_version>  (131) 
48012

>  <i_f3d_flags>  (131) 
0

>  <s_epik_input>  (131) 
W0NIM11OKFtDSDNdKWMxW2NIXVtjSF1jKFtjSF1uMSkvW0NIXT1DKFxbQ0gyXTIpW0NASF0oW09IXSlbQ0BAXShbQ0gzXSkoW0NIMl1bQ0gyXVtDQEhdMzQpW0NASF0yW0NASF0zW0NIMl1bQ0hdPUMoW0NAXTQ1W0NIM10pW0NIMl1bQ0BASF0oW09IXSlbQ0gyXVtDSDJdNQ==

>  <s_epik_cmdline>  (131) 
J2VwaWtfcHl0aG9uJywgJy1waHQnLCAnMi4wJywgJy1waCcsICc3LjAnLCAnLXRuJywgJzgnLCAnLW1hJywgJzIwMCcsICctaW1hZScsICc8aW5maWxlLm1hZT4nLCAnLW9tYWUnLCAnPG91dGZpbGUubWFlPic=

>  <r_epik_Ionization_Penalty>  (131) 
1.91837

>  <r_epik_Ionization_Penalty_Charging>  (131) 
0

>  <r_epik_Ionization_Penalty_Neutral>  (131) 
1.91837

>  <r_epik_State_Penalty>  (131) 
2.03932

>  <r_epik_Charging_Adjusted_Penalty>  (131) 
2.03932

>  <i_epik_Tot_Q>  (131) 
0

>  <i_epik_Tot_abs_Q>  (131) 
0

>  <s_lp_Force_Field>  (131) 
OPLS3e

>  <r_lp_Energy>  (131) 
59.6101

>  <b_lp_Chiralities_Consistent>  (131) 
1

>  <s_lp_Variant>  (131) 
37:0-4

>  <s_i_glide_gridfile>  (131) 
pfpi4k_grid

>  <i_i_glide_lignum>  (131) 
12

>  <i_i_glide_rotatable_bonds>  (131) 
4

>  <r_i_docking_score>  (131) 
-2.26241

>  <r_i_glide_ligand_efficiency>  (131) 
-0.0729811

>  <r_i_glide_ligand_efficiency_sa>  (131) 
-0.229261

>  <r_i_glide_ligand_efficiency_ln>  (131) 
-0.510244

>  <r_i_glide_gscore>  (131) 
-2.26241

>  <r_i_glide_lipo>  (131) 
-0.430115

>  <r_i_glide_hbond>  (131) 
0

>  <r_i_glide_metal>  (131) 
-0

>  <r_i_glide_rewards>  (131) 
-0.527923

>  <r_i_glide_evdw>  (131) 
-23.303

>  <r_i_glide_ecoul>  (131) 
-1.66774

>  <r_i_glide_erotb>  (131) 
0.110933

>  <r_i_glide_esite>  (131) 
0

>  <r_i_glide_emodel>  (131) 
-26.5735

>  <r_i_glide_energy>  (131) 
-24.9707

>  <r_i_glide_einternal>  (131) 
1.35162

>  <r_i_glide_intrahb_reward>  (131) 
-0

>  <i_i_glide_confnum>  (131) 
5

>  <i_i_glide_posenum>  (131) 
20

>  <r_i_glide_eff_state_penalty>  (131) 
0

>  <ligand_id>  (131) 
37

>  <original_smiles>  (131) 
CN(C)c1ccc(C=C2CC3C4CC=C5CC(O)CCC5(C)C4CCC3(C)C2O)cn1

>  <smiles>  (131) 
[H]OC1([H])C(=C([H])c2c([H])nc(N(C([H])([H])[H])C([H])([H])[H])c([H])c2[H])C([H])([H])C2([H])C3([H])C([H])([H])C([H])=C4C([H])([H])C([H])(O[H])C([H])([H])C([H])([H])C4(C([H])([H])[H])C3([H])C([H])([H])C([H])([H])C12C([H])([H])[H]

$$$$
37:3:1
     RDKit          3D

 69 73  0  0  1  0  0  0  0  0999 V2000
   -3.4712    5.3905    2.3255 C   0  0  0  0  0  0  0  0  0  0  0  0
   -3.2835    4.0827    2.8507 N   0  0  0  0  0  0  0  0  0  0  0  0
   -4.5181    3.3623    3.2102 C   0  0  0  0  0  0  0  0  0  0  0  0
   -2.0565    3.4822    3.1467 C   0  0  0  0  0  0  0  0  0  0  0  0
   -1.9786    2.1521    2.8061 C   0  0  0  0  0  0  0  0  0  0  0  0
   -0.7695    1.4188    2.8995 C   0  0  0  0  0  0  0  0  0  0  0  0
    0.3774    2.1193    3.3310 C   0  0  0  0  0  0  0  0  0  0  0  0
    1.7012    1.4616    3.3964 C   0  0  0  0  0  0  0  0  0  0  0  0
    2.0013    0.1700    3.6777 C   0  0  0  0  0  0  0  0  0  0  0  0
    3.4155   -0.3686    3.6170 C   0  0  0  0  0  0  0  0  0  0  0  0
    3.3507   -1.8438    4.0899 C   0  0  2  0  0  0  0  0  0  0  0  0
    3.3688   -2.8364    2.8761 C   0  0  1  0  0  0  0  0  0  0  0  0
    4.8071   -2.9433    2.3194 C   0  0  0  0  0  0  0  0  0  0  0  0
    5.0241   -4.1093    1.3784 C   0  0  0  0  0  0  0  0  0  0  0  0
    4.1758   -5.1348    1.2083 C   0  0  0  0  0  0  0  0  0  0  0  0
    4.4406   -6.2248    0.1764 C   0  0  0  0  0  0  0  0  0  0  0  0
    4.2704   -7.6316    0.7650 C   0  0  1  0  0  0  0  0  0  0  0  0
    5.3086   -7.8793    1.6921 O   0  0  0  0  0  0  0  0  0  0  0  0
    2.9031   -7.7908    1.4586 C   0  0  0  0  0  0  0  0  0  0  0  0
    2.6576   -6.7020    2.5047 C   0  0  0  0  0  0  0  0  0  0  0  0
    2.8695   -5.2558    1.9837 C   0  0  2  0  0  0  0  0  0  0  0  0
    1.7842   -4.9540    0.9858 C   0  0  0  0  0  0  0  0  0  0  0  0
    2.8163   -4.2524    3.2010 C   0  0  2  0  0  0  0  0  0  0  0  0
    1.4353   -4.1350    3.8947 C   0  0  0  0  0  0  0  0  0  0  0  0
    1.5375   -3.3136    5.1826 C   0  0  0  0  0  0  0  0  0  0  0  0
    2.0705   -1.8818    4.9663 C   0  0  1  0  0  0  0  0  0  0  0  0
    2.3831   -1.2836    6.3686 C   0  0  0  0  0  0  0  0  0  0  0  0
    1.1097   -0.9647    4.1736 C   0  0  1  0  0  0  0  0  0  0  0  0
   -0.0090   -0.5634    4.9448 O   0  0  0  0  0  0  0  0  0  0  0  0
    0.2073    3.4988    3.6585 C   0  0  0  0  0  0  0  0  0  0  0  0
   -0.9751    4.1801    3.6085 N   0  0  0  0  0  0  0  0  0  0  0  0
   -2.6406    6.0432    2.5130 H   0  0  0  0  0  0  0  0  0  0  0  0
   -4.4539    5.7944    2.5497 H   0  0  0  0  0  0  0  0  0  0  0  0
   -3.5213    5.3263    1.2990 H   0  0  0  0  0  0  0  0  0  0  0  0
   -4.3912    2.9269    4.2113 H   0  0  0  0  0  0  0  0  0  0  0  0
   -4.7978    2.6526    2.4398 H   0  0  0  0  0  0  0  0  0  0  0  0
   -5.3844    4.0114    3.3112 H   0  0  0  0  0  0  0  0  0  0  0  0
   -2.9133    1.8117    2.3432 H   0  0  0  0  0  0  0  0  0  0  0  0
   -0.7316    0.3739    2.5838 H   0  0  0  0  0  0  0  0  0  0  0  0
    2.5086    2.1022    3.0762 H   0  0  0  0  0  0  0  0  0  0  0  0
    3.8241   -0.2568    2.6133 H   0  0  0  0  0  0  0  0  0  0  0  0
    4.0411    0.2207    4.2883 H   0  0  0  0  0  0  0  0  0  0  0  0
    4.2105   -2.0674    4.7233 H   0  0  0  0  0  0  0  0  0  0  0  0
    2.7379   -2.4117    2.0939 H   0  0  0  0  0  0  0  0  0  0  0  0
    5.0681   -2.0317    1.7837 H   0  0  0  0  0  0  0  0  0  0  0  0
    5.5304   -3.0507    3.1274 H   0  0  0  0  0  0  0  0  0  0  0  0
    5.9402   -4.0998    0.8108 H   0  0  0  0  0  0  0  0  0  0  0  0
    3.7484   -6.0998   -0.6540 H   0  0  0  0  0  0  0  0  0  0  0  0
    5.4292   -6.0999   -0.2622 H   0  0  0  0  0  0  0  0  0  0  0  0
    4.3726   -8.3694   -0.0304 H   0  0  0  0  0  0  0  0  0  0  0  0
    5.1872   -7.3070    2.4344 H   0  0  0  0  0  0  0  0  0  0  0  0
    2.0664   -7.7257    0.7701 H   0  0  0  0  0  0  0  0  0  0  0  0
    2.8244   -8.7823    1.9031 H   0  0  0  0  0  0  0  0  0  0  0  0
    1.6383   -6.8371    2.8742 H   0  0  0  0  0  0  0  0  0  0  0  0
    3.3187   -6.8752    3.3472 H   0  0  0  0  0  0  0  0  0  0  0  0
    0.8694   -5.1697    1.5327 H   0  0  0  0  0  0  0  0  0  0  0  0
    1.7404   -5.5555    0.0762 H   0  0  0  0  0  0  0  0  0  0  0  0
    1.8704   -3.9135    0.6725 H   0  0  0  0  0  0  0  0  0  0  0  0
    3.4943   -4.6670    3.9451 H   0  0  0  0  0  0  0  0  0  0  0  0
    0.6919   -3.6858    3.2370 H   0  0  0  0  0  0  0  0  0  0  0  0
    1.0499   -5.1191    4.1559 H   0  0  0  0  0  0  0  0  0  0  0  0
    0.5681   -3.2796    5.6823 H   0  0  0  0  0  0  0  0  0  0  0  0
    2.2043   -3.8416    5.8653 H   0  0  0  0  0  0  0  0  0  0  0  0
    1.5070   -1.2933    7.0187 H   0  0  0  0  0  0  0  0  0  0  0  0
    2.7297   -0.2510    6.3198 H   0  0  0  0  0  0  0  0  0  0  0  0
    3.1607   -1.8545    6.8762 H   0  0  0  0  0  0  0  0  0  0  0  0
    0.7425   -1.4790    3.2844 H   0  0  0  0  0  0  0  0  0  0  0  0
   -0.6113   -0.1170    4.3692 H   0  0  0  0  0  0  0  0  0  0  0  0
    1.0671    4.0938    3.9343 H   0  0  0  0  0  0  0  0  0  0  0  0
  1  2  1  0
  1 32  1  0
  1 33  1  0
  1 34  1  0
  2  3  1  0
  2  4  1  0
  3 35  1  0
  3 36  1  0
  3 37  1  0
  4 31  2  0
  4  5  1  0
  5  6  2  0
  5 38  1  0
  6  7  1  0
  6 39  1  0
  7  8  1  0
  7 30  2  0
  8  9  2  3
  8 40  1  0
  9 28  1  0
  9 10  1  0
 10 11  1  0
 10 41  1  0
 10 42  1  0
 11 26  1  0
 11 12  1  0
 11 43  1  1
 12 23  1  0
 12 13  1  0
 12 44  1  6
 13 14  1  0
 13 45  1  0
 13 46  1  0
 14 15  2  0
 14 47  1  0
 15 21  1  0
 15 16  1  0
 16 17  1  0
 16 48  1  0
 16 49  1  0
 17 18  1  0
 17 19  1  0
 17 50  1  6
 18 51  1  0
 19 20  1  0
 19 52  1  0
 19 53  1  0
 20 21  1  0
 20 54  1  0
 20 55  1  0
 21 22  1  6
 21 23  1  0
 22 56  1  0
 22 57  1  0
 22 58  1  0
 23 24  1  0
 23 59  1  1
 24 25  1  0
 24 60  1  0
 24 61  1  0
 25 26  1  0
 25 62  1  0
 25 63  1  0
 26 27  1  1
 26 28  1  0
 27 64  1  0
 27 65  1  0
 27 66  1  0
 28 29  1  0
 28 67  1  6
 29 68  1  0
 30 31  1  0
 30 69  1  0
M  END
>  <i_m_ct_stereo_status>  (132) 
1

>  <s_m_source_file>  (132) 
/var/tmp/pbs.5076255.sched01/tmp276pg2sv/48_ir7zhrj.sdf

>  <i_m_source_file_index>  (132) 
12

>  <i_lp_mmshare_version>  (132) 
48012

>  <i_f3d_flags>  (132) 
0

>  <s_epik_input>  (132) 
W0NIM11OKFtDSDNdKWMxW2NIXVtjSF1jKFtjSF1uMSkvW0NIXT1DKFxbQ0gyXTIpW0NASF0oW09IXSlbQ0BAXShbQ0gzXSkoW0NIMl1bQ0gyXVtDQEhdMzQpW0NASF0yW0NASF0zW0NIMl1bQ0hdPUMoW0NAXTQ1W0NIM10pW0NIMl1bQ0BASF0oW09IXSlbQ0gyXVtDSDJdNQ==

>  <s_epik_cmdline>  (132) 
J2VwaWtfcHl0aG9uJywgJy1waHQnLCAnMi4wJywgJy1waCcsICc3LjAnLCAnLXRuJywgJzgnLCAnLW1hJywgJzIwMCcsICctaW1hZScsICc8aW5maWxlLm1hZT4nLCAnLW9tYWUnLCAnPG91dGZpbGUubWFlPic=

>  <r_epik_Ionization_Penalty>  (132) 
1.91837

>  <r_epik_Ionization_Penalty_Charging>  (132) 
0

>  <r_epik_Ionization_Penalty_Neutral>  (132) 
1.91837

>  <r_epik_State_Penalty>  (132) 
2.03932

>  <r_epik_Charging_Adjusted_Penalty>  (132) 
2.03932

>  <i_epik_Tot_Q>  (132) 
0

>  <i_epik_Tot_abs_Q>  (132) 
0

>  <s_lp_Force_Field>  (132) 
OPLS3e

>  <r_lp_Energy>  (132) 
59.6101

>  <b_lp_Chiralities_Consistent>  (132) 
1

>  <s_lp_Variant>  (132) 
37:0-4

>  <s_i_glide_gridfile>  (132) 
pfpi4k_grid

>  <i_i_glide_lignum>  (132) 
12

>  <i_i_glide_rotatable_bonds>  (132) 
4

>  <r_i_docking_score>  (132) 
-1.19765

>  <r_i_glide_ligand_efficiency>  (132) 
-0.038634

>  <r_i_glide_ligand_efficiency_sa>  (132) 
-0.121364

>  <r_i_glide_ligand_efficiency_ln>  (132) 
-0.270107

>  <r_i_glide_gscore>  (132) 
-1.19765

>  <r_i_glide_lipo>  (132) 
-0.296875

>  <r_i_glide_hbond>  (132) 
0

>  <r_i_glide_metal>  (132) 
-0

>  <r_i_glide_rewards>  (132) 
-0.527708

>  <r_i_glide_evdw>  (132) 
-1.46482

>  <r_i_glide_ecoul>  (132) 
-2.50099

>  <r_i_glide_erotb>  (132) 
0.110933

>  <r_i_glide_esite>  (132) 
-0.0356128

>  <r_i_glide_emodel>  (132) 
-0.431272

>  <r_i_glide_energy>  (132) 
-3.96581

>  <r_i_glide_einternal>  (132) 
4.11372

>  <r_i_glide_intrahb_reward>  (132) 
-0

>  <i_i_glide_confnum>  (132) 
2

>  <i_i_glide_posenum>  (132) 
21

>  <r_i_glide_eff_state_penalty>  (132) 
0

>  <ligand_id>  (132) 
37

>  <original_smiles>  (132) 
CN(C)c1ccc(C=C2CC3C4CC=C5CC(O)CCC5(C)C4CCC3(C)C2O)cn1

>  <smiles>  (132) 
[H]OC1([H])C(=C([H])c2c([H])nc(N(C([H])([H])[H])C([H])([H])[H])c([H])c2[H])C([H])([H])C2([H])C3([H])C([H])([H])C([H])=C4C([H])([H])C([H])(O[H])C([H])([H])C([H])([H])C4(C([H])([H])[H])C3([H])C([H])([H])C([H])([H])C12C([H])([H])[H]

$$$$
38:0:0
     RDKit          3D

 51 54  0  0  1  0  0  0  0  0999 V2000
    4.9696   -2.8897   -3.3066 C   0  0  0  0  0  0  0  0  0  0  0  0
    4.2750   -2.8283   -1.9605 C   0  0  0  0  0  0  0  0  0  0  0  0
    3.1068   -3.3860   -1.6762 C   0  0  0  0  0  0  0  0  0  0  0  0
    2.7436   -3.2020   -0.2399 C   0  0  1  0  0  0  0  0  0  0  0  0
    3.0227   -4.4137    0.4624 O   0  0  0  0  0  0  0  0  0  0  0  0
    4.2964   -4.6848    1.0706 C   0  0  2  0  0  0  0  0  0  0  0  0
    4.1353   -6.2200    1.2121 C   0  0  0  0  0  0  0  0  0  0  0  0
    4.2641   -4.0747    2.4855 C   0  0  0  0  0  0  0  0  0  0  0  0
    3.4097   -2.8058    2.6401 C   0  0  0  0  0  0  0  0  0  0  0  0
    3.6795   -1.6286    1.6747 C   0  0  1  0  0  0  0  0  0  0  0  0
    4.8405   -0.6921    2.0894 C   0  0  1  0  0  0  0  0  0  0  0  0
    4.5484    0.0578    3.4061 C   0  0  0  0  0  0  0  0  0  0  0  0
    6.2016   -1.3985    2.1835 C   0  0  0  0  0  0  0  0  0  0  0  0
    6.8115   -2.0293    0.9179 C   0  0  0  0  0  0  0  0  0  0  0  0
    5.9559   -2.8551   -0.0959 C   0  0  1  0  0  0  0  0  0  0  0  0
    5.6136   -4.3589    0.2424 C   0  0  1  0  0  0  0  0  0  0  0  0
    6.8663   -5.1209    0.7801 C   0  0  0  0  0  0  0  0  0  0  0  0
    8.0632   -4.8019    0.0942 O   0  0  0  0  0  0  0  0  0  0  0  0
    4.8257   -2.0562   -0.7696 C   0  0  1  0  0  0  0  0  0  0  0  0
    5.2989   -0.6931   -1.2978 C   0  0  0  0  0  0  0  0  0  0  0  0
    3.5790   -1.9646    0.1545 C   0  0  1  0  0  0  0  0  0  0  0  0
    5.9915   -3.2472   -3.1842 H   0  0  0  0  0  0  0  0  0  0  0  0
    4.9912   -1.9097   -3.7852 H   0  0  0  0  0  0  0  0  0  0  0  0
    4.4503   -3.5802   -3.9737 H   0  0  0  0  0  0  0  0  0  0  0  0
    2.4882   -3.9449   -2.3600 H   0  0  0  0  0  0  0  0  0  0  0  0
    1.6846   -2.9996   -0.1775 H   0  0  0  0  0  0  0  0  0  0  0  0
    4.8921   -6.6647    1.8591 H   0  0  0  0  0  0  0  0  0  0  0  0
    4.1769   -6.7191    0.2426 H   0  0  0  0  0  0  0  0  0  0  0  0
    3.1674   -6.4718    1.6539 H   0  0  0  0  0  0  0  0  0  0  0  0
    3.8219   -4.7959    3.1742 H   0  0  0  0  0  0  0  0  0  0  0  0
    5.2707   -3.9521    2.8655 H   0  0  0  0  0  0  0  0  0  0  0  0
    2.3613   -3.0898    2.5305 H   0  0  0  0  0  0  0  0  0  0  0  0
    3.4797   -2.4678    3.6722 H   0  0  0  0  0  0  0  0  0  0  0  0
    2.7960   -1.0062    1.8258 H   0  0  0  0  0  0  0  0  0  0  0  0
    4.8998    0.1078    1.3593 H   0  0  0  0  0  0  0  0  0  0  0  0
    4.5361   -0.6088    4.2675 H   0  0  0  0  0  0  0  0  0  0  0  0
    3.5902    0.5748    3.3610 H   0  0  0  0  0  0  0  0  0  0  0  0
    5.3095    0.8121    3.6078 H   0  0  0  0  0  0  0  0  0  0  0  0
    6.9193   -0.6578    2.5226 H   0  0  0  0  0  0  0  0  0  0  0  0
    6.1796   -2.1153    2.9966 H   0  0  0  0  0  0  0  0  0  0  0  0
    7.3046   -1.2272    0.3725 H   0  0  0  0  0  0  0  0  0  0  0  0
    7.6427   -2.6311    1.2621 H   0  0  0  0  0  0  0  0  0  0  0  0
    6.6587   -2.9645   -0.9223 H   0  0  0  0  0  0  0  0  0  0  0  0
    5.4343   -4.8357   -0.7231 H   0  0  0  0  0  0  0  0  0  0  0  0
    7.0089   -4.9379    1.8467 H   0  0  0  0  0  0  0  0  0  0  0  0
    6.7432   -6.1985    0.6577 H   0  0  0  0  0  0  0  0  0  0  0  0
    8.2376   -3.8817    0.2127 H   0  0  0  0  0  0  0  0  0  0  0  0
    5.6869   -0.0578   -0.5135 H   0  0  0  0  0  0  0  0  0  0  0  0
    4.5069   -0.1523   -1.8148 H   0  0  0  0  0  0  0  0  0  0  0  0
    6.1044   -0.8387   -2.0064 H   0  0  0  0  0  0  0  0  0  0  0  0
    3.0169   -1.1224   -0.2558 H   0  0  0  0  0  0  0  0  0  0  0  0
  1  2  1  0
  1 22  1  0
  1 23  1  0
  1 24  1  0
  2 19  1  0
  2  3  2  0
  3  4  1  0
  3 25  1  0
  4 21  1  0
  4  5  1  0
  4 26  1  6
  5  6  1  0
  6 16  1  0
  6  7  1  1
  6  8  1  0
  7 27  1  0
  7 28  1  0
  7 29  1  0
  8  9  1  0
  8 30  1  0
  8 31  1  0
  9 10  1  0
  9 32  1  0
  9 33  1  0
 10 21  1  0
 10 11  1  0
 10 34  1  1
 11 12  1  0
 11 13  1  0
 11 35  1  6
 12 36  1  0
 12 37  1  0
 12 38  1  0
 13 14  1  0
 13 39  1  0
 13 40  1  0
 14 15  1  0
 14 41  1  0
 14 42  1  0
 15 16  1  0
 15 19  1  0
 15 43  1  6
 16 17  1  0
 16 44  1  6
 17 18  1  0
 17 45  1  0
 17 46  1  0
 18 47  1  0
 19 20  1  6
 19 21  1  0
 20 48  1  0
 20 49  1  0
 20 50  1  0
 21 51  1  6
M  END
>  <i_m_ct_stereo_status>  (133) 
1

>  <s_m_source_file>  (133) 
/var/tmp/pbs.5076255.sched01/tmp276pg2sv/48_ir7zhrj.sdf

>  <i_m_source_file_index>  (133) 
13

>  <i_lp_mmshare_version>  (133) 
48012

>  <i_f3d_flags>  (133) 
0

>  <s_epik_input>  (133) 
W0NIM11DKD1bQ0hdMSlbQ0BdMihbQ0gzXSlbQ0BIXShbQ0BIXTNbQ0gyXVtPSF0pW0NIMl1bQ0gyXVtDQEhdKFtDSDNdKVtDSF0oW0NIMl1bQ0gyXTQpW0NAQEhdMltDQEBIXTFPW0NAQF0zNFtDSDNd

>  <s_epik_cmdline>  (133) 
J2VwaWtfcHl0aG9uJywgJy1waHQnLCAnMi4wJywgJy1waCcsICc3LjAnLCAnLXRuJywgJzgnLCAnLW1hJywgJzIwMCcsICctaW1hZScsICc8aW5maWxlLm1hZT4nLCAnLW9tYWUnLCAnPG91dGZpbGUubWFlPic=

>  <r_lp_tautomer_probability>  (133) 
1

>  <r_epik_Ionization_Penalty>  (133) 
6.02713e-07

>  <r_epik_Ionization_Penalty_Charging>  (133) 
0

>  <r_epik_Ionization_Penalty_Neutral>  (133) 
6.02713e-07

>  <r_epik_State_Penalty>  (133) 
-0

>  <r_epik_Charging_Adjusted_Penalty>  (133) 
0

>  <i_epik_Tot_Q>  (133) 
0

>  <i_epik_Tot_abs_Q>  (133) 
0

>  <s_lp_Force_Field>  (133) 
OPLS3e

>  <r_lp_Energy>  (133) 
53.9073

>  <b_lp_Chiralities_Consistent>  (133) 
1

>  <s_lp_Variant>  (133) 
38:0-1

>  <s_i_glide_gridfile>  (133) 
pfpi4k_grid

>  <i_i_glide_lignum>  (133) 
13

>  <i_i_glide_rotatable_bonds>  (133) 
2

>  <r_i_docking_score>  (133) 
-3.09405

>  <r_i_glide_ligand_efficiency>  (133) 
-0.147336

>  <r_i_glide_ligand_efficiency_sa>  (133) 
-0.406488

>  <r_i_glide_ligand_efficiency_ln>  (133) 
-0.764997

>  <r_i_glide_gscore>  (133) 
-3.09405

>  <r_i_glide_lipo>  (133) 
-0.912196

>  <r_i_glide_hbond>  (133) 
0

>  <r_i_glide_metal>  (133) 
-0

>  <r_i_glide_rewards>  (133) 
-1.42882

>  <r_i_glide_evdw>  (133) 
-16.3629

>  <r_i_glide_ecoul>  (133) 
-1.00625

>  <r_i_glide_erotb>  (133) 
0.21605

>  <r_i_glide_esite>  (133) 
0

>  <r_i_glide_emodel>  (133) 
-19.7324

>  <r_i_glide_energy>  (133) 
-17.3692

>  <r_i_glide_einternal>  (133) 
1.41695

>  <r_i_glide_intrahb_reward>  (133) 
-0

>  <i_i_glide_confnum>  (133) 
1

>  <i_i_glide_posenum>  (133) 
2

>  <r_i_glide_eff_state_penalty>  (133) 
0

>  <ligand_id>  (133) 
38

>  <original_smiles>  (133) 
CC1=CC2OC3(C)CCC4C(C)CCC(C3CO)C1(C)C24

>  <smiles>  (133) 
[H]OC([H])([H])C1([H])C2([H])C([H])([H])C([H])([H])C([H])(C([H])([H])[H])C3([H])C([H])([H])C([H])([H])C1(C([H])([H])[H])OC1([H])C([H])=C(C([H])([H])[H])C2(C([H])([H])[H])C13[H]

$$$$
38:0:1
     RDKit          3D

 51 54  0  0  1  0  0  0  0  0999 V2000
    5.0030   -3.1296   -3.1173 C   0  0  0  0  0  0  0  0  0  0  0  0
    4.1987   -2.9791   -1.8438 C   0  0  0  0  0  0  0  0  0  0  0  0
    2.9696   -3.4466   -1.6556 C   0  0  0  0  0  0  0  0  0  0  0  0
    2.4999   -3.2147   -0.2658 C   0  0  1  0  0  0  0  0  0  0  0  0
    2.6144   -4.4312    0.4672 O   0  0  0  0  0  0  0  0  0  0  0  0
    3.7927   -4.7848    1.2041 C   0  0  2  0  0  0  0  0  0  0  0  0
    3.4868   -6.2959    1.3507 C   0  0  0  0  0  0  0  0  0  0  0  0
    3.6778   -4.1418    2.6001 C   0  0  0  0  0  0  0  0  0  0  0  0
    2.9164   -2.8073    2.6571 C   0  0  0  0  0  0  0  0  0  0  0  0
    3.3716   -1.6757    1.7087 C   0  0  1  0  0  0  0  0  0  0  0  0
    4.5624   -0.8325    2.2182 C   0  0  1  0  0  0  0  0  0  0  0  0
    4.2134   -0.0263    3.4857 C   0  0  0  0  0  0  0  0  0  0  0  0
    5.8418   -1.6498    2.4543 C   0  0  0  0  0  0  0  0  0  0  0  0
    6.5135   -2.3540    1.2542 C   0  0  0  0  0  0  0  0  0  0  0  0
    5.6940   -3.1187    0.1702 C   0  0  1  0  0  0  0  0  0  0  0  0
    5.1974   -4.5857    0.4936 C   0  0  1  0  0  0  0  0  0  0  0  0
    6.3305   -5.4288    1.1562 C   0  0  0  0  0  0  0  0  0  0  0  0
    7.5828   -5.3064    0.5016 O   0  0  0  0  0  0  0  0  0  0  0  0
    4.7080   -2.2332   -0.6157 C   0  0  1  0  0  0  0  0  0  0  0  0
    5.3383   -0.9098   -1.1205 C   0  0  0  0  0  0  0  0  0  0  0  0
    3.3958   -2.0337    0.1905 C   0  0  1  0  0  0  0  0  0  0  0  0
    5.9793   -3.5649   -2.8963 H   0  0  0  0  0  0  0  0  0  0  0  0
    5.1402   -2.1603   -3.5963 H   0  0  0  0  0  0  0  0  0  0  0  0
    4.4901   -3.7890   -3.8206 H   0  0  0  0  0  0  0  0  0  0  0  0
    2.3730   -3.9686   -2.3825 H   0  0  0  0  0  0  0  0  0  0  0  0
    1.4460   -2.9795   -0.3198 H   0  0  0  0  0  0  0  0  0  0  0  0
    4.1357   -6.7877    2.0755 H   0  0  0  0  0  0  0  0  0  0  0  0
    3.5833   -6.8117    0.3941 H   0  0  0  0  0  0  0  0  0  0  0  0
    2.4628   -6.4547    1.6962 H   0  0  0  0  0  0  0  0  0  0  0  0
    3.1165   -4.8112    3.2511 H   0  0  0  0  0  0  0  0  0  0  0  0
    4.6541   -4.0926    3.0680 H   0  0  0  0  0  0  0  0  0  0  0  0
    1.8634   -3.0075    2.4535 H   0  0  0  0  0  0  0  0  0  0  0  0
    2.9192   -2.4542    3.6874 H   0  0  0  0  0  0  0  0  0  0  0  0
    2.5315   -0.9809    1.7653 H   0  0  0  0  0  0  0  0  0  0  0  0
    4.7595   -0.0599    1.4832 H   0  0  0  0  0  0  0  0  0  0  0  0
    4.0733   -0.6676    4.3551 H   0  0  0  0  0  0  0  0  0  0  0  0
    3.3054    0.5612    3.3474 H   0  0  0  0  0  0  0  0  0  0  0  0
    5.0125    0.6742    3.7296 H   0  0  0  0  0  0  0  0  0  0  0  0
    6.5866   -0.9529    2.8395 H   0  0  0  0  0  0  0  0  0  0  0  0
    5.6991   -2.3371    3.2825 H   0  0  0  0  0  0  0  0  0  0  0  0
    7.1176   -1.6013    0.7460 H   0  0  0  0  0  0  0  0  0  0  0  0
    7.2587   -3.0292    1.6636 H   0  0  0  0  0  0  0  0  0  0  0  0
    6.4630   -3.2963   -0.5807 H   0  0  0  0  0  0  0  0  0  0  0  0
    5.0660   -5.0612   -0.4795 H   0  0  0  0  0  0  0  0  0  0  0  0
    6.4500   -5.1635    2.2084 H   0  0  0  0  0  0  0  0  0  0  0  0
    6.0895   -6.4927    1.1188 H   0  0  0  0  0  0  0  0  0  0  0  0
    8.2037   -5.8635    0.9445 H   0  0  0  0  0  0  0  0  0  0  0  0
    5.6959   -0.2550   -0.3340 H   0  0  0  0  0  0  0  0  0  0  0  0
    4.6348   -0.3275   -1.7164 H   0  0  0  0  0  0  0  0  0  0  0  0
    6.2000   -1.1188   -1.7472 H   0  0  0  0  0  0  0  0  0  0  0  0
    2.9663   -1.1505   -0.2802 H   0  0  0  0  0  0  0  0  0  0  0  0
  1  2  1  0
  1 22  1  0
  1 23  1  0
  1 24  1  0
  2 19  1  0
  2  3  2  0
  3  4  1  0
  3 25  1  0
  4 21  1  0
  4  5  1  0
  4 26  1  6
  5  6  1  0
  6 16  1  0
  6  7  1  1
  6  8  1  0
  7 27  1  0
  7 28  1  0
  7 29  1  0
  8  9  1  0
  8 30  1  0
  8 31  1  0
  9 10  1  0
  9 32  1  0
  9 33  1  0
 10 21  1  0
 10 11  1  0
 10 34  1  6
 11 12  1  0
 11 13  1  0
 11 35  1  6
 12 36  1  0
 12 37  1  0
 12 38  1  0
 13 14  1  0
 13 39  1  0
 13 40  1  0
 14 15  1  0
 14 41  1  0
 14 42  1  0
 15 16  1  0
 15 19  1  0
 15 43  1  6
 16 17  1  0
 16 44  1  6
 17 18  1  0
 17 45  1  0
 17 46  1  0
 18 47  1  0
 19 20  1  6
 19 21  1  0
 20 48  1  0
 20 49  1  0
 20 50  1  0
 21 51  1  6
M  END
>  <i_m_ct_stereo_status>  (134) 
1

>  <s_m_source_file>  (134) 
/var/tmp/pbs.5076255.sched01/tmp276pg2sv/48_ir7zhrj.sdf

>  <i_m_source_file_index>  (134) 
13

>  <i_lp_mmshare_version>  (134) 
48012

>  <i_f3d_flags>  (134) 
0

>  <s_epik_input>  (134) 
W0NIM11DKD1bQ0hdMSlbQ0BdMihbQ0gzXSlbQ0BIXShbQ0BIXTNbQ0gyXVtPSF0pW0NIMl1bQ0gyXVtDQEhdKFtDSDNdKVtDSF0oW0NIMl1bQ0gyXTQpW0NAQEhdMltDQEBIXTFPW0NAQF0zNFtDSDNd

>  <s_epik_cmdline>  (134) 
J2VwaWtfcHl0aG9uJywgJy1waHQnLCAnMi4wJywgJy1waCcsICc3LjAnLCAnLXRuJywgJzgnLCAnLW1hJywgJzIwMCcsICctaW1hZScsICc8aW5maWxlLm1hZT4nLCAnLW9tYWUnLCAnPG91dGZpbGUubWFlPic=

>  <r_lp_tautomer_probability>  (134) 
1

>  <r_epik_Ionization_Penalty>  (134) 
6.02713e-07

>  <r_epik_Ionization_Penalty_Charging>  (134) 
0

>  <r_epik_Ionization_Penalty_Neutral>  (134) 
6.02713e-07

>  <r_epik_State_Penalty>  (134) 
-0

>  <r_epik_Charging_Adjusted_Penalty>  (134) 
0

>  <i_epik_Tot_Q>  (134) 
0

>  <i_epik_Tot_abs_Q>  (134) 
0

>  <s_lp_Force_Field>  (134) 
OPLS3e

>  <r_lp_Energy>  (134) 
53.9073

>  <b_lp_Chiralities_Consistent>  (134) 
1

>  <s_lp_Variant>  (134) 
38:0-1

>  <s_i_glide_gridfile>  (134) 
pfpi4k_grid

>  <i_i_glide_lignum>  (134) 
13

>  <i_i_glide_rotatable_bonds>  (134) 
2

>  <r_i_docking_score>  (134) 
-3.08418

>  <r_i_glide_ligand_efficiency>  (134) 
-0.146866

>  <r_i_glide_ligand_efficiency_sa>  (134) 
-0.405191

>  <r_i_glide_ligand_efficiency_ln>  (134) 
-0.762556

>  <r_i_glide_gscore>  (134) 
-3.08418

>  <r_i_glide_lipo>  (134) 
-0.844762

>  <r_i_glide_hbond>  (134) 
0

>  <r_i_glide_metal>  (134) 
-0

>  <r_i_glide_rewards>  (134) 
-1.42882

>  <r_i_glide_evdw>  (134) 
-17.1728

>  <r_i_glide_ecoul>  (134) 
-1.12004

>  <r_i_glide_erotb>  (134) 
0.21605

>  <r_i_glide_esite>  (134) 
0

>  <r_i_glide_emodel>  (134) 
-21.033

>  <r_i_glide_energy>  (134) 
-18.2929

>  <r_i_glide_einternal>  (134) 
0.902007

>  <r_i_glide_intrahb_reward>  (134) 
-0

>  <i_i_glide_confnum>  (134) 
1

>  <i_i_glide_posenum>  (134) 
38

>  <r_i_glide_eff_state_penalty>  (134) 
0

>  <ligand_id>  (134) 
38

>  <original_smiles>  (134) 
CC1=CC2OC3(C)CCC4C(C)CCC(C3CO)C1(C)C24

>  <smiles>  (134) 
[H]OC([H])([H])C1([H])C2([H])C([H])([H])C([H])([H])C([H])(C([H])([H])[H])C3([H])C([H])([H])C([H])([H])C1(C([H])([H])[H])OC1([H])C([H])=C(C([H])([H])[H])C2(C([H])([H])[H])C13[H]

$$$$
38:0:2
     RDKit          3D

 51 54  0  0  1  0  0  0  0  0999 V2000
    5.4186   -0.4271    2.9102 C   0  0  0  0  0  0  0  0  0  0  0  0
    5.5898   -1.1380    1.5814 C   0  0  0  0  0  0  0  0  0  0  0  0
    6.7477   -1.4432    1.0063 C   0  0  0  0  0  0  0  0  0  0  0  0
    6.5610   -2.2382   -0.2387 C   0  0  1  0  0  0  0  0  0  0  0  0
    6.7600   -3.6176    0.0810 O   0  0  0  0  0  0  0  0  0  0  0  0
    5.6952   -4.5030    0.4831 C   0  0  2  0  0  0  0  0  0  0  0  0
    6.5732   -5.6337    1.0802 C   0  0  0  0  0  0  0  0  0  0  0  0
    5.0018   -5.0128   -0.7934 C   0  0  0  0  0  0  0  0  0  0  0  0
    5.0670   -4.0678   -2.0017 C   0  0  0  0  0  0  0  0  0  0  0  0
    4.4856   -2.6550   -1.8017 C   0  0  1  0  0  0  0  0  0  0  0  0
    2.9475   -2.5653   -1.9087 C   0  0  1  0  0  0  0  0  0  0  0  0
    2.4464   -2.8831   -3.3317 C   0  0  0  0  0  0  0  0  0  0  0  0
    2.1798   -3.4175   -0.8759 C   0  0  0  0  0  0  0  0  0  0  0  0
    2.3357   -3.0864    0.6349 C   0  0  0  0  0  0  0  0  0  0  0  0
    3.7222   -2.7937    1.2705 C   0  0  1  0  0  0  0  0  0  0  0  0
    4.6894   -3.9956    1.5915 C   0  0  1  0  0  0  0  0  0  0  0  0
    3.9508   -5.1202    2.3834 C   0  0  0  0  0  0  0  0  0  0  0  0
    3.1620   -5.9804    1.5800 O   0  0  0  0  0  0  0  0  0  0  0  0
    4.4143   -1.5363    0.7043 C   0  0  1  0  0  0  0  0  0  0  0  0
    3.4818   -0.3031    0.6535 C   0  0  0  0  0  0  0  0  0  0  0  0
    5.1313   -1.8331   -0.6508 C   0  0  1  0  0  0  0  0  0  0  0  0
    4.7742   -0.9964    3.5736 H   0  0  0  0  0  0  0  0  0  0  0  0
    4.9565    0.5347    2.7546 H   0  0  0  0  0  0  0  0  0  0  0  0
    6.3806   -0.2695    3.3931 H   0  0  0  0  0  0  0  0  0  0  0  0
    7.7346   -1.1936    1.3747 H   0  0  0  0  0  0  0  0  0  0  0  0
    7.3010   -1.9224   -0.9720 H   0  0  0  0  0  0  0  0  0  0  0  0
    6.0025   -6.5393    1.2923 H   0  0  0  0  0  0  0  0  0  0  0  0
    7.0545   -5.3178    2.0092 H   0  0  0  0  0  0  0  0  0  0  0  0
    7.3738   -5.9181    0.3947 H   0  0  0  0  0  0  0  0  0  0  0  0
    5.4451   -5.9413   -1.1028 H   0  0  0  0  0  0  0  0  0  0  0  0
    4.0021   -5.3487   -0.5896 H   0  0  0  0  0  0  0  0  0  0  0  0
    6.1073   -3.9498   -2.3164 H   0  0  0  0  0  0  0  0  0  0  0  0
    4.6022   -4.5571   -2.8524 H   0  0  0  0  0  0  0  0  0  0  0  0
    4.8319   -2.1338   -2.6967 H   0  0  0  0  0  0  0  0  0  0  0  0
    2.6737   -1.5225   -1.7714 H   0  0  0  0  0  0  0  0  0  0  0  0
    2.5707   -3.9341   -3.5813 H   0  0  0  0  0  0  0  0  0  0  0  0
    2.9622   -2.2865   -4.0813 H   0  0  0  0  0  0  0  0  0  0  0  0
    1.3848   -2.6614   -3.4196 H   0  0  0  0  0  0  0  0  0  0  0  0
    1.1284   -3.2958   -1.1285 H   0  0  0  0  0  0  0  0  0  0  0  0
    2.3068   -4.4709   -1.0778 H   0  0  0  0  0  0  0  0  0  0  0  0
    1.7139   -2.2212    0.8549 H   0  0  0  0  0  0  0  0  0  0  0  0
    1.8384   -3.8556    1.2158 H   0  0  0  0  0  0  0  0  0  0  0  0
    3.4289   -2.4751    2.2725 H   0  0  0  0  0  0  0  0  0  0  0  0
    5.3559   -3.6100    2.3647 H   0  0  0  0  0  0  0  0  0  0  0  0
    4.6562   -5.7292    2.9533 H   0  0  0  0  0  0  0  0  0  0  0  0
    3.2951   -4.6631    3.1261 H   0  0  0  0  0  0  0  0  0  0  0  0
    2.8218   -5.4789    0.8564 H   0  0  0  0  0  0  0  0  0  0  0  0
    2.6272   -0.4116    0.0005 H   0  0  0  0  0  0  0  0  0  0  0  0
    4.0464    0.5681    0.3349 H   0  0  0  0  0  0  0  0  0  0  0  0
    3.0552   -0.0622    1.6241 H   0  0  0  0  0  0  0  0  0  0  0  0
    5.2635   -0.8458   -1.0969 H   0  0  0  0  0  0  0  0  0  0  0  0
  1  2  1  0
  1 22  1  0
  1 23  1  0
  1 24  1  0
  2 19  1  0
  2  3  2  0
  3  4  1  0
  3 25  1  0
  4 21  1  0
  4  5  1  0
  4 26  1  6
  5  6  1  0
  6 16  1  0
  6  7  1  1
  6  8  1  0
  7 27  1  0
  7 28  1  0
  7 29  1  0
  8  9  1  0
  8 30  1  0
  8 31  1  0
  9 10  1  0
  9 32  1  0
  9 33  1  0
 10 21  1  0
 10 11  1  0
 10 34  1  6
 11 12  1  0
 11 13  1  0
 11 35  1  1
 12 36  1  0
 12 37  1  0
 12 38  1  0
 13 14  1  0
 13 39  1  0
 13 40  1  0
 14 15  1  0
 14 41  1  0
 14 42  1  0
 15 16  1  0
 15 19  1  0
 15 43  1  1
 16 17  1  0
 16 44  1  1
 17 18  1  0
 17 45  1  0
 17 46  1  0
 18 47  1  0
 19 20  1  6
 19 21  1  0
 20 48  1  0
 20 49  1  0
 20 50  1  0
 21 51  1  6
M  END
>  <i_m_ct_stereo_status>  (135) 
1

>  <s_m_source_file>  (135) 
/var/tmp/pbs.5076255.sched01/tmp276pg2sv/48_ir7zhrj.sdf

>  <i_m_source_file_index>  (135) 
13

>  <i_lp_mmshare_version>  (135) 
48012

>  <i_f3d_flags>  (135) 
0

>  <s_epik_input>  (135) 
W0NIM11DKD1bQ0hdMSlbQ0BdMihbQ0gzXSlbQ0BIXShbQ0BIXTNbQ0gyXVtPSF0pW0NIMl1bQ0gyXVtDQEhdKFtDSDNdKVtDSF0oW0NIMl1bQ0gyXTQpW0NAQEhdMltDQEBIXTFPW0NAQF0zNFtDSDNd

>  <s_epik_cmdline>  (135) 
J2VwaWtfcHl0aG9uJywgJy1waHQnLCAnMi4wJywgJy1waCcsICc3LjAnLCAnLXRuJywgJzgnLCAnLW1hJywgJzIwMCcsICctaW1hZScsICc8aW5maWxlLm1hZT4nLCAnLW9tYWUnLCAnPG91dGZpbGUubWFlPic=

>  <r_lp_tautomer_probability>  (135) 
1

>  <r_epik_Ionization_Penalty>  (135) 
6.02713e-07

>  <r_epik_Ionization_Penalty_Charging>  (135) 
0

>  <r_epik_Ionization_Penalty_Neutral>  (135) 
6.02713e-07

>  <r_epik_State_Penalty>  (135) 
-0

>  <r_epik_Charging_Adjusted_Penalty>  (135) 
0

>  <i_epik_Tot_Q>  (135) 
0

>  <i_epik_Tot_abs_Q>  (135) 
0

>  <s_lp_Force_Field>  (135) 
OPLS3e

>  <r_lp_Energy>  (135) 
53.9073

>  <b_lp_Chiralities_Consistent>  (135) 
1

>  <s_lp_Variant>  (135) 
38:0-1

>  <s_i_glide_gridfile>  (135) 
pfpi4k_grid

>  <i_i_glide_lignum>  (135) 
13

>  <i_i_glide_rotatable_bonds>  (135) 
2

>  <r_i_docking_score>  (135) 
-2.80967

>  <r_i_glide_ligand_efficiency>  (135) 
-0.133794

>  <r_i_glide_ligand_efficiency_sa>  (135) 
-0.369126

>  <r_i_glide_ligand_efficiency_ln>  (135) 
-0.694684

>  <r_i_glide_gscore>  (135) 
-2.80967

>  <r_i_glide_lipo>  (135) 
-0.647845

>  <r_i_glide_hbond>  (135) 
0

>  <r_i_glide_metal>  (135) 
-0

>  <r_i_glide_rewards>  (135) 
-1.42882

>  <r_i_glide_evdw>  (135) 
-17.585

>  <r_i_glide_ecoul>  (135) 
-0.465349

>  <r_i_glide_erotb>  (135) 
0.21605

>  <r_i_glide_esite>  (135) 
0

>  <r_i_glide_emodel>  (135) 
-19.62

>  <r_i_glide_energy>  (135) 
-18.0504

>  <r_i_glide_einternal>  (135) 
2.01563

>  <r_i_glide_intrahb_reward>  (135) 
-0

>  <i_i_glide_confnum>  (135) 
5

>  <i_i_glide_posenum>  (135) 
11

>  <r_i_glide_eff_state_penalty>  (135) 
0

>  <ligand_id>  (135) 
38

>  <original_smiles>  (135) 
CC1=CC2OC3(C)CCC4C(C)CCC(C3CO)C1(C)C24

>  <smiles>  (135) 
[H]OC([H])([H])C1([H])C2([H])C([H])([H])C([H])([H])C([H])(C([H])([H])[H])C3([H])C([H])([H])C([H])([H])C1(C([H])([H])[H])OC1([H])C([H])=C(C([H])([H])[H])C2(C([H])([H])[H])C13[H]

$$$$
39:0:0
     RDKit          3D

 39 42  0  0  1  0  0  0  0  0999 V2000
    6.8203   -3.4455   -2.2396 O   0  0  0  0  0  0  0  0  0  0  0  0
    5.5732   -2.9426   -1.8724 C   0  0  2  0  0  0  0  0  0  0  0  0
    4.5925   -3.0552   -3.0716 C   0  0  0  0  0  0  0  0  0  0  0  0
    3.2420   -2.4539   -2.6835 C   0  0  2  0  0  0  0  0  0  0  0  0
    3.4696   -0.9817   -2.3379 C   0  0  0  0  0  0  0  0  0  0  0  0
    4.4157   -0.8859   -1.1040 C   0  0  2  0  0  0  0  0  0  0  0  0
    5.7804   -1.4768   -1.4609 C   0  0  0  0  0  0  0  0  0  0  0  0
    3.8609   -1.5809    0.1482 C   0  0  1  0  0  0  0  0  0  0  0  0
    2.6519   -0.8678    0.6523 N   0  0  0  0  0  0  0  0  0  0  0  0
    2.2451   -1.2034    2.0353 C   0  0  0  0  0  0  0  0  0  0  0  0
    1.1420   -0.2393    2.3858 C   0  0  0  0  0  0  0  0  0  0  0  0
    0.2613   -0.5020    3.3492 N   0  0  0  0  0  0  0  0  0  0  0  0
   -0.6410    0.5359    3.5504 C   0  0  0  0  0  0  0  0  0  0  0  0
   -0.4217    1.6033    2.7315 C   0  0  0  0  0  0  0  0  0  0  0  0
    0.9319    1.3599    1.6840 S   0  0  0  0  0  0  0  0  0  0  0  0
    3.6479   -3.0700   -0.2276 C   0  0  1  0  0  0  0  0  0  0  0  0
    2.6967   -3.1855   -1.4371 C   0  0  0  0  0  0  0  0  0  0  0  0
    5.0021   -3.6917   -0.6455 C   0  0  0  0  0  0  0  0  0  0  0  0
    7.1286   -3.0779   -3.0488 H   0  0  0  0  0  0  0  0  0  0  0  0
    4.9790   -2.5043   -3.9282 H   0  0  0  0  0  0  0  0  0  0  0  0
    4.4474   -4.0970   -3.3635 H   0  0  0  0  0  0  0  0  0  0  0  0
    2.5157   -2.5119   -3.4988 H   0  0  0  0  0  0  0  0  0  0  0  0
    3.8679   -0.4152   -3.1846 H   0  0  0  0  0  0  0  0  0  0  0  0
    2.5060   -0.5169   -2.1580 H   0  0  0  0  0  0  0  0  0  0  0  0
    4.6091    0.1441   -0.8277 H   0  0  0  0  0  0  0  0  0  0  0  0
    6.4584   -1.4062   -0.6016 H   0  0  0  0  0  0  0  0  0  0  0  0
    6.1833   -0.8777   -2.2771 H   0  0  0  0  0  0  0  0  0  0  0  0
    4.6378   -1.4758    0.9127 H   0  0  0  0  0  0  0  0  0  0  0  0
    2.7556    0.1372    0.5932 H   0  0  0  0  0  0  0  0  0  0  0  0
    1.8877   -2.2301    2.0983 H   0  0  0  0  0  0  0  0  0  0  0  0
    3.0764   -1.0703    2.7278 H   0  0  0  0  0  0  0  0  0  0  0  0
   -1.4257    0.4321    4.2906 H   0  0  0  0  0  0  0  0  0  0  0  0
   -0.9750    2.5330    2.6755 H   0  0  0  0  0  0  0  0  0  0  0  0
    3.2566   -3.6039    0.6323 H   0  0  0  0  0  0  0  0  0  0  0  0
    1.7556   -2.7346   -1.1784 H   0  0  0  0  0  0  0  0  0  0  0  0
    2.4714   -4.2245   -1.6540 H   0  0  0  0  0  0  0  0  0  0  0  0
    4.8637   -4.7434   -0.8873 H   0  0  0  0  0  0  0  0  0  0  0  0
    5.7132   -3.6284    0.1737 H   0  0  0  0  0  0  0  0  0  0  0  0
    1.8428   -1.0370    0.0169 H   0  0  0  0  0  0  0  0  0  0  0  0
  2  1  1  6
  1 19  1  0
  2  7  1  0
  2 18  1  0
  2  3  1  0
  3  4  1  0
  3 20  1  0
  3 21  1  0
  4 17  1  0
  4  5  1  0
  4 22  1  6
  5  6  1  0
  5 23  1  0
  5 24  1  0
  6  7  1  0
  6  8  1  0
  6 25  1  1
  7 26  1  0
  7 27  1  0
  8  9  1  0
  8 16  1  0
  8 28  1  1
  9 10  1  0
  9 29  1  0
  9 39  1  0
 10 11  1  0
 10 30  1  0
 10 31  1  0
 11 15  1  0
 11 12  2  0
 12 13  1  0
 13 14  2  0
 13 32  1  0
 14 15  1  0
 14 33  1  0
 16 17  1  0
 16 18  1  0
 16 34  1  1
 17 35  1  0
 17 36  1  0
 18 37  1  0
 18 38  1  0
M  CHG  1   9   1
M  END
>  <i_m_ct_stereo_status>  (136) 
1

>  <s_m_source_file>  (136) 
/var/tmp/pbs.5076255.sched01/tmp276pg2sv/48_ir7zhrj.sdf

>  <i_m_source_file_index>  (136) 
14

>  <i_lp_mmshare_version>  (136) 
48012

>  <i_f3d_flags>  (136) 
0

>  <s_epik_input>  (136) 
W09IXVtDQF0xMltDSDJdW0NAQEhdM1tDSDJdW0NASF0oW0NIMl0xKVtDQEhdKFtDQEBIXShbQ0gyXTMpW0NIMl0yKVtOSF1bQ0gyXWM0bltjSF1bY0hdczQ=

>  <s_epik_cmdline>  (136) 
J2VwaWtfcHl0aG9uJywgJy1waHQnLCAnMi4wJywgJy1waCcsICc3LjAnLCAnLXRuJywgJzgnLCAnLW1hJywgJzIwMCcsICctaW1hZScsICc8aW5maWxlLm1hZT4nLCAnLW9tYWUnLCAnPG91dGZpbGUubWFlPic=

>  <r_epik_Ionization_Penalty>  (136) 
0.0113363

>  <r_epik_Ionization_Penalty_Charging>  (136) 
0.0113358

>  <r_epik_Ionization_Penalty_Neutral>  (136) 
5.15119e-07

>  <r_epik_State_Penalty>  (136) 
0.00871834

>  <r_epik_Charging_Adjusted_Penalty>  (136) 
0.0200541

>  <i_epik_Tot_Q>  (136) 
1

>  <i_epik_Tot_abs_Q>  (136) 
1

>  <s_lp_Force_Field>  (136) 
OPLS3e

>  <r_lp_Energy>  (136) 
-10.6375

>  <b_lp_Chiralities_Consistent>  (136) 
1

>  <s_lp_Variant>  (136) 
39:0-1

>  <s_i_glide_gridfile>  (136) 
pfpi4k_grid

>  <i_i_glide_lignum>  (136) 
14

>  <i_i_glide_rotatable_bonds>  (136) 
4

>  <r_i_docking_score>  (136) 
-3.89042

>  <r_i_glide_ligand_efficiency>  (136) 
-0.216134

>  <r_i_glide_ligand_efficiency_sa>  (136) 
-0.566432

>  <r_i_glide_ligand_efficiency_ln>  (136) 
-1.00001

>  <r_i_glide_gscore>  (136) 
-3.89042

>  <r_i_glide_lipo>  (136) 
-0.295182

>  <r_i_glide_hbond>  (136) 
-0.43049

>  <r_i_glide_metal>  (136) 
-0

>  <r_i_glide_rewards>  (136) 
-1.59958

>  <r_i_glide_evdw>  (136) 
-15.7271

>  <r_i_glide_ecoul>  (136) 
-9.83239

>  <r_i_glide_erotb>  (136) 
0.757933

>  <r_i_glide_esite>  (136) 
-0.0618901

>  <r_i_glide_emodel>  (136) 
-33.7951

>  <r_i_glide_energy>  (136) 
-25.5595

>  <r_i_glide_einternal>  (136) 
1.19646

>  <r_i_glide_intrahb_reward>  (136) 
-0

>  <i_i_glide_confnum>  (136) 
2

>  <i_i_glide_posenum>  (136) 
2

>  <r_i_glide_eff_state_penalty>  (136) 
0

>  <ligand_id>  (136) 
39

>  <original_smiles>  (136) 
OC12CC3CC(C1)C(NCc1nccs1)C(C3)C2

>  <smiles>  (136) 
[H]OC12C([H])([H])C3([H])C([H])([H])C([H])(C1([H])[H])C([H])([N+]([H])([H])C([H])([H])c1nc([H])c([H])s1)C([H])(C3([H])[H])C2([H])[H]

$$$$
39:0:1
     RDKit          3D

 39 42  0  0  1  0  0  0  0  0999 V2000
   -0.0068    3.4122    4.1491 O   0  0  0  0  0  0  0  0  0  0  0  0
    0.6315    2.2056    3.7892 C   0  0  2  0  0  0  0  0  0  0  0  0
    0.6621    1.2405    4.9945 C   0  0  0  0  0  0  0  0  0  0  0  0
    1.3436   -0.0822    4.5805 C   0  0  2  0  0  0  0  0  0  0  0  0
    2.7865    0.2127    4.1376 C   0  0  0  0  0  0  0  0  0  0  0  0
    2.7572    1.1733    2.9299 C   0  0  2  0  0  0  0  0  0  0  0  0
    2.0724    2.5022    3.3293 C   0  0  0  0  0  0  0  0  0  0  0  0
    1.9826    0.5392    1.7460 C   0  0  1  0  0  0  0  0  0  0  0  0
    2.6307   -0.6864    1.2031 N   0  0  0  0  0  0  0  0  0  0  0  0
    4.0503   -0.5240    0.8358 C   0  0  0  0  0  0  0  0  0  0  0  0
    4.3673   -1.6307   -0.1075 C   0  0  0  0  0  0  0  0  0  0  0  0
    5.3492   -1.4868   -1.0163 N   0  0  0  0  0  0  0  0  0  0  0  0
    5.5277   -2.6423   -1.7766 C   0  0  0  0  0  0  0  0  0  0  0  0
    4.6785   -3.6605   -1.4461 C   0  0  0  0  0  0  0  0  0  0  0  0
    3.6067   -3.2312   -0.1472 S   0  0  0  0  0  0  0  0  0  0  0  0
    0.5410    0.2444    2.2110 C   0  0  1  0  0  0  0  0  0  0  0  0
    0.5596   -0.7236    3.4184 C   0  0  0  0  0  0  0  0  0  0  0  0
   -0.1582    1.5573    2.6347 C   0  0  0  0  0  0  0  0  0  0  0  0
    0.0326    3.9934    3.4068 H   0  0  0  0  0  0  0  0  0  0  0  0
    1.2140    1.6856    5.8235 H   0  0  0  0  0  0  0  0  0  0  0  0
   -0.3509    1.0461    5.3484 H   0  0  0  0  0  0  0  0  0  0  0  0
    1.3591   -0.7719    5.4238 H   0  0  0  0  0  0  0  0  0  0  0  0
    3.3575    0.6587    4.9533 H   0  0  0  0  0  0  0  0  0  0  0  0
    3.2986   -0.7171    3.8870 H   0  0  0  0  0  0  0  0  0  0  0  0
    3.7827    1.3992    2.6577 H   0  0  0  0  0  0  0  0  0  0  0  0
    2.0753    3.2001    2.4890 H   0  0  0  0  0  0  0  0  0  0  0  0
    2.6419    2.9823    4.1255 H   0  0  0  0  0  0  0  0  0  0  0  0
    1.9343    1.2421    0.9195 H   0  0  0  0  0  0  0  0  0  0  0  0
    2.5873   -1.4104    1.8983 H   0  0  0  0  0  0  0  0  0  0  0  0
    4.2494    0.4239    0.3520 H   0  0  0  0  0  0  0  0  0  0  0  0
    4.7067   -0.5859    1.6977 H   0  0  0  0  0  0  0  0  0  0  0  0
    6.2892   -2.6456   -2.5405 H   0  0  0  0  0  0  0  0  0  0  0  0
    4.6322   -4.6326   -1.9075 H   0  0  0  0  0  0  0  0  0  0  0  0
   -0.0280   -0.1761    1.3811 H   0  0  0  0  0  0  0  0  0  0  0  0
    1.0033   -1.6822    3.1432 H   0  0  0  0  0  0  0  0  0  0  0  0
   -0.4624   -0.9397    3.7341 H   0  0  0  0  0  0  0  0  0  0  0  0
   -1.1867    1.3549    2.9434 H   0  0  0  0  0  0  0  0  0  0  0  0
   -0.2217    2.2259    1.7755 H   0  0  0  0  0  0  0  0  0  0  0  0
    2.1010   -0.9804    0.3844 H   0  0  0  0  0  0  0  0  0  0  0  0
  2  1  1  1
  1 19  1  0
  2  7  1  0
  2 18  1  0
  2  3  1  0
  3  4  1  0
  3 20  1  0
  3 21  1  0
  4 17  1  0
  4  5  1  0
  4 22  1  1
  5  6  1  0
  5 23  1  0
  5 24  1  0
  6  7  1  0
  6  8  1  0
  6 25  1  6
  7 26  1  0
  7 27  1  0
  8  9  1  0
  8 16  1  0
  8 28  1  6
  9 10  1  0
  9 29  1  0
  9 39  1  0
 10 11  1  0
 10 30  1  0
 10 31  1  0
 11 15  1  0
 11 12  2  0
 12 13  1  0
 13 14  2  0
 13 32  1  0
 14 15  1  0
 14 33  1  0
 16 17  1  0
 16 18  1  0
 16 34  1  6
 17 35  1  0
 17 36  1  0
 18 37  1  0
 18 38  1  0
M  CHG  1   9   1
M  END
>  <i_m_ct_stereo_status>  (137) 
1

>  <s_m_source_file>  (137) 
/var/tmp/pbs.5076255.sched01/tmp276pg2sv/48_ir7zhrj.sdf

>  <i_m_source_file_index>  (137) 
14

>  <i_lp_mmshare_version>  (137) 
48012

>  <i_f3d_flags>  (137) 
0

>  <s_epik_input>  (137) 
W09IXVtDQF0xMltDSDJdW0NAQEhdM1tDSDJdW0NASF0oW0NIMl0xKVtDQEhdKFtDQEBIXShbQ0gyXTMpW0NIMl0yKVtOSF1bQ0gyXWM0bltjSF1bY0hdczQ=

>  <s_epik_cmdline>  (137) 
J2VwaWtfcHl0aG9uJywgJy1waHQnLCAnMi4wJywgJy1waCcsICc3LjAnLCAnLXRuJywgJzgnLCAnLW1hJywgJzIwMCcsICctaW1hZScsICc8aW5maWxlLm1hZT4nLCAnLW9tYWUnLCAnPG91dGZpbGUubWFlPic=

>  <r_epik_Ionization_Penalty>  (137) 
0.0113363

>  <r_epik_Ionization_Penalty_Charging>  (137) 
0.0113358

>  <r_epik_Ionization_Penalty_Neutral>  (137) 
5.15119e-07

>  <r_epik_State_Penalty>  (137) 
0.00871834

>  <r_epik_Charging_Adjusted_Penalty>  (137) 
0.0200541

>  <i_epik_Tot_Q>  (137) 
1

>  <i_epik_Tot_abs_Q>  (137) 
1

>  <s_lp_Force_Field>  (137) 
OPLS3e

>  <r_lp_Energy>  (137) 
-10.6375

>  <b_lp_Chiralities_Consistent>  (137) 
1

>  <s_lp_Variant>  (137) 
39:0-1

>  <s_i_glide_gridfile>  (137) 
pfpi4k_grid

>  <i_i_glide_lignum>  (137) 
14

>  <i_i_glide_rotatable_bonds>  (137) 
4

>  <r_i_docking_score>  (137) 
-3.49896

>  <r_i_glide_ligand_efficiency>  (137) 
-0.194386

>  <r_i_glide_ligand_efficiency_sa>  (137) 
-0.509437

>  <r_i_glide_ligand_efficiency_ln>  (137) 
-0.899389

>  <r_i_glide_gscore>  (137) 
-3.49896

>  <r_i_glide_lipo>  (137) 
-0.0873418

>  <r_i_glide_hbond>  (137) 
-0.2

>  <r_i_glide_metal>  (137) 
-0

>  <r_i_glide_rewards>  (137) 
-1.59958

>  <r_i_glide_evdw>  (137) 
-21.107

>  <r_i_glide_ecoul>  (137) 
-8.31717

>  <r_i_glide_erotb>  (137) 
0.757933

>  <r_i_glide_esite>  (137) 
-0.0670436

>  <r_i_glide_emodel>  (137) 
-36.1944

>  <r_i_glide_energy>  (137) 
-29.4242

>  <r_i_glide_einternal>  (137) 
2.42367

>  <r_i_glide_intrahb_reward>  (137) 
-0

>  <i_i_glide_confnum>  (137) 
5

>  <i_i_glide_posenum>  (137) 
26

>  <r_i_glide_eff_state_penalty>  (137) 
0

>  <ligand_id>  (137) 
39

>  <original_smiles>  (137) 
OC12CC3CC(C1)C(NCc1nccs1)C(C3)C2

>  <smiles>  (137) 
[H]OC12C([H])([H])C3([H])C([H])([H])C([H])(C1([H])[H])C([H])([N+]([H])([H])C([H])([H])c1nc([H])c([H])s1)C([H])(C3([H])[H])C2([H])[H]

$$$$
39:0:2
     RDKit          3D

 39 42  0  0  1  0  0  0  0  0999 V2000
    5.4085   -6.5167    4.6050 O   0  0  0  0  0  0  0  0  0  0  0  0
    4.8733   -6.1661    3.3496 C   0  0  2  0  0  0  0  0  0  0  0  0
    3.9433   -7.2908    2.8525 C   0  0  0  0  0  0  0  0  0  0  0  0
    3.3532   -6.8927    1.4856 C   0  0  2  0  0  0  0  0  0  0  0  0
    4.5058   -6.7002    0.4806 C   0  0  0  0  0  0  0  0  0  0  0  0
    5.4363   -5.5621    0.9636 C   0  0  2  0  0  0  0  0  0  0  0  0
    6.0241   -5.9507    2.3446 C   0  0  0  0  0  0  0  0  0  0  0  0
    4.6343   -4.2422    1.0961 C   0  0  1  0  0  0  0  0  0  0  0  0
    4.1411   -3.7669   -0.2293 N   0  0  0  0  0  0  0  0  0  0  0  0
    3.5417   -2.4232   -0.2227 C   0  0  0  0  0  0  0  0  0  0  0  0
    3.5959   -1.9915   -1.6430 C   0  0  0  0  0  0  0  0  0  0  0  0
    4.3362   -0.9364   -2.0242 N   0  0  0  0  0  0  0  0  0  0  0  0
    4.0899   -0.6003   -3.3504 C   0  0  0  0  0  0  0  0  0  0  0  0
    3.2989   -1.4844   -4.0155 C   0  0  0  0  0  0  0  0  0  0  0  0
    2.6954   -2.7312   -2.9724 S   0  0  0  0  0  0  0  0  0  0  0  0
    3.4809   -4.4582    2.1173 C   0  0  1  0  0  0  0  0  0  0  0  0
    2.5452   -5.5868    1.6226 C   0  0  0  0  0  0  0  0  0  0  0  0
    4.0690   -4.8595    3.4930 C   0  0  0  0  0  0  0  0  0  0  0  0
    5.9149   -7.3065    4.5110 H   0  0  0  0  0  0  0  0  0  0  0  0
    4.4922   -8.2278    2.7536 H   0  0  0  0  0  0  0  0  0  0  0  0
    3.1431   -7.4705    3.5714 H   0  0  0  0  0  0  0  0  0  0  0  0
    2.6965   -7.6892    1.1385 H   0  0  0  0  0  0  0  0  0  0  0  0
    5.0617   -7.6330    0.3838 H   0  0  0  0  0  0  0  0  0  0  0  0
    4.1185   -6.4821   -0.5161 H   0  0  0  0  0  0  0  0  0  0  0  0
    6.2624   -5.4295    0.2599 H   0  0  0  0  0  0  0  0  0  0  0  0
    6.7036   -5.1745    2.7037 H   0  0  0  0  0  0  0  0  0  0  0  0
    6.6212   -6.8589    2.2450 H   0  0  0  0  0  0  0  0  0  0  0  0
    5.3141   -3.4826    1.4832 H   0  0  0  0  0  0  0  0  0  0  0  0
    4.8941   -3.7616   -0.8974 H   0  0  0  0  0  0  0  0  0  0  0  0
    2.5176   -2.4161    0.1425 H   0  0  0  0  0  0  0  0  0  0  0  0
    4.1090   -1.7252    0.3800 H   0  0  0  0  0  0  0  0  0  0  0  0
    4.5307    0.3003   -3.7490 H   0  0  0  0  0  0  0  0  0  0  0  0
    3.0050   -1.4282   -5.0472 H   0  0  0  0  0  0  0  0  0  0  0  0
    2.9075   -3.5406    2.2642 H   0  0  0  0  0  0  0  0  0  0  0  0
    2.0994   -5.3300    0.6616 H   0  0  0  0  0  0  0  0  0  0  0  0
    1.7179   -5.7276    2.3199 H   0  0  0  0  0  0  0  0  0  0  0  0
    3.2652   -4.9909    4.2195 H   0  0  0  0  0  0  0  0  0  0  0  0
    4.7044   -4.0628    3.8840 H   0  0  0  0  0  0  0  0  0  0  0  0
    3.4458   -4.4080   -0.5786 H   0  0  0  0  0  0  0  0  0  0  0  0
  2  1  1  1
  1 19  1  0
  2  7  1  0
  2 18  1  0
  2  3  1  0
  3  4  1  0
  3 20  1  0
  3 21  1  0
  4 17  1  0
  4  5  1  0
  4 22  1  6
  5  6  1  0
  5 23  1  0
  5 24  1  0
  6  7  1  0
  6  8  1  0
  6 25  1  6
  7 26  1  0
  7 27  1  0
  8  9  1  0
  8 16  1  0
  8 28  1  1
  9 10  1  0
  9 29  1  0
  9 39  1  0
 10 11  1  0
 10 30  1  0
 10 31  1  0
 11 15  1  0
 11 12  2  0
 12 13  1  0
 13 14  2  0
 13 32  1  0
 14 15  1  0
 14 33  1  0
 16 17  1  0
 16 18  1  0
 16 34  1  1
 17 35  1  0
 17 36  1  0
 18 37  1  0
 18 38  1  0
M  CHG  1   9   1
M  END
>  <i_m_ct_stereo_status>  (138) 
1

>  <s_m_source_file>  (138) 
/var/tmp/pbs.5076255.sched01/tmp276pg2sv/48_ir7zhrj.sdf

>  <i_m_source_file_index>  (138) 
14

>  <i_lp_mmshare_version>  (138) 
48012

>  <i_f3d_flags>  (138) 
0

>  <s_epik_input>  (138) 
W09IXVtDQF0xMltDSDJdW0NAQEhdM1tDSDJdW0NASF0oW0NIMl0xKVtDQEhdKFtDQEBIXShbQ0gyXTMpW0NIMl0yKVtOSF1bQ0gyXWM0bltjSF1bY0hdczQ=

>  <s_epik_cmdline>  (138) 
J2VwaWtfcHl0aG9uJywgJy1waHQnLCAnMi4wJywgJy1waCcsICc3LjAnLCAnLXRuJywgJzgnLCAnLW1hJywgJzIwMCcsICctaW1hZScsICc8aW5maWxlLm1hZT4nLCAnLW9tYWUnLCAnPG91dGZpbGUubWFlPic=

>  <r_epik_Ionization_Penalty>  (138) 
0.0113363

>  <r_epik_Ionization_Penalty_Charging>  (138) 
0.0113358

>  <r_epik_Ionization_Penalty_Neutral>  (138) 
5.15119e-07

>  <r_epik_State_Penalty>  (138) 
0.00871834

>  <r_epik_Charging_Adjusted_Penalty>  (138) 
0.0200541

>  <i_epik_Tot_Q>  (138) 
1

>  <i_epik_Tot_abs_Q>  (138) 
1

>  <s_lp_Force_Field>  (138) 
OPLS3e

>  <r_lp_Energy>  (138) 
-10.6375

>  <b_lp_Chiralities_Consistent>  (138) 
1

>  <s_lp_Variant>  (138) 
39:0-1

>  <s_i_glide_gridfile>  (138) 
pfpi4k_grid

>  <i_i_glide_lignum>  (138) 
14

>  <i_i_glide_rotatable_bonds>  (138) 
4

>  <r_i_docking_score>  (138) 
-3.15496

>  <r_i_glide_ligand_efficiency>  (138) 
-0.175275

>  <r_i_glide_ligand_efficiency_sa>  (138) 
-0.459351

>  <r_i_glide_ligand_efficiency_ln>  (138) 
-0.810965

>  <r_i_glide_gscore>  (138) 
-3.15496

>  <r_i_glide_lipo>  (138) 
-0.651253

>  <r_i_glide_hbond>  (138) 
0

>  <r_i_glide_metal>  (138) 
-0

>  <r_i_glide_rewards>  (138) 
-1.59958

>  <r_i_glide_evdw>  (138) 
-22.0752

>  <r_i_glide_ecoul>  (138) 
-3.72199

>  <r_i_glide_erotb>  (138) 
0.757933

>  <r_i_glide_esite>  (138) 
0

>  <r_i_glide_emodel>  (138) 
-32.3342

>  <r_i_glide_energy>  (138) 
-25.7972

>  <r_i_glide_einternal>  (138) 
1.16582

>  <r_i_glide_intrahb_reward>  (138) 
-0

>  <i_i_glide_confnum>  (138) 
6

>  <i_i_glide_posenum>  (138) 
40

>  <r_i_glide_eff_state_penalty>  (138) 
0

>  <ligand_id>  (138) 
39

>  <original_smiles>  (138) 
OC12CC3CC(C1)C(NCc1nccs1)C(C3)C2

>  <smiles>  (138) 
[H]OC12C([H])([H])C3([H])C([H])([H])C([H])(C1([H])[H])C([H])([N+]([H])([H])C([H])([H])c1nc([H])c([H])s1)C([H])(C3([H])[H])C2([H])[H]

$$$$
39:1:0
     RDKit          3D

 38 41  0  0  1  0  0  0  0  0999 V2000
   -6.0024  -13.6264   -7.7199 O   0  0  0  0  0  0  0  0  0  0  0  0
   -6.8940  -12.5398   -7.8807 C   0  0  2  0  0  0  0  0  0  0  0  0
   -8.1339  -13.0092   -8.6693 C   0  0  0  0  0  0  0  0  0  0  0  0
   -9.1141  -11.8298   -8.8243 C   0  0  2  0  0  0  0  0  0  0  0  0
   -8.4164  -10.6935   -9.6028 C   0  0  0  0  0  0  0  0  0  0  0  0
   -7.1732  -10.2155   -8.8184 C   0  0  2  0  0  0  0  0  0  0  0  0
   -6.1921  -11.3982   -8.6458 C   0  0  0  0  0  0  0  0  0  0  0  0
   -7.5958   -9.7035   -7.4221 C   0  0  1  0  0  0  0  0  0  0  0  0
   -8.4712   -8.5359   -7.5152 N   0  0  0  0  0  0  0  0  0  0  0  0
   -7.7871   -7.2796   -7.7865 C   0  0  0  0  0  0  0  0  0  0  0  0
   -7.2233   -6.6508   -6.5544 C   0  0  0  0  0  0  0  0  0  0  0  0
   -6.2294   -7.1857   -5.8413 N   0  0  0  0  0  0  0  0  0  0  0  0
   -5.8922   -6.4037   -4.7340 C   0  0  0  0  0  0  0  0  0  0  0  0
   -6.6170   -5.2413   -4.6364 C   0  0  0  0  0  0  0  0  0  0  0  0
   -7.7886   -5.1037   -5.9168 S   0  0  0  0  0  0  0  0  0  0  0  0
   -8.3019  -10.8461   -6.6507 C   0  0  1  0  0  0  0  0  0  0  0  0
   -9.5466  -11.3265   -7.4306 C   0  0  0  0  0  0  0  0  0  0  0  0
   -7.3183  -12.0303   -6.4906 C   0  0  0  0  0  0  0  0  0  0  0  0
   -5.2597  -13.3330   -7.2240 H   0  0  0  0  0  0  0  0  0  0  0  0
   -7.8413  -13.3732   -9.6558 H   0  0  0  0  0  0  0  0  0  0  0  0
   -8.6197  -13.8405   -8.1555 H   0  0  0  0  0  0  0  0  0  0  0  0
   -9.9972  -12.1525   -9.3730 H   0  0  0  0  0  0  0  0  0  0  0  0
   -8.1259  -11.0327  -10.5977 H   0  0  0  0  0  0  0  0  0  0  0  0
   -9.1108   -9.8675   -9.7576 H   0  0  0  0  0  0  0  0  0  0  0  0
   -6.6651   -9.4294   -9.3773 H   0  0  0  0  0  0  0  0  0  0  0  0
   -5.2993  -11.0678   -8.1122 H   0  0  0  0  0  0  0  0  0  0  0  0
   -5.8577  -11.7519   -9.6208 H   0  0  0  0  0  0  0  0  0  0  0  0
   -6.7030   -9.4501   -6.8551 H   0  0  0  0  0  0  0  0  0  0  0  0
   -8.9659   -8.4326   -6.6412 H   0  0  0  0  0  0  0  0  0  0  0  0
   -6.9962   -7.4041   -8.5208 H   0  0  0  0  0  0  0  0  0  0  0  0
   -8.5105   -6.5987   -8.2369 H   0  0  0  0  0  0  0  0  0  0  0  0
   -5.1234   -6.7480   -4.0591 H   0  0  0  0  0  0  0  0  0  0  0  0
   -6.5569   -4.4649   -3.8939 H   0  0  0  0  0  0  0  0  0  0  0  0
   -8.5913  -10.5001   -5.6565 H   0  0  0  0  0  0  0  0  0  0  0  0
  -10.2673  -10.5138   -7.5353 H   0  0  0  0  0  0  0  0  0  0  0  0
  -10.0603  -12.1138   -6.8750 H   0  0  0  0  0  0  0  0  0  0  0  0
   -7.7853  -12.8375   -5.9257 H   0  0  0  0  0  0  0  0  0  0  0  0
   -6.4409  -11.7217   -5.9185 H   0  0  0  0  0  0  0  0  0  0  0  0
  2  1  1  1
  1 19  1  0
  2  7  1  0
  2 18  1  0
  2  3  1  0
  3  4  1  0
  3 20  1  0
  3 21  1  0
  4 17  1  0
  4  5  1  0
  4 22  1  6
  5  6  1  0
  5 23  1  0
  5 24  1  0
  6  7  1  0
  6  8  1  0
  6 25  1  6
  7 26  1  0
  7 27  1  0
  8  9  1  0
  8 16  1  0
  8 28  1  1
  9 10  1  0
  9 29  1  0
 10 11  1  0
 10 30  1  0
 10 31  1  0
 11 15  1  0
 11 12  2  0
 12 13  1  0
 13 14  2  0
 13 32  1  0
 14 15  1  0
 14 33  1  0
 16 17  1  0
 16 18  1  0
 16 34  1  1
 17 35  1  0
 17 36  1  0
 18 37  1  0
 18 38  1  0
M  END
>  <i_m_ct_stereo_status>  (139) 
1

>  <s_m_source_file>  (139) 
/var/tmp/pbs.5076255.sched01/tmp276pg2sv/48_ir7zhrj.sdf

>  <i_m_source_file_index>  (139) 
15

>  <i_lp_mmshare_version>  (139) 
48012

>  <i_f3d_flags>  (139) 
0

>  <s_epik_input>  (139) 
W09IXVtDQF0xMltDSDJdW0NAQEhdM1tDSDJdW0NASF0oW0NIMl0xKVtDQEhdKFtDQEBIXShbQ0gyXTMpW0NIMl0yKVtOSF1bQ0gyXWM0bltjSF1bY0hdczQ=

>  <s_epik_cmdline>  (139) 
J2VwaWtfcHl0aG9uJywgJy1waHQnLCAnMi4wJywgJy1waCcsICc3LjAnLCAnLXRuJywgJzgnLCAnLW1hJywgJzIwMCcsICctaW1hZScsICc8aW5maWxlLm1hZT4nLCAnLW9tYWUnLCAnPG91dGZpbGUubWFlPic=

>  <r_epik_Ionization_Penalty>  (139) 
2.34982

>  <r_epik_Ionization_Penalty_Charging>  (139) 
0

>  <r_epik_Ionization_Penalty_Neutral>  (139) 
2.34982

>  <r_epik_State_Penalty>  (139) 
2.50399

>  <r_epik_Charging_Adjusted_Penalty>  (139) 
2.50399

>  <i_epik_Tot_Q>  (139) 
0

>  <i_epik_Tot_abs_Q>  (139) 
0

>  <s_lp_Force_Field>  (139) 
OPLS3e

>  <r_lp_Energy>  (139) 
-2.74686

>  <b_lp_Chiralities_Consistent>  (139) 
1

>  <s_lp_Variant>  (139) 
39:0-2

>  <s_i_glide_gridfile>  (139) 
pfpi4k_grid

>  <i_i_glide_lignum>  (139) 
15

>  <i_i_glide_rotatable_bonds>  (139) 
4

>  <r_i_docking_score>  (139) 
-4.51147

>  <r_i_glide_ligand_efficiency>  (139) 
-0.250637

>  <r_i_glide_ligand_efficiency_sa>  (139) 
-0.656855

>  <r_i_glide_ligand_efficiency_ln>  (139) 
-1.15965

>  <r_i_glide_gscore>  (139) 
-4.51147

>  <r_i_glide_lipo>  (139) 
-2.02932

>  <r_i_glide_hbond>  (139) 
0

>  <r_i_glide_metal>  (139) 
-0

>  <r_i_glide_rewards>  (139) 
-1.80645

>  <r_i_glide_evdw>  (139) 
-27.6133

>  <r_i_glide_ecoul>  (139) 
-0.386437

>  <r_i_glide_erotb>  (139) 
0.762927

>  <r_i_glide_esite>  (139) 
0

>  <r_i_glide_emodel>  (139) 
-36.0954

>  <r_i_glide_energy>  (139) 
-27.9997

>  <r_i_glide_einternal>  (139) 
1.65071

>  <r_i_glide_intrahb_reward>  (139) 
-0

>  <i_i_glide_confnum>  (139) 
3

>  <i_i_glide_posenum>  (139) 
2

>  <r_i_glide_eff_state_penalty>  (139) 
0

>  <ligand_id>  (139) 
39

>  <original_smiles>  (139) 
OC12CC3CC(C1)C(NCc1nccs1)C(C3)C2

>  <smiles>  (139) 
[H]OC12C([H])([H])C3([H])C([H])([H])C([H])(C1([H])[H])C([H])(N([H])C([H])([H])c1nc([H])c([H])s1)C([H])(C3([H])[H])C2([H])[H]

$$$$
39:1:1
     RDKit          3D

 38 41  0  0  1  0  0  0  0  0999 V2000
   -5.9722  -13.5406   -7.8213 O   0  0  0  0  0  0  0  0  0  0  0  0
   -6.8837  -12.4677   -7.9382 C   0  0  2  0  0  0  0  0  0  0  0  0
   -8.1186  -12.9271   -8.7425 C   0  0  0  0  0  0  0  0  0  0  0  0
   -9.1014  -11.7480   -8.8759 C   0  0  2  0  0  0  0  0  0  0  0  0
   -8.4075  -10.5932   -9.6281 C   0  0  0  0  0  0  0  0  0  0  0  0
   -7.1700  -10.1228   -8.8270 C   0  0  2  0  0  0  0  0  0  0  0  0
   -6.1873  -11.3065   -8.6719 C   0  0  0  0  0  0  0  0  0  0  0  0
   -7.5997   -9.6361   -7.4230 C   0  0  1  0  0  0  0  0  0  0  0  0
   -8.4909   -8.4786   -7.5138 N   0  0  0  0  0  0  0  0  0  0  0  0
   -7.8138   -7.2147   -7.7636 C   0  0  0  0  0  0  0  0  0  0  0  0
   -7.3632   -6.5499   -6.5033 C   0  0  0  0  0  0  0  0  0  0  0  0
   -6.3841   -7.0217   -5.7284 N   0  0  0  0  0  0  0  0  0  0  0  0
   -6.1488   -6.2057   -4.6181 C   0  0  0  0  0  0  0  0  0  0  0  0
   -6.9516   -5.0937   -4.5714 C   0  0  0  0  0  0  0  0  0  0  0  0
   -8.0542   -5.0346   -5.9148 S   0  0  0  0  0  0  0  0  0  0  0  0
   -8.3021  -10.8011   -6.6777 C   0  0  1  0  0  0  0  0  0  0  0  0
   -9.5410  -11.2724   -7.4750 C   0  0  0  0  0  0  0  0  0  0  0  0
   -7.3173  -11.9899   -6.5381 C   0  0  0  0  0  0  0  0  0  0  0  0
   -6.3980  -14.2543   -7.3770 H   0  0  0  0  0  0  0  0  0  0  0  0
   -7.8176  -13.2647   -9.7350 H   0  0  0  0  0  0  0  0  0  0  0  0
   -8.6060  -13.7715   -8.2545 H   0  0  0  0  0  0  0  0  0  0  0  0
   -9.9806  -12.0636   -9.4363 H   0  0  0  0  0  0  0  0  0  0  0  0
   -8.1100  -10.9099  -10.6276 H   0  0  0  0  0  0  0  0  0  0  0  0
   -9.1060   -9.7682   -9.7723 H   0  0  0  0  0  0  0  0  0  0  0  0
   -6.6615   -9.3270   -9.3718 H   0  0  0  0  0  0  0  0  0  0  0  0
   -5.2981  -10.9881   -8.1250 H   0  0  0  0  0  0  0  0  0  0  0  0
   -5.8497  -11.6415   -9.6516 H   0  0  0  0  0  0  0  0  0  0  0  0
   -6.7174   -9.3646   -6.8453 H   0  0  0  0  0  0  0  0  0  0  0  0
   -8.9875   -8.3932   -6.6389 H   0  0  0  0  0  0  0  0  0  0  0  0
   -6.9629   -7.3374   -8.4275 H   0  0  0  0  0  0  0  0  0  0  0  0
   -8.5119   -6.5575   -8.2833 H   0  0  0  0  0  0  0  0  0  0  0  0
   -5.3928   -6.4932   -3.9016 H   0  0  0  0  0  0  0  0  0  0  0  0
   -6.9797   -4.3159   -3.8308 H   0  0  0  0  0  0  0  0  0  0  0  0
   -8.5969  -10.4761   -5.6779 H   0  0  0  0  0  0  0  0  0  0  0  0
  -10.2628  -10.4599   -7.5704 H   0  0  0  0  0  0  0  0  0  0  0  0
  -10.0580  -12.0688   -6.9382 H   0  0  0  0  0  0  0  0  0  0  0  0
   -7.7882  -12.8053   -5.9908 H   0  0  0  0  0  0  0  0  0  0  0  0
   -6.4456  -11.6947   -5.9511 H   0  0  0  0  0  0  0  0  0  0  0  0
  2  1  1  1
  1 19  1  0
  2  7  1  0
  2 18  1  0
  2  3  1  0
  3  4  1  0
  3 20  1  0
  3 21  1  0
  4 17  1  0
  4  5  1  0
  4 22  1  6
  5  6  1  0
  5 23  1  0
  5 24  1  0
  6  7  1  0
  6  8  1  0
  6 25  1  6
  7 26  1  0
  7 27  1  0
  8  9  1  0
  8 16  1  0
  8 28  1  1
  9 10  1  0
  9 29  1  0
 10 11  1  0
 10 30  1  0
 10 31  1  0
 11 15  1  0
 11 12  2  0
 12 13  1  0
 13 14  2  0
 13 32  1  0
 14 15  1  0
 14 33  1  0
 16 17  1  0
 16 18  1  0
 16 34  1  1
 17 35  1  0
 17 36  1  0
 18 37  1  0
 18 38  1  0
M  END
>  <i_m_ct_stereo_status>  (140) 
1

>  <s_m_source_file>  (140) 
/var/tmp/pbs.5076255.sched01/tmp276pg2sv/48_ir7zhrj.sdf

>  <i_m_source_file_index>  (140) 
15

>  <i_lp_mmshare_version>  (140) 
48012

>  <i_f3d_flags>  (140) 
0

>  <s_epik_input>  (140) 
W09IXVtDQF0xMltDSDJdW0NAQEhdM1tDSDJdW0NASF0oW0NIMl0xKVtDQEhdKFtDQEBIXShbQ0gyXTMpW0NIMl0yKVtOSF1bQ0gyXWM0bltjSF1bY0hdczQ=

>  <s_epik_cmdline>  (140) 
J2VwaWtfcHl0aG9uJywgJy1waHQnLCAnMi4wJywgJy1waCcsICc3LjAnLCAnLXRuJywgJzgnLCAnLW1hJywgJzIwMCcsICctaW1hZScsICc8aW5maWxlLm1hZT4nLCAnLW9tYWUnLCAnPG91dGZpbGUubWFlPic=

>  <r_epik_Ionization_Penalty>  (140) 
2.34982

>  <r_epik_Ionization_Penalty_Charging>  (140) 
0

>  <r_epik_Ionization_Penalty_Neutral>  (140) 
2.34982

>  <r_epik_State_Penalty>  (140) 
2.50399

>  <r_epik_Charging_Adjusted_Penalty>  (140) 
2.50399

>  <i_epik_Tot_Q>  (140) 
0

>  <i_epik_Tot_abs_Q>  (140) 
0

>  <s_lp_Force_Field>  (140) 
OPLS3e

>  <r_lp_Energy>  (140) 
-2.74686

>  <b_lp_Chiralities_Consistent>  (140) 
1

>  <s_lp_Variant>  (140) 
39:0-2

>  <s_i_glide_gridfile>  (140) 
pfpi4k_grid

>  <i_i_glide_lignum>  (140) 
15

>  <i_i_glide_rotatable_bonds>  (140) 
4

>  <r_i_docking_score>  (140) 
-4.41777

>  <r_i_glide_ligand_efficiency>  (140) 
-0.245432

>  <r_i_glide_ligand_efficiency_sa>  (140) 
-0.643213

>  <r_i_glide_ligand_efficiency_ln>  (140) 
-1.13557

>  <r_i_glide_gscore>  (140) 
-4.41777

>  <r_i_glide_lipo>  (140) 
-2.04959

>  <r_i_glide_hbond>  (140) 
0

>  <r_i_glide_metal>  (140) 
-0

>  <r_i_glide_rewards>  (140) 
-1.80645

>  <r_i_glide_evdw>  (140) 
-27.3948

>  <r_i_glide_ecoul>  (140) 
0.300528

>  <r_i_glide_erotb>  (140) 
0.762927

>  <r_i_glide_esite>  (140) 
0

>  <r_i_glide_emodel>  (140) 
-34.9661

>  <r_i_glide_energy>  (140) 
-27.0942

>  <r_i_glide_einternal>  (140) 
1.80226

>  <r_i_glide_intrahb_reward>  (140) 
-0

>  <i_i_glide_confnum>  (140) 
3

>  <i_i_glide_posenum>  (140) 
38

>  <r_i_glide_eff_state_penalty>  (140) 
0

>  <ligand_id>  (140) 
39

>  <original_smiles>  (140) 
OC12CC3CC(C1)C(NCc1nccs1)C(C3)C2

>  <smiles>  (140) 
[H]OC12C([H])([H])C3([H])C([H])([H])C([H])(C1([H])[H])C([H])(N([H])C([H])([H])c1nc([H])c([H])s1)C([H])(C3([H])[H])C2([H])[H]

$$$$
39:1:2
     RDKit          3D

 38 41  0  0  1  0  0  0  0  0999 V2000
   -7.8416  -12.2946   -7.1792 O   0  0  0  0  0  0  0  0  0  0  0  0
   -8.4657  -11.2997   -7.9629 C   0  0  2  0  0  0  0  0  0  0  0  0
   -9.0278  -11.9331   -9.2535 C   0  0  0  0  0  0  0  0  0  0  0  0
   -9.7239  -10.8479  -10.1015 C   0  0  2  0  0  0  0  0  0  0  0  0
   -8.6854   -9.7661  -10.4675 C   0  0  0  0  0  0  0  0  0  0  0  0
   -8.1342   -9.1192   -9.1755 C   0  0  2  0  0  0  0  0  0  0  0  0
   -7.4351  -10.2015   -8.3224 C   0  0  0  0  0  0  0  0  0  0  0  0
   -9.2872   -8.5121   -8.3377 C   0  0  1  0  0  0  0  0  0  0  0  0
   -9.8753   -7.3949   -9.0660 N   0  0  0  0  0  0  0  0  0  0  0  0
  -10.6445   -6.4638   -8.2601 C   0  0  0  0  0  0  0  0  0  0  0  0
   -9.8294   -5.4522   -7.5090 C   0  0  0  0  0  0  0  0  0  0  0  0
  -10.3038   -4.2577   -7.1262 N   0  0  0  0  0  0  0  0  0  0  0  0
   -9.3801   -3.5412   -6.3608 C   0  0  0  0  0  0  0  0  0  0  0  0
   -8.1893   -4.1850   -6.1867 C   0  0  0  0  0  0  0  0  0  0  0  0
   -8.1569   -5.7207   -6.9946 S   0  0  0  0  0  0  0  0  0  0  0  0
  -10.3266   -9.6014   -8.0027 C   0  0  1  0  0  0  0  0  0  0  0  0
  -10.8864  -10.2249   -9.2970 C   0  0  0  0  0  0  0  0  0  0  0  0
   -9.6245  -10.6826   -7.1558 C   0  0  0  0  0  0  0  0  0  0  0  0
   -7.0972  -12.6244   -7.6583 H   0  0  0  0  0  0  0  0  0  0  0  0
   -8.2224  -12.3912   -9.8297 H   0  0  0  0  0  0  0  0  0  0  0  0
   -9.7357  -12.7236   -9.0028 H   0  0  0  0  0  0  0  0  0  0  0  0
  -10.1205  -11.2925  -11.0155 H   0  0  0  0  0  0  0  0  0  0  0  0
   -7.8694  -10.2067  -11.0430 H   0  0  0  0  0  0  0  0  0  0  0  0
   -9.1375   -9.0089  -11.1112 H   0  0  0  0  0  0  0  0  0  0  0  0
   -7.4063   -8.3452   -9.4311 H   0  0  0  0  0  0  0  0  0  0  0  0
   -7.0218   -9.7517   -7.4159 H   0  0  0  0  0  0  0  0  0  0  0  0
   -6.5890  -10.6235   -8.8694 H   0  0  0  0  0  0  0  0  0  0  0  0
   -8.8608   -8.1526   -7.4036 H   0  0  0  0  0  0  0  0  0  0  0  0
  -10.4435   -7.7265   -9.8324 H   0  0  0  0  0  0  0  0  0  0  0  0
  -11.3030   -5.9120   -8.9355 H   0  0  0  0  0  0  0  0  0  0  0  0
  -11.2918   -7.0087   -7.5762 H   0  0  0  0  0  0  0  0  0  0  0  0
   -9.6809   -2.5751   -5.9843 H   0  0  0  0  0  0  0  0  0  0  0  0
   -7.3314   -3.8459   -5.6371 H   0  0  0  0  0  0  0  0  0  0  0  0
  -11.1428   -9.1809   -7.4227 H   0  0  0  0  0  0  0  0  0  0  0  0
  -11.3924   -9.4655   -9.8988 H   0  0  0  0  0  0  0  0  0  0  0  0
  -11.6440  -10.9724   -9.0518 H   0  0  0  0  0  0  0  0  0  0  0  0
  -10.3419  -11.4504   -6.8678 H   0  0  0  0  0  0  0  0  0  0  0  0
   -9.2337  -10.2456   -6.2355 H   0  0  0  0  0  0  0  0  0  0  0  0
  2  1  1  1
  1 19  1  0
  2  7  1  0
  2 18  1  0
  2  3  1  0
  3  4  1  0
  3 20  1  0
  3 21  1  0
  4 17  1  0
  4  5  1  0
  4 22  1  6
  5  6  1  0
  5 23  1  0
  5 24  1  0
  6  7  1  0
  6  8  1  0
  6 25  1  6
  7 26  1  0
  7 27  1  0
  8  9  1  0
  8 16  1  0
  8 28  1  1
  9 10  1  0
  9 29  1  0
 10 11  1  0
 10 30  1  0
 10 31  1  0
 11 15  1  0
 11 12  2  0
 12 13  1  0
 13 14  2  0
 13 32  1  0
 14 15  1  0
 14 33  1  0
 16 17  1  0
 16 18  1  0
 16 34  1  1
 17 35  1  0
 17 36  1  0
 18 37  1  0
 18 38  1  0
M  END
>  <i_m_ct_stereo_status>  (141) 
1

>  <s_m_source_file>  (141) 
/var/tmp/pbs.5076255.sched01/tmp276pg2sv/48_ir7zhrj.sdf

>  <i_m_source_file_index>  (141) 
15

>  <i_lp_mmshare_version>  (141) 
48012

>  <i_f3d_flags>  (141) 
0

>  <s_epik_input>  (141) 
W09IXVtDQF0xMltDSDJdW0NAQEhdM1tDSDJdW0NASF0oW0NIMl0xKVtDQEhdKFtDQEBIXShbQ0gyXTMpW0NIMl0yKVtOSF1bQ0gyXWM0bltjSF1bY0hdczQ=

>  <s_epik_cmdline>  (141) 
J2VwaWtfcHl0aG9uJywgJy1waHQnLCAnMi4wJywgJy1waCcsICc3LjAnLCAnLXRuJywgJzgnLCAnLW1hJywgJzIwMCcsICctaW1hZScsICc8aW5maWxlLm1hZT4nLCAnLW9tYWUnLCAnPG91dGZpbGUubWFlPic=

>  <r_epik_Ionization_Penalty>  (141) 
2.34982

>  <r_epik_Ionization_Penalty_Charging>  (141) 
0

>  <r_epik_Ionization_Penalty_Neutral>  (141) 
2.34982

>  <r_epik_State_Penalty>  (141) 
2.50399

>  <r_epik_Charging_Adjusted_Penalty>  (141) 
2.50399

>  <i_epik_Tot_Q>  (141) 
0

>  <i_epik_Tot_abs_Q>  (141) 
0

>  <s_lp_Force_Field>  (141) 
OPLS3e

>  <r_lp_Energy>  (141) 
-2.74686

>  <b_lp_Chiralities_Consistent>  (141) 
1

>  <s_lp_Variant>  (141) 
39:0-2

>  <s_i_glide_gridfile>  (141) 
pfpi4k_grid

>  <i_i_glide_lignum>  (141) 
15

>  <i_i_glide_rotatable_bonds>  (141) 
4

>  <r_i_docking_score>  (141) 
-4.05406

>  <r_i_glide_ligand_efficiency>  (141) 
-0.225226

>  <r_i_glide_ligand_efficiency_sa>  (141) 
-0.590258

>  <r_i_glide_ligand_efficiency_ln>  (141) 
-1.04208

>  <r_i_glide_gscore>  (141) 
-4.05406

>  <r_i_glide_lipo>  (141) 
-1.36868

>  <r_i_glide_hbond>  (141) 
0

>  <r_i_glide_metal>  (141) 
-0

>  <r_i_glide_rewards>  (141) 
-1.85645

>  <r_i_glide_evdw>  (141) 
-24.9719

>  <r_i_glide_ecoul>  (141) 
-2.28838

>  <r_i_glide_erotb>  (141) 
0.762927

>  <r_i_glide_esite>  (141) 
0

>  <r_i_glide_emodel>  (141) 
-34.8861

>  <r_i_glide_energy>  (141) 
-27.2603

>  <r_i_glide_einternal>  (141) 
0.445273

>  <r_i_glide_intrahb_reward>  (141) 
-0

>  <i_i_glide_confnum>  (141) 
6

>  <i_i_glide_posenum>  (141) 
6

>  <r_i_glide_eff_state_penalty>  (141) 
0

>  <ligand_id>  (141) 
39

>  <original_smiles>  (141) 
OC12CC3CC(C1)C(NCc1nccs1)C(C3)C2

>  <smiles>  (141) 
[H]OC12C([H])([H])C3([H])C([H])([H])C([H])(C1([H])[H])C([H])(N([H])C([H])([H])c1nc([H])c([H])s1)C([H])(C3([H])[H])C2([H])[H]

$$$$
40:0:0
     RDKit          3D

 78 82  0  0  1  0  0  0  0  0999 V2000
    2.2764  -10.2755    5.6176 C   0  0  0  0  0  0  0  0  0  0  0  0
    2.7265   -9.6968    4.2489 C   0  0  2  0  0  0  0  0  0  0  0  0
    3.0390  -10.8573    3.2939 C   0  0  0  0  0  0  0  0  0  0  0  0
    4.3345  -11.5734    3.6552 C   0  0  1  0  0  0  0  0  0  0  0  0
    4.4682  -12.7999    2.9163 N   0  0  0  0  0  0  0  0  0  0  0  0
    5.5635  -10.6177    3.5372 C   0  0  0  0  0  0  0  0  0  0  0  0
    6.7394  -11.2965    4.2942 C   0  0  0  0  0  0  0  0  0  0  0  0
    6.0210  -10.5153    2.0588 C   0  0  0  0  0  0  0  0  0  0  0  0
    5.2933   -9.2154    4.2249 C   0  0  1  0  0  0  0  0  0  0  0  0
    6.3517   -8.1152    3.9491 C   0  0  0  0  0  0  0  0  0  0  0  0
    6.0248   -7.1712    2.7697 C   0  0  0  0  0  0  0  0  0  0  0  0
    4.7057   -6.3516    2.8976 C   0  0  2  0  0  0  0  0  0  0  0  0
    4.8521   -5.3209    4.0397 C   0  0  0  0  0  0  0  0  0  0  0  0
    3.5962   -7.4429    3.1730 C   0  0  1  0  0  0  0  0  0  0  0  0
    3.1768   -7.8587    1.7447 C   0  0  1  0  0  0  0  0  0  0  0  0
    1.8446   -8.3244    1.6530 O   0  0  0  0  0  0  0  0  0  0  0  0
    3.4005   -6.6587    0.8409 C   0  0  1  0  0  0  0  0  0  0  0  0
    2.3717   -5.5940    0.5237 C   0  0  1  0  0  0  0  0  0  0  0  0
    1.0053   -5.9207    0.7605 O   0  0  0  0  0  0  0  0  0  0  0  0
    3.0638   -4.5917    1.4573 C   0  0  2  0  0  0  0  0  0  0  0  0
    2.2190   -4.2883    2.7051 C   0  0  0  0  0  0  0  0  0  0  0  0
    3.3657   -3.1876    0.7829 C   0  0  1  0  0  0  0  0  0  0  0  0
    3.9777   -2.0932    1.7366 C   0  0  0  0  0  0  0  0  0  0  0  0
    3.0164   -1.4560    2.5549 O   0  0  0  0  0  0  0  0  0  0  0  0
    4.1736   -3.3387   -0.5511 C   0  0  1  0  0  0  0  0  0  0  0  0
    4.8351   -2.1491   -0.9618 O   0  0  0  0  0  0  0  0  0  0  0  0
    5.1728   -4.5130   -0.6295 C   0  0  0  0  0  0  0  0  0  0  0  0
    5.5321   -5.1894    0.7041 C   0  0  1  0  0  0  0  0  0  0  0  0
    6.3748   -4.2934    1.3907 O   0  0  0  0  0  0  0  0  0  0  0  0
    4.2970   -5.6270    1.5394 C   0  0  1  0  0  0  0  0  0  0  0  0
    3.8501   -8.5847    4.2706 C   0  0  1  0  0  0  0  0  0  0  0  0
    3.7362   -7.8577    5.6498 C   0  0  0  0  0  0  0  0  0  0  0  0
    3.1020  -10.6811    6.2053 H   0  0  0  0  0  0  0  0  0  0  0  0
    1.5543  -11.0823    5.4806 H   0  0  0  0  0  0  0  0  0  0  0  0
    1.7642   -9.5319    6.2306 H   0  0  0  0  0  0  0  0  0  0  0  0
    1.8094   -9.2179    3.9102 H   0  0  0  0  0  0  0  0  0  0  0  0
    2.2113  -11.5653    3.3201 H   0  0  0  0  0  0  0  0  0  0  0  0
    3.0977  -10.5342    2.2611 H   0  0  0  0  0  0  0  0  0  0  0  0
    4.2557  -11.8854    4.7023 H   0  0  0  0  0  0  0  0  0  0  0  0
    4.5167  -12.6074    1.8793 H   0  0  0  0  0  0  0  0  0  0  0  0
    3.6559  -13.3820    3.0615 H   0  0  0  0  0  0  0  0  0  0  0  0
    7.6603  -10.7090    4.2517 H   0  0  0  0  0  0  0  0  0  0  0  0
    6.9792  -12.2799    3.8913 H   0  0  0  0  0  0  0  0  0  0  0  0
    6.5056  -11.4418    5.3511 H   0  0  0  0  0  0  0  0  0  0  0  0
    6.8560   -9.8258    1.9213 H   0  0  0  0  0  0  0  0  0  0  0  0
    5.2209  -10.2149    1.3925 H   0  0  0  0  0  0  0  0  0  0  0  0
    6.3788  -11.4719    1.6822 H   0  0  0  0  0  0  0  0  0  0  0  0
    5.4837   -9.4651    5.2703 H   0  0  0  0  0  0  0  0  0  0  0  0
    6.5052   -7.5261    4.8510 H   0  0  0  0  0  0  0  0  0  0  0  0
    7.3277   -8.5604    3.7582 H   0  0  0  0  0  0  0  0  0  0  0  0
    6.8705   -6.4971    2.6535 H   0  0  0  0  0  0  0  0  0  0  0  0
    5.9937   -7.7637    1.8560 H   0  0  0  0  0  0  0  0  0  0  0  0
    3.9492   -5.2606    4.6504 H   0  0  0  0  0  0  0  0  0  0  0  0
    5.0438   -4.3270    3.6512 H   0  0  0  0  0  0  0  0  0  0  0  0
    5.6818   -5.5333    4.7122 H   0  0  0  0  0  0  0  0  0  0  0  0
    2.7129   -6.9329    3.5458 H   0  0  0  0  0  0  0  0  0  0  0  0
    3.8307   -8.6455    1.3822 H   0  0  0  0  0  0  0  0  0  0  0  0
    1.8371   -9.2564    1.7899 H   0  0  0  0  0  0  0  0  0  0  0  0
    3.8477   -6.9592   -0.1066 H   0  0  0  0  0  0  0  0  0  0  0  0
    2.4578   -5.2965   -0.5119 H   0  0  0  0  0  0  0  0  0  0  0  0
    1.0593   -6.7168    1.2679 H   0  0  0  0  0  0  0  0  0  0  0  0
    2.7877   -3.8080    3.5001 H   0  0  0  0  0  0  0  0  0  0  0  0
    1.7437   -5.1697    3.1282 H   0  0  0  0  0  0  0  0  0  0  0  0
    1.3968   -3.6104    2.4732 H   0  0  0  0  0  0  0  0  0  0  0  0
    2.4202   -2.7514    0.4507 H   0  0  0  0  0  0  0  0  0  0  0  0
    4.8106   -2.4727    2.3234 H   0  0  0  0  0  0  0  0  0  0  0  0
    4.3660   -1.2419    1.1774 H   0  0  0  0  0  0  0  0  0  0  0  0
    2.3677   -1.0709    1.9979 H   0  0  0  0  0  0  0  0  0  0  0  0
    3.4491   -3.5073   -1.3478 H   0  0  0  0  0  0  0  0  0  0  0  0
    4.1866   -1.4971   -1.1489 H   0  0  0  0  0  0  0  0  0  0  0  0
    4.7303   -5.2660   -1.2796 H   0  0  0  0  0  0  0  0  0  0  0  0
    6.0753   -4.2136   -1.1599 H   0  0  0  0  0  0  0  0  0  0  0  0
    6.1343   -6.0494    0.4298 H   0  0  0  0  0  0  0  0  0  0  0  0
    5.8803   -3.5175    1.5516 H   0  0  0  0  0  0  0  0  0  0  0  0
    4.5111   -7.1167    5.8094 H   0  0  0  0  0  0  0  0  0  0  0  0
    3.8600   -8.5291    6.4985 H   0  0  0  0  0  0  0  0  0  0  0  0
    2.7748   -7.3559    5.7757 H   0  0  0  0  0  0  0  0  0  0  0  0
    5.2960  -13.2979    3.1821 H   0  0  0  0  0  0  0  0  0  0  0  0
  1  2  1  0
  1 33  1  0
  1 34  1  0
  1 35  1  0
  2 31  1  0
  2  3  1  0
  2 36  1  6
  3  4  1  0
  3 37  1  0
  3 38  1  0
  4  5  1  0
  4  6  1  0
  4 39  1  1
  5 40  1  0
  5 41  1  0
  5 78  1  0
  6  7  1  0
  6  8  1  0
  6  9  1  0
  7 42  1  0
  7 43  1  0
  7 44  1  0
  8 45  1  0
  8 46  1  0
  8 47  1  0
  9 31  1  0
  9 10  1  0
  9 48  1  1
 10 11  1  0
 10 49  1  0
 10 50  1  0
 11 12  1  0
 11 51  1  0
 11 52  1  0
 30 12  1  1
 12 13  1  1
 12 14  1  0
 13 53  1  0
 13 54  1  0
 13 55  1  0
 14 15  1  0
 14 31  1  0
 14 56  1  1
 15 16  1  0
 15 17  1  0
 15 57  1  6
 16 58  1  0
 17 30  1  0
 17 18  1  0
 17 59  1  6
 18 19  1  0
 18 20  1  0
 18 60  1  6
 19 61  1  0
 20 30  1  0
 20 21  1  1
 20 22  1  0
 21 62  1  0
 21 63  1  0
 21 64  1  0
 22 23  1  0
 22 25  1  0
 22 65  1  6
 23 24  1  0
 23 66  1  0
 23 67  1  0
 24 68  1  0
 25 26  1  0
 25 27  1  0
 25 69  1  6
 26 70  1  0
 27 28  1  0
 27 71  1  0
 27 72  1  0
 28 29  1  0
 28 30  1  0
 28 73  1  6
 29 74  1  0
 31 32  1  1
 32 75  1  0
 32 76  1  0
 32 77  1  0
M  CHG  1   5   1
M  END
>  <i_m_ct_stereo_status>  (142) 
1

>  <s_m_source_file>  (142) 
/var/tmp/pbs.5076255.sched01/tmp276pg2sv/48_ir7zhrj.sdf

>  <i_m_source_file_index>  (142) 
16

>  <i_lp_mmshare_version>  (142) 
48012

>  <i_f3d_flags>  (142) 
0

>  <s_epik_input>  (142) 
W0NIM11bQ0BASF0xW0NIMl1bQ0BASF0oW05IMl0pQyhbQ0gzXSkoW0NIM10pW0NAQEhdKFtDSDJdW0NIMl0yKVtDQEBdMShbQ0gzXSlbQ0BASF0oW0NAQF0yKFtDQEBdMzQ1KVtDSDNdKVtDQEBIXShbT0hdKVtDQEhdM1tDQEBIXShbT0hdKVtDQF00KFtDSDNdKVtDQEBIXShbQ0gyXVtPSF0pW0NAQEhdKFtPSF0pW0NIMl1bQ0BIXTVbT0hd

>  <s_epik_cmdline>  (142) 
J2VwaWtfcHl0aG9uJywgJy1waHQnLCAnMi4wJywgJy1waCcsICc3LjAnLCAnLXRuJywgJzgnLCAnLW1hJywgJzIwMCcsICctaW1hZScsICc8aW5maWxlLm1hZT4nLCAnLW9tYWUnLCAnPG91dGZpbGUubWFlPic=

>  <r_lp_tautomer_probability>  (142) 
1

>  <r_epik_Ionization_Penalty>  (142) 
0.000114492

>  <r_epik_Ionization_Penalty_Charging>  (142) 
0.000112088

>  <r_epik_Ionization_Penalty_Neutral>  (142) 
2.40426e-06

>  <r_epik_State_Penalty>  (142) 
-0

>  <r_epik_Charging_Adjusted_Penalty>  (142) 
0.000112088

>  <i_epik_Tot_Q>  (142) 
1

>  <i_epik_Tot_abs_Q>  (142) 
1

>  <s_lp_Force_Field>  (142) 
OPLS3e

>  <r_lp_Energy>  (142) 
124.611

>  <b_lp_Chiralities_Consistent>  (142) 
1

>  <s_lp_Variant>  (142) 
40:0-1

>  <s_i_glide_gridfile>  (142) 
pfpi4k_grid

>  <i_i_glide_lignum>  (142) 
16

>  <i_i_glide_rotatable_bonds>  (142) 
6

>  <r_i_docking_score>  (142) 
-4.66744

>  <r_i_glide_ligand_efficiency>  (142) 
-0.145858

>  <r_i_glide_ligand_efficiency_sa>  (142) 
-0.463069

>  <r_i_glide_ligand_efficiency_ln>  (142) 
-1.04517

>  <r_i_glide_gscore>  (142) 
-4.66744

>  <r_i_glide_lipo>  (142) 
-0.272597

>  <r_i_glide_hbond>  (142) 
-0.2

>  <r_i_glide_metal>  (142) 
-0

>  <r_i_glide_rewards>  (142) 
-0.82286

>  <r_i_glide_evdw>  (142) 
-18.9777

>  <r_i_glide_ecoul>  (142) 
-16.1595

>  <r_i_glide_erotb>  (142) 
0.0979396

>  <r_i_glide_esite>  (142) 
-0.0971074

>  <r_i_glide_emodel>  (142) 
-51.878

>  <r_i_glide_energy>  (142) 
-35.1372

>  <r_i_glide_einternal>  (142) 
2.88275

>  <r_i_glide_intrahb_reward>  (142) 
-0.5

>  <i_i_glide_confnum>  (142) 
2

>  <i_i_glide_posenum>  (142) 
5

>  <r_i_glide_eff_state_penalty>  (142) 
0

>  <ligand_id>  (142) 
40

>  <original_smiles>  (142) 
CC1CC(N)C(C)(C)C2CCC3(C)C(C(O)C4C(O)C5(C)C(CO)C(O)CC(O)C435)C12C

>  <smiles>  (142) 
[H]OC([H])([H])C1([H])C([H])(O[H])C([H])([H])C([H])(O[H])C23C([H])(C([H])(O[H])C4([H])C5(C([H])([H])[H])C([H])(C([H])([H])[H])C([H])([H])C([H])([N+]([H])([H])[H])C(C([H])([H])[H])(C([H])([H])[H])C5([H])C([H])([H])C([H])([H])C42C([H])([H])[H])C([H])(O[H])C13C([H])([H])[H]

$$$$
40:0:1
     RDKit          3D

 78 82  0  0  1  0  0  0  0  0999 V2000
    4.7606   -7.5059    6.4636 C   0  0  0  0  0  0  0  0  0  0  0  0
    3.9980   -6.9027    5.2547 C   0  0  2  0  0  0  0  0  0  0  0  0
    2.6437   -7.6245    5.1114 C   0  0  0  0  0  0  0  0  0  0  0  0
    2.8233   -9.0507    4.5818 C   0  0  1  0  0  0  0  0  0  0  0  0
    1.5479   -9.7910    4.6970 N   0  0  0  0  0  0  0  0  0  0  0  0
    3.4067   -9.0700    3.1337 C   0  0  0  0  0  0  0  0  0  0  0  0
    3.8937  -10.5243    2.8767 C   0  0  0  0  0  0  0  0  0  0  0  0
    2.2897   -8.7723    2.0954 C   0  0  0  0  0  0  0  0  0  0  0  0
    4.6669   -8.1012    3.0196 C   0  0  1  0  0  0  0  0  0  0  0  0
    5.1753   -7.8607    1.5782 C   0  0  0  0  0  0  0  0  0  0  0  0
    4.6186   -6.5932    0.9040 C   0  0  0  0  0  0  0  0  0  0  0  0
    4.9284   -5.2437    1.6293 C   0  0  2  0  0  0  0  0  0  0  0  0
    6.4470   -4.9513    1.5364 C   0  0  0  0  0  0  0  0  0  0  0  0
    4.3997   -5.4326    3.1049 C   0  0  1  0  0  0  0  0  0  0  0  0
    2.9040   -5.0369    2.9754 C   0  0  1  0  0  0  0  0  0  0  0  0
    2.2905   -4.5711    4.1595 O   0  0  0  0  0  0  0  0  0  0  0  0
    2.8067   -4.0074    1.8546 C   0  0  1  0  0  0  0  0  0  0  0  0
    2.9595   -2.4949    2.0355 C   0  0  1  0  0  0  0  0  0  0  0  0
    2.7571   -1.9327    3.3202 O   0  0  0  0  0  0  0  0  0  0  0  0
    4.3927   -2.5151    1.4405 C   0  0  2  0  0  0  0  0  0  0  0  0
    5.4401   -2.1643    2.5156 C   0  0  0  0  0  0  0  0  0  0  0  0
    4.6126   -1.4976    0.2565 C   0  0  1  0  0  0  0  0  0  0  0  0
    6.0685   -1.2634   -0.2413 C   0  0  0  0  0  0  0  0  0  0  0  0
    6.6243   -2.2781   -1.0504 O   0  0  0  0  0  0  0  0  0  0  0  0
    3.5523   -1.6199   -0.8759 C   0  0  1  0  0  0  0  0  0  0  0  0
    3.9161   -1.0256   -2.1007 O   0  0  0  0  0  0  0  0  0  0  0  0
    3.0077   -3.0351   -1.1385 C   0  0  0  0  0  0  0  0  0  0  0  0
    3.8178   -4.1852   -0.5105 C   0  0  1  0  0  0  0  0  0  0  0  0
    4.9927   -4.3142   -1.2631 O   0  0  0  0  0  0  0  0  0  0  0  0
    4.1003   -4.0290    1.0179 C   0  0  1  0  0  0  0  0  0  0  0  0
    4.7864   -6.7805    3.8876 C   0  0  1  0  0  0  0  0  0  0  0  0
    6.3057   -6.6421    4.2494 C   0  0  0  0  0  0  0  0  0  0  0  0
    5.1846   -8.4888    6.2478 H   0  0  0  0  0  0  0  0  0  0  0  0
    4.1018   -7.6128    7.3247 H   0  0  0  0  0  0  0  0  0  0  0  0
    5.5726   -6.8528    6.7901 H   0  0  0  0  0  0  0  0  0  0  0  0
    3.7883   -5.8909    5.5951 H   0  0  0  0  0  0  0  0  0  0  0  0
    2.1440   -7.6422    6.0817 H   0  0  0  0  0  0  0  0  0  0  0  0
    1.9639   -7.0849    4.4624 H   0  0  0  0  0  0  0  0  0  0  0  0
    3.5058   -9.5821    5.2511 H   0  0  0  0  0  0  0  0  0  0  0  0
    0.8383   -9.3636    4.1132 H   0  0  0  0  0  0  0  0  0  0  0  0
    1.2239   -9.7981    5.6573 H   0  0  0  0  0  0  0  0  0  0  0  0
    4.3311  -10.6531    1.8887 H   0  0  0  0  0  0  0  0  0  0  0  0
    3.0774  -11.2427    2.9457 H   0  0  0  0  0  0  0  0  0  0  0  0
    4.6557  -10.8219    3.5989 H   0  0  0  0  0  0  0  0  0  0  0  0
    2.6796   -8.7399    1.0790 H   0  0  0  0  0  0  0  0  0  0  0  0
    1.7509   -7.8484    2.2879 H   0  0  0  0  0  0  0  0  0  0  0  0
    1.5419   -9.5652    2.0778 H   0  0  0  0  0  0  0  0  0  0  0  0
    5.4424   -8.7377    3.4512 H   0  0  0  0  0  0  0  0  0  0  0  0
    6.2614   -7.8095    1.5944 H   0  0  0  0  0  0  0  0  0  0  0  0
    4.9686   -8.7185    0.9443 H   0  0  0  0  0  0  0  0  0  0  0  0
    5.0164   -6.5911   -0.1103 H   0  0  0  0  0  0  0  0  0  0  0  0
    3.5429   -6.7089    0.7942 H   0  0  0  0  0  0  0  0  0  0  0  0
    6.8384   -4.5745    2.4808 H   0  0  0  0  0  0  0  0  0  0  0  0
    6.6719   -4.2116    0.7706 H   0  0  0  0  0  0  0  0  0  0  0  0
    7.0433   -5.8227    1.2637 H   0  0  0  0  0  0  0  0  0  0  0  0
    4.8348   -4.6479    3.7101 H   0  0  0  0  0  0  0  0  0  0  0  0
    2.3465   -5.9029    2.6473 H   0  0  0  0  0  0  0  0  0  0  0  0
    2.6346   -3.7096    4.3564 H   0  0  0  0  0  0  0  0  0  0  0  0
    1.9101   -4.1972    1.2515 H   0  0  0  0  0  0  0  0  0  0  0  0
    2.2314   -2.0049    1.3900 H   0  0  0  0  0  0  0  0  0  0  0  0
    2.5998   -1.0064    3.2072 H   0  0  0  0  0  0  0  0  0  0  0  0
    6.4452   -2.4161    2.2008 H   0  0  0  0  0  0  0  0  0  0  0  0
    5.2516   -2.6545    3.4649 H   0  0  0  0  0  0  0  0  0  0  0  0
    5.4283   -1.0969    2.7332 H   0  0  0  0  0  0  0  0  0  0  0  0
    4.3795   -0.5205    0.6846 H   0  0  0  0  0  0  0  0  0  0  0  0
    6.0521   -0.3427   -0.8297 H   0  0  0  0  0  0  0  0  0  0  0  0
    6.7464   -1.0268    0.5818 H   0  0  0  0  0  0  0  0  0  0  0  0
    6.2620   -3.1401   -0.8245 H   0  0  0  0  0  0  0  0  0  0  0  0
    2.7209   -1.0122   -0.5435 H   0  0  0  0  0  0  0  0  0  0  0  0
    3.1189   -0.8485   -2.5769 H   0  0  0  0  0  0  0  0  0  0  0  0
    1.9936   -3.0805   -0.7375 H   0  0  0  0  0  0  0  0  0  0  0  0
    2.8603   -3.2163   -2.2027 H   0  0  0  0  0  0  0  0  0  0  0  0
    3.2092   -5.0672   -0.6859 H   0  0  0  0  0  0  0  0  0  0  0  0
    4.7686   -4.7011   -2.0855 H   0  0  0  0  0  0  0  0  0  0  0  0
    6.9494   -6.6242    3.3781 H   0  0  0  0  0  0  0  0  0  0  0  0
    6.6818   -7.4861    4.8248 H   0  0  0  0  0  0  0  0  0  0  0  0
    6.5043   -5.7385    4.8236 H   0  0  0  0  0  0  0  0  0  0  0  0
    1.6713  -10.7511    4.3967 H   0  0  0  0  0  0  0  0  0  0  0  0
  1  2  1  0
  1 33  1  0
  1 34  1  0
  1 35  1  0
  2 31  1  0
  2  3  1  0
  2 36  1  1
  3  4  1  0
  3 37  1  0
  3 38  1  0
  4  5  1  0
  4  6  1  0
  4 39  1  1
  5 40  1  0
  5 41  1  0
  5 78  1  0
  6  7  1  0
  6  8  1  0
  6  9  1  0
  7 42  1  0
  7 43  1  0
  7 44  1  0
  8 45  1  0
  8 46  1  0
  8 47  1  0
  9 31  1  0
  9 10  1  0
  9 48  1  1
 10 11  1  0
 10 49  1  0
 10 50  1  0
 11 12  1  0
 11 51  1  0
 11 52  1  0
 30 12  1  1
 12 13  1  1
 12 14  1  0
 13 53  1  0
 13 54  1  0
 13 55  1  0
 14 15  1  0
 14 31  1  0
 14 56  1  1
 15 16  1  0
 15 17  1  0
 15 57  1  6
 16 58  1  0
 17 30  1  0
 17 18  1  0
 17 59  1  6
 18 19  1  0
 18 20  1  0
 18 60  1  6
 19 61  1  0
 20 30  1  0
 20 21  1  1
 20 22  1  0
 21 62  1  0
 21 63  1  0
 21 64  1  0
 22 23  1  0
 22 25  1  0
 22 65  1  1
 23 24  1  0
 23 66  1  0
 23 67  1  0
 24 68  1  0
 25 26  1  0
 25 27  1  0
 25 69  1  1
 26 70  1  0
 27 28  1  0
 27 71  1  0
 27 72  1  0
 28 29  1  0
 28 30  1  0
 28 73  1  1
 29 74  1  0
 31 32  1  1
 32 75  1  0
 32 76  1  0
 32 77  1  0
M  CHG  1   5   1
M  END
>  <i_m_ct_stereo_status>  (143) 
1

>  <s_m_source_file>  (143) 
/var/tmp/pbs.5076255.sched01/tmp276pg2sv/48_ir7zhrj.sdf

>  <i_m_source_file_index>  (143) 
16

>  <i_lp_mmshare_version>  (143) 
48012

>  <i_f3d_flags>  (143) 
0

>  <s_epik_input>  (143) 
W0NIM11bQ0BASF0xW0NIMl1bQ0BASF0oW05IMl0pQyhbQ0gzXSkoW0NIM10pW0NAQEhdKFtDSDJdW0NIMl0yKVtDQEBdMShbQ0gzXSlbQ0BASF0oW0NAQF0yKFtDQEBdMzQ1KVtDSDNdKVtDQEBIXShbT0hdKVtDQEhdM1tDQEBIXShbT0hdKVtDQF00KFtDSDNdKVtDQEBIXShbQ0gyXVtPSF0pW0NAQEhdKFtPSF0pW0NIMl1bQ0BIXTVbT0hd

>  <s_epik_cmdline>  (143) 
J2VwaWtfcHl0aG9uJywgJy1waHQnLCAnMi4wJywgJy1waCcsICc3LjAnLCAnLXRuJywgJzgnLCAnLW1hJywgJzIwMCcsICctaW1hZScsICc8aW5maWxlLm1hZT4nLCAnLW9tYWUnLCAnPG91dGZpbGUubWFlPic=

>  <r_lp_tautomer_probability>  (143) 
1

>  <r_epik_Ionization_Penalty>  (143) 
0.000114492

>  <r_epik_Ionization_Penalty_Charging>  (143) 
0.000112088

>  <r_epik_Ionization_Penalty_Neutral>  (143) 
2.40426e-06

>  <r_epik_State_Penalty>  (143) 
-0

>  <r_epik_Charging_Adjusted_Penalty>  (143) 
0.000112088

>  <i_epik_Tot_Q>  (143) 
1

>  <i_epik_Tot_abs_Q>  (143) 
1

>  <s_lp_Force_Field>  (143) 
OPLS3e

>  <r_lp_Energy>  (143) 
124.611

>  <b_lp_Chiralities_Consistent>  (143) 
1

>  <s_lp_Variant>  (143) 
40:0-1

>  <s_i_glide_gridfile>  (143) 
pfpi4k_grid

>  <i_i_glide_lignum>  (143) 
16

>  <i_i_glide_rotatable_bonds>  (143) 
6

>  <r_i_docking_score>  (143) 
-3.98599

>  <r_i_glide_ligand_efficiency>  (143) 
-0.124562

>  <r_i_glide_ligand_efficiency_sa>  (143) 
-0.39546

>  <r_i_glide_ligand_efficiency_ln>  (143) 
-0.892572

>  <r_i_glide_gscore>  (143) 
-3.98599

>  <r_i_glide_lipo>  (143) 
-0.37587

>  <r_i_glide_hbond>  (143) 
0

>  <r_i_glide_metal>  (143) 
-0

>  <r_i_glide_rewards>  (143) 
-1.32286

>  <r_i_glide_evdw>  (143) 
-19.7175

>  <r_i_glide_ecoul>  (143) 
-9.12907

>  <r_i_glide_erotb>  (143) 
0.0979396

>  <r_i_glide_esite>  (143) 
-0.0299628

>  <r_i_glide_emodel>  (143) 
-49.5807

>  <r_i_glide_energy>  (143) 
-28.8466

>  <r_i_glide_einternal>  (143) 
2.58826

>  <r_i_glide_intrahb_reward>  (143) 
-1

>  <i_i_glide_confnum>  (143) 
3

>  <i_i_glide_posenum>  (143) 
2

>  <r_i_glide_eff_state_penalty>  (143) 
0

>  <ligand_id>  (143) 
40

>  <original_smiles>  (143) 
CC1CC(N)C(C)(C)C2CCC3(C)C(C(O)C4C(O)C5(C)C(CO)C(O)CC(O)C435)C12C

>  <smiles>  (143) 
[H]OC([H])([H])C1([H])C([H])(O[H])C([H])([H])C([H])(O[H])C23C([H])(C([H])(O[H])C4([H])C5(C([H])([H])[H])C([H])(C([H])([H])[H])C([H])([H])C([H])([N+]([H])([H])[H])C(C([H])([H])[H])(C([H])([H])[H])C5([H])C([H])([H])C([H])([H])C42C([H])([H])[H])C([H])(O[H])C13C([H])([H])[H]

$$$$
40:0:2
     RDKit          3D

 78 82  0  0  1  0  0  0  0  0999 V2000
    4.1948   -7.2503    6.0369 C   0  0  0  0  0  0  0  0  0  0  0  0
    3.6812   -6.8431    4.6307 C   0  0  2  0  0  0  0  0  0  0  0  0
    2.6576   -7.8920    4.1525 C   0  0  0  0  0  0  0  0  0  0  0  0
    3.3332   -9.2023    3.7714 C   0  0  1  0  0  0  0  0  0  0  0  0
    2.3125  -10.2532    3.5468 N   0  0  0  0  0  0  0  0  0  0  0  0
    4.2873   -9.0282    2.5604 C   0  0  0  0  0  0  0  0  0  0  0  0
    5.1873  -10.2926    2.5150 C   0  0  0  0  0  0  0  0  0  0  0  0
    3.4962   -9.0131    1.2316 C   0  0  0  0  0  0  0  0  0  0  0  0
    5.2399   -7.7688    2.7559 C   0  0  1  0  0  0  0  0  0  0  0  0
    6.0665   -7.3626    1.5124 C   0  0  0  0  0  0  0  0  0  0  0  0
    5.4160   -6.2775    0.6255 C   0  0  0  0  0  0  0  0  0  0  0  0
    5.1519   -4.9143    1.3181 C   0  0  2  0  0  0  0  0  0  0  0  0
    6.4960   -4.2557    1.6456 C   0  0  0  0  0  0  0  0  0  0  0  0
    4.2981   -5.2745    2.6049 C   0  0  1  0  0  0  0  0  0  0  0  0
    2.8526   -5.2649    2.0535 C   0  0  1  0  0  0  0  0  0  0  0  0
    1.8155   -5.0054    2.9703 O   0  0  0  0  0  0  0  0  0  0  0  0
    2.8233   -4.2567    0.9178 C   0  0  1  0  0  0  0  0  0  0  0  0
    2.5284   -2.7733    1.0650 C   0  0  1  0  0  0  0  0  0  0  0  0
    1.8391   -2.2955    2.1956 O   0  0  0  0  0  0  0  0  0  0  0  0
    4.0034   -2.4023    0.8665 C   0  0  2  0  0  0  0  0  0  0  0  0
    4.6009   -1.8097    2.1628 C   0  0  0  0  0  0  0  0  0  0  0  0
    4.2484   -1.3290   -0.2522 C   0  0  1  0  0  0  0  0  0  0  0  0
    5.6928   -0.7469   -0.3435 C   0  0  0  0  0  0  0  0  0  0  0  0
    6.7289   -1.6528   -0.6288 O   0  0  0  0  0  0  0  0  0  0  0  0
    3.6394   -1.7051   -1.6470 C   0  0  1  0  0  0  0  0  0  0  0  0
    4.1912   -1.0026   -2.7427 O   0  0  0  0  0  0  0  0  0  0  0  0
    3.5892   -3.2056   -1.9708 C   0  0  0  0  0  0  0  0  0  0  0  0
    4.4588   -4.1040   -1.0779 C   0  0  1  0  0  0  0  0  0  0  0  0
    5.7779   -3.8845   -1.4867 O   0  0  0  0  0  0  0  0  0  0  0  0
    4.2514   -3.9299    0.4585 C   0  0  1  0  0  0  0  0  0  0  0  0
    4.7676   -6.4898    3.5434 C   0  0  1  0  0  0  0  0  0  0  0  0
    6.0233   -5.9642    4.3075 C   0  0  0  0  0  0  0  0  0  0  0  0
    4.8976   -8.0854    6.0058 H   0  0  0  0  0  0  0  0  0  0  0  0
    3.3658   -7.5463    6.6834 H   0  0  0  0  0  0  0  0  0  0  0  0
    4.6837   -6.4187    6.5468 H   0  0  0  0  0  0  0  0  0  0  0  0
    3.1347   -5.9255    4.8461 H   0  0  0  0  0  0  0  0  0  0  0  0
    1.9331   -8.0540    4.9473 H   0  0  0  0  0  0  0  0  0  0  0  0
    2.0789   -7.5217    3.3167 H   0  0  0  0  0  0  0  0  0  0  0  0
    3.9038   -9.5541    4.6229 H   0  0  0  0  0  0  0  0  0  0  0  0
    1.7340   -9.9922    2.7712 H   0  0  0  0  0  0  0  0  0  0  0  0
    1.7543  -10.3511    4.3751 H   0  0  0  0  0  0  0  0  0  0  0  0
    5.8818  -10.2857    1.6737 H   0  0  0  0  0  0  0  0  0  0  0  0
    4.5993  -11.2064    2.4282 H   0  0  0  0  0  0  0  0  0  0  0  0
    5.7798  -10.4023    3.4235 H   0  0  0  0  0  0  0  0  0  0  0  0
    4.1342   -8.8535    0.3628 H   0  0  0  0  0  0  0  0  0  0  0  0
    2.7072   -8.2695    1.2209 H   0  0  0  0  0  0  0  0  0  0  0  0
    3.0084   -9.9685    1.0418 H   0  0  0  0  0  0  0  0  0  0  0  0
    5.9995   -8.1938    3.4132 H   0  0  0  0  0  0  0  0  0  0  0  0
    7.0550   -7.0394    1.8270 H   0  0  0  0  0  0  0  0  0  0  0  0
    6.2678   -8.2395    0.9027 H   0  0  0  0  0  0  0  0  0  0  0  0
    6.0694   -6.1223   -0.2266 H   0  0  0  0  0  0  0  0  0  0  0  0
    4.4829   -6.6661    0.2161 H   0  0  0  0  0  0  0  0  0  0  0  0
    6.4210   -3.7912    2.6167 H   0  0  0  0  0  0  0  0  0  0  0  0
    6.7573   -3.4756    0.9511 H   0  0  0  0  0  0  0  0  0  0  0  0
    7.3512   -4.9303    1.6525 H   0  0  0  0  0  0  0  0  0  0  0  0
    4.3173   -4.4136    3.2696 H   0  0  0  0  0  0  0  0  0  0  0  0
    2.6416   -6.2385    1.6134 H   0  0  0  0  0  0  0  0  0  0  0  0
    1.8658   -4.0860    3.2104 H   0  0  0  0  0  0  0  0  0  0  0  0
    2.2329   -4.6302    0.0839 H   0  0  0  0  0  0  0  0  0  0  0  0
    1.9420   -2.5208    0.1896 H   0  0  0  0  0  0  0  0  0  0  0  0
    1.4411   -1.4793    1.9254 H   0  0  0  0  0  0  0  0  0  0  0  0
    5.6886   -1.7686    2.1512 H   0  0  0  0  0  0  0  0  0  0  0  0
    4.2936   -2.3557    3.0520 H   0  0  0  0  0  0  0  0  0  0  0  0
    4.2503   -0.7920    2.3257 H   0  0  0  0  0  0  0  0  0  0  0  0
    3.6834   -0.4376    0.0359 H   0  0  0  0  0  0  0  0  0  0  0  0
    5.7009   -0.0636   -1.1777 H   0  0  0  0  0  0  0  0  0  0  0  0
    5.9701   -0.1562    0.5274 H   0  0  0  0  0  0  0  0  0  0  0  0
    6.3648   -2.4147   -1.0474 H   0  0  0  0  0  0  0  0  0  0  0  0
    2.6178   -1.3668   -1.6509 H   0  0  0  0  0  0  0  0  0  0  0  0
    3.8930   -0.1017   -2.7066 H   0  0  0  0  0  0  0  0  0  0  0  0
    2.5541   -3.5240   -1.8684 H   0  0  0  0  0  0  0  0  0  0  0  0
    3.8133   -3.3793   -3.0255 H   0  0  0  0  0  0  0  0  0  0  0  0
    4.2161   -5.1051   -1.3480 H   0  0  0  0  0  0  0  0  0  0  0  0
    6.3272   -4.4757   -0.9963 H   0  0  0  0  0  0  0  0  0  0  0  0
    6.8693   -5.7598    3.6603 H   0  0  0  0  0  0  0  0  0  0  0  0
    6.4273   -6.6904    5.0115 H   0  0  0  0  0  0  0  0  0  0  0  0
    5.8181   -5.0497    4.8698 H   0  0  0  0  0  0  0  0  0  0  0  0
    2.7671  -11.1258    3.3469 H   0  0  0  0  0  0  0  0  0  0  0  0
  1  2  1  0
  1 33  1  0
  1 34  1  0
  1 35  1  0
  2 31  1  0
  2  3  1  0
  2 36  1  1
  3  4  1  0
  3 37  1  0
  3 38  1  0
  4  5  1  0
  4  6  1  0
  4 39  1  1
  5 40  1  0
  5 41  1  0
  5 78  1  0
  6  7  1  0
  6  8  1  0
  6  9  1  0
  7 42  1  0
  7 43  1  0
  7 44  1  0
  8 45  1  0
  8 46  1  0
  8 47  1  0
  9 31  1  0
  9 10  1  0
  9 48  1  1
 10 11  1  0
 10 49  1  0
 10 50  1  0
 11 12  1  0
 11 51  1  0
 11 52  1  0
 30 12  1  1
 12 13  1  1
 12 14  1  0
 13 53  1  0
 13 54  1  0
 13 55  1  0
 14 15  1  0
 14 31  1  0
 14 56  1  1
 15 16  1  0
 15 17  1  0
 15 57  1  6
 16 58  1  0
 17 30  1  0
 17 18  1  0
 17 59  1  6
 18 19  1  0
 18 20  1  0
 18 60  1  6
 19 61  1  0
 20 30  1  0
 20 21  1  1
 20 22  1  0
 21 62  1  0
 21 63  1  0
 21 64  1  0
 22 23  1  0
 22 25  1  0
 22 65  1  1
 23 24  1  0
 23 66  1  0
 23 67  1  0
 24 68  1  0
 25 26  1  0
 25 27  1  0
 25 69  1  1
 26 70  1  0
 27 28  1  0
 27 71  1  0
 27 72  1  0
 28 29  1  0
 28 30  1  0
 28 73  1  6
 29 74  1  0
 31 32  1  1
 32 75  1  0
 32 76  1  0
 32 77  1  0
M  CHG  1   5   1
M  END
>  <i_m_ct_stereo_status>  (144) 
1

>  <s_m_source_file>  (144) 
/var/tmp/pbs.5076255.sched01/tmp276pg2sv/48_ir7zhrj.sdf

>  <i_m_source_file_index>  (144) 
16

>  <i_lp_mmshare_version>  (144) 
48012

>  <i_f3d_flags>  (144) 
0

>  <s_epik_input>  (144) 
W0NIM11bQ0BASF0xW0NIMl1bQ0BASF0oW05IMl0pQyhbQ0gzXSkoW0NIM10pW0NAQEhdKFtDSDJdW0NIMl0yKVtDQEBdMShbQ0gzXSlbQ0BASF0oW0NAQF0yKFtDQEBdMzQ1KVtDSDNdKVtDQEBIXShbT0hdKVtDQEhdM1tDQEBIXShbT0hdKVtDQF00KFtDSDNdKVtDQEBIXShbQ0gyXVtPSF0pW0NAQEhdKFtPSF0pW0NIMl1bQ0BIXTVbT0hd

>  <s_epik_cmdline>  (144) 
J2VwaWtfcHl0aG9uJywgJy1waHQnLCAnMi4wJywgJy1waCcsICc3LjAnLCAnLXRuJywgJzgnLCAnLW1hJywgJzIwMCcsICctaW1hZScsICc8aW5maWxlLm1hZT4nLCAnLW9tYWUnLCAnPG91dGZpbGUubWFlPic=

>  <r_lp_tautomer_probability>  (144) 
1

>  <r_epik_Ionization_Penalty>  (144) 
0.000114492

>  <r_epik_Ionization_Penalty_Charging>  (144) 
0.000112088

>  <r_epik_Ionization_Penalty_Neutral>  (144) 
2.40426e-06

>  <r_epik_State_Penalty>  (144) 
-0

>  <r_epik_Charging_Adjusted_Penalty>  (144) 
0.000112088

>  <i_epik_Tot_Q>  (144) 
1

>  <i_epik_Tot_abs_Q>  (144) 
1

>  <s_lp_Force_Field>  (144) 
OPLS3e

>  <r_lp_Energy>  (144) 
124.611

>  <b_lp_Chiralities_Consistent>  (144) 
1

>  <s_lp_Variant>  (144) 
40:0-1

>  <s_i_glide_gridfile>  (144) 
pfpi4k_grid

>  <i_i_glide_lignum>  (144) 
16

>  <i_i_glide_rotatable_bonds>  (144) 
6

>  <r_i_docking_score>  (144) 
-3.82198

>  <r_i_glide_ligand_efficiency>  (144) 
-0.119437

>  <r_i_glide_ligand_efficiency_sa>  (144) 
-0.379188

>  <r_i_glide_ligand_efficiency_ln>  (144) 
-0.855844

>  <r_i_glide_gscore>  (144) 
-3.82198

>  <r_i_glide_lipo>  (144) 
-0.389941

>  <r_i_glide_hbond>  (144) 
0

>  <r_i_glide_metal>  (144) 
-0

>  <r_i_glide_rewards>  (144) 
-1.32286

>  <r_i_glide_evdw>  (144) 
-15.547

>  <r_i_glide_ecoul>  (144) 
-9.53177

>  <r_i_glide_erotb>  (144) 
0.0979396

>  <r_i_glide_esite>  (144) 
0

>  <r_i_glide_emodel>  (144) 
-45.0087

>  <r_i_glide_energy>  (144) 
-25.0787

>  <r_i_glide_einternal>  (144) 
2.93454

>  <r_i_glide_intrahb_reward>  (144) 
-1

>  <i_i_glide_confnum>  (144) 
2

>  <i_i_glide_posenum>  (144) 
7

>  <r_i_glide_eff_state_penalty>  (144) 
0

>  <ligand_id>  (144) 
40

>  <original_smiles>  (144) 
CC1CC(N)C(C)(C)C2CCC3(C)C(C(O)C4C(O)C5(C)C(CO)C(O)CC(O)C435)C12C

>  <smiles>  (144) 
[H]OC([H])([H])C1([H])C([H])(O[H])C([H])([H])C([H])(O[H])C23C([H])(C([H])(O[H])C4([H])C5(C([H])([H])[H])C([H])(C([H])([H])[H])C([H])([H])C([H])([N+]([H])([H])[H])C(C([H])([H])[H])(C([H])([H])[H])C5([H])C([H])([H])C([H])([H])C42C([H])([H])[H])C([H])(O[H])C13C([H])([H])[H]

$$$$
41:0:0
     RDKit          3D

 82 87  0  0  1  0  0  0  0  0999 V2000
    3.2722   -1.5662   -3.8935 C   0  0  0  0  0  0  0  0  0  0  0  0
    3.3840   -2.1747   -2.8477 C   0  0  0  0  0  0  0  0  0  0  0  0
    3.4509   -2.8386   -1.5297 C   0  0  0  0  0  0  0  0  0  0  0  0
    4.8317   -2.7550   -0.8025 C   0  0  2  0  0  0  0  0  0  0  0  0
    5.7435   -3.8777   -1.3368 C   0  0  0  0  0  0  0  0  0  0  0  0
    4.7360   -2.7645    0.7628 C   0  0  2  0  0  0  0  0  0  0  0  0
    3.8090   -3.8528    1.3368 C   0  0  0  0  0  0  0  0  0  0  0  0
    3.1420   -3.2458    2.5695 C   0  0  0  0  0  0  0  0  0  0  0  0
    3.9105   -1.9561    2.9405 C   0  0  2  0  0  0  0  0  0  0  0  0
    5.0923   -2.4071    3.8318 C   0  0  0  0  0  0  0  0  0  0  0  0
    2.9791   -0.9555    3.7511 C   0  0  1  0  0  0  0  0  0  0  0  0
    3.7056    0.1633    4.5444 C   0  0  0  0  0  0  0  0  0  0  0  0
    2.7371    0.9451    5.4372 C   0  0  0  0  0  0  0  0  0  0  0  0
    1.5857    1.5648    4.6181 C   0  0  2  0  0  0  0  0  0  0  0  0
    0.5647    2.4017    5.4419 C   0  0  2  0  0  0  0  0  0  0  0  0
   -0.6056    1.5725    6.0588 C   0  0  1  0  0  0  0  0  0  0  0  0
   -0.3137    0.0847    6.1570 C   0  0  0  0  0  0  0  0  0  0  0  0
    0.0068   -0.4300    4.7234 C   0  0  0  0  0  0  0  0  0  0  0  0
    0.8096    0.5560    3.7701 C   0  0  1  0  0  0  0  0  0  0  0  0
   -0.1721    1.4159    2.8603 C   0  0  0  0  0  0  0  0  0  0  0  0
   -0.8207    2.7586    3.3710 C   0  0  0  0  0  0  0  0  0  0  0  0
   -0.1038    3.4835    4.5743 C   0  0  2  0  0  0  0  0  0  0  0  0
    0.9257    4.5164    4.0449 C   0  0  0  0  0  0  0  0  0  0  0  0
   -1.0805    4.3152    5.4787 C   0  0  0  0  0  0  0  0  0  0  0  0
   -1.9376    3.5583    6.5300 C   0  0  0  0  0  0  0  0  0  0  0  0
   -1.2152    2.3823    7.2126 C   0  0  1  0  0  0  0  0  0  0  0  0
   -2.1516    1.5932    8.1226 C   0  0  0  0  0  0  0  0  0  0  0  0
    1.8215   -0.3117    2.9085 C   0  0  1  0  0  0  0  0  0  0  0  0
    2.4829    0.3545    1.6796 C   0  0  0  0  0  0  0  0  0  0  0  0
    3.2183   -0.7063    0.8514 C   0  0  0  0  0  0  0  0  0  0  0  0
    4.3908   -1.4388    1.5378 C   0  0  2  0  0  0  0  0  0  0  0  0
    5.6280   -0.5086    1.5935 C   0  0  0  0  0  0  0  0  0  0  0  0
    3.0774   -1.0007   -4.7684 H   0  0  0  0  0  0  0  0  0  0  0  0
    2.6389   -2.4161   -0.9554 H   0  0  0  0  0  0  0  0  0  0  0  0
    3.1917   -3.8911   -1.6974 H   0  0  0  0  0  0  0  0  0  0  0  0
    5.3124   -1.8185   -1.0784 H   0  0  0  0  0  0  0  0  0  0  0  0
    5.4414   -4.8418   -0.9416 H   0  0  0  0  0  0  0  0  0  0  0  0
    6.7870   -3.7254   -1.0834 H   0  0  0  0  0  0  0  0  0  0  0  0
    5.6792   -3.9546   -2.4187 H   0  0  0  0  0  0  0  0  0  0  0  0
    5.7348   -3.0315    1.0952 H   0  0  0  0  0  0  0  0  0  0  0  0
    3.0305   -4.1653    0.6426 H   0  0  0  0  0  0  0  0  0  0  0  0
    4.3797   -4.7497    1.5832 H   0  0  0  0  0  0  0  0  0  0  0  0
    2.1129   -3.0290    2.3037 H   0  0  0  0  0  0  0  0  0  0  0  0
    3.1015   -3.9552    3.3922 H   0  0  0  0  0  0  0  0  0  0  0  0
    5.8035   -1.6056    4.0240 H   0  0  0  0  0  0  0  0  0  0  0  0
    5.6523   -3.2271    3.3822 H   0  0  0  0  0  0  0  0  0  0  0  0
    4.7307   -2.7637    4.7959 H   0  0  0  0  0  0  0  0  0  0  0  0
    2.5475   -1.5963    4.5179 H   0  0  0  0  0  0  0  0  0  0  0  0
    4.4808   -0.2485    5.1852 H   0  0  0  0  0  0  0  0  0  0  0  0
    4.1879    0.8751    3.8828 H   0  0  0  0  0  0  0  0  0  0  0  0
    2.3924    0.2826    6.2246 H   0  0  0  0  0  0  0  0  0  0  0  0
    3.2850    1.7457    5.9318 H   0  0  0  0  0  0  0  0  0  0  0  0
    2.0988    2.2163    3.9158 H   0  0  0  0  0  0  0  0  0  0  0  0
    1.1322    2.8884    6.2325 H   0  0  0  0  0  0  0  0  0  0  0  0
   -1.4488    1.5018    5.3708 H   0  0  0  0  0  0  0  0  0  0  0  0
    0.4744   -0.1044    6.8775 H   0  0  0  0  0  0  0  0  0  0  0  0
   -1.1930   -0.4459    6.5278 H   0  0  0  0  0  0  0  0  0  0  0  0
    0.5105   -1.3854    4.8544 H   0  0  0  0  0  0  0  0  0  0  0  0
   -0.9278   -0.7017    4.2420 H   0  0  0  0  0  0  0  0  0  0  0  0
    0.3322    1.7605    1.9615 H   0  0  0  0  0  0  0  0  0  0  0  0
   -0.9631    0.7801    2.4796 H   0  0  0  0  0  0  0  0  0  0  0  0
   -0.8812    3.4026    2.4854 H   0  0  0  0  0  0  0  0  0  0  0  0
   -1.8781    2.5803    3.6138 H   0  0  0  0  0  0  0  0  0  0  0  0
    0.4368    5.4027    3.6401 H   0  0  0  0  0  0  0  0  0  0  0  0
    1.5654    4.1387    3.2481 H   0  0  0  0  0  0  0  0  0  0  0  0
    1.5755    4.8615    4.8503 H   0  0  0  0  0  0  0  0  0  0  0  0
   -0.5012    5.0648    6.0287 H   0  0  0  0  0  0  0  0  0  0  0  0
   -1.7483    4.8745    4.8342 H   0  0  0  0  0  0  0  0  0  0  0  0
   -2.2720    4.2587    7.2921 H   0  0  0  0  0  0  0  0  0  0  0  0
   -2.8533    3.1927    6.0532 H   0  0  0  0  0  0  0  0  0  0  0  0
   -0.4188    2.7779    7.8449 H   0  0  0  0  0  0  0  0  0  0  0  0
   -2.9718    1.1518    7.5540 H   0  0  0  0  0  0  0  0  0  0  0  0
   -2.5802    2.2273    8.9002 H   0  0  0  0  0  0  0  0  0  0  0  0
   -1.5855    0.8139    8.6273 H   0  0  0  0  0  0  0  0  0  0  0  0
    1.1925   -1.1037    2.5122 H   0  0  0  0  0  0  0  0  0  0  0  0
    1.7494    0.7235    0.9745 H   0  0  0  0  0  0  0  0  0  0  0  0
    3.1111    1.2086    1.9444 H   0  0  0  0  0  0  0  0  0  0  0  0
    2.4730   -1.4469    0.5944 H   0  0  0  0  0  0  0  0  0  0  0  0
    3.5527   -0.2580   -0.0795 H   0  0  0  0  0  0  0  0  0  0  0  0
    5.5164    0.2448    2.3598 H   0  0  0  0  0  0  0  0  0  0  0  0
    5.7889    0.0081    0.6498 H   0  0  0  0  0  0  0  0  0  0  0  0
    6.5474   -1.0416    1.8248 H   0  0  0  0  0  0  0  0  0  0  0  0
  1  2  3  0
  1 33  1  0
  2  3  1  0
  3  4  1  0
  3 34  1  0
  3 35  1  0
  4  5  1  0
  4  6  1  0
  4 36  1  1
  5 37  1  0
  5 38  1  0
  5 39  1  0
  6 31  1  0
  6  7  1  0
  6 40  1  1
  7  8  1  0
  7 41  1  0
  7 42  1  0
  8  9  1  0
  8 43  1  0
  8 44  1  0
  9 31  1  0
  9 10  1  1
  9 11  1  0
 10 45  1  0
 10 46  1  0
 10 47  1  0
 11 28  1  0
 11 12  1  0
 11 48  1  1
 12 13  1  0
 12 49  1  0
 12 50  1  0
 13 14  1  0
 13 51  1  0
 13 52  1  0
 14 19  1  0
 14 15  1  0
 14 53  1  6
 15 22  1  0
 15 16  1  0
 15 54  1  1
 16 26  1  0
 16 17  1  0
 16 55  1  6
 17 18  1  0
 17 56  1  0
 17 57  1  0
 19 18  1  1
 18 58  1  0
 18 59  1  0
 19 20  1  0
 19 28  1  0
 20 21  1  0
 20 60  1  0
 20 61  1  0
 21 22  1  0
 21 62  1  0
 21 63  1  0
 22 23  1  6
 22 24  1  0
 23 64  1  0
 23 65  1  0
 23 66  1  0
 24 25  1  0
 24 67  1  0
 24 68  1  0
 25 26  1  0
 25 69  1  0
 25 70  1  0
 26 27  1  0
 26 71  1  1
 27 72  1  0
 27 73  1  0
 27 74  1  0
 28 29  1  0
 28 75  1  6
 29 30  1  0
 29 76  1  0
 29 77  1  0
 30 31  1  0
 30 78  1  0
 30 79  1  0
 31 32  1  1
 32 80  1  0
 32 81  1  0
 32 82  1  0
M  END
>  <i_m_ct_stereo_status>  (145) 
1

>  <s_m_source_file>  (145) 
/var/tmp/pbs.5076255.sched01/tmp276pg2sv/48_ir7zhrj.sdf

>  <i_m_source_file_index>  (145) 
17

>  <i_lp_mmshare_version>  (145) 
48012

>  <i_f3d_flags>  (145) 
0

>  <s_epik_input>  (145) 
W0NIXSNDW0NIMl1bQ0BIXShbQ0gzXSlbQ0BIXShbQ0gyXVtDSDJdMSlbQ0BAXShbQ0gzXSkoW0NIMl1bQ0gyXVtDQEBIXTIzKVtDQEBdMShbQ0gzXSlbQ0BIXTJbQ0gyXVtDSDJdW0NAQEhdKFtDQEBdMzQ1KVtDQEBIXTZbQ0BASF0oW0NIMl1bQ0gyXTQpW0NASF0oW0NIM10pW0NIMl1bQ0gyXVtDQF02KFtDSDNdKVtDSDJdW0NIMl01

>  <s_epik_cmdline>  (145) 
J2VwaWtfcHl0aG9uJywgJy1waHQnLCAnMi4wJywgJy1waCcsICc3LjAnLCAnLXRuJywgJzgnLCAnLW1hJywgJzIwMCcsICctaW1hZScsICc8aW5maWxlLm1hZT4nLCAnLW9tYWUnLCAnPG91dGZpbGUubWFlPic=

>  <r_lp_tautomer_probability>  (145) 
1

>  <r_epik_Ionization_Penalty>  (145) 
0

>  <r_epik_Ionization_Penalty_Charging>  (145) 
0

>  <r_epik_Ionization_Penalty_Neutral>  (145) 
0

>  <r_epik_State_Penalty>  (145) 
-0

>  <r_epik_Charging_Adjusted_Penalty>  (145) 
0

>  <i_epik_Tot_Q>  (145) 
0

>  <i_epik_Tot_abs_Q>  (145) 
0

>  <s_lp_Force_Field>  (145) 
OPLS3e

>  <r_lp_Energy>  (145) 
113.115

>  <b_lp_Chiralities_Consistent>  (145) 
1

>  <s_lp_Variant>  (145) 
41:0-1

>  <s_i_glide_gridfile>  (145) 
pfpi4k_grid

>  <i_i_glide_lignum>  (145) 
17

>  <i_i_glide_rotatable_bonds>  (145) 
3

>  <r_i_docking_score>  (145) 
-1.83072

>  <r_i_glide_ligand_efficiency>  (145) 
-0.05721

>  <r_i_glide_ligand_efficiency_sa>  (145) 
-0.18163

>  <r_i_glide_ligand_efficiency_ln>  (145) 
-0.409948

>  <r_i_glide_gscore>  (145) 
-1.83072

>  <r_i_glide_lipo>  (145) 
-0.407

>  <r_i_glide_hbond>  (145) 
0

>  <r_i_glide_metal>  (145) 
-0

>  <r_i_glide_rewards>  (145) 
-0.444959

>  <r_i_glide_evdw>  (145) 
-25.7216

>  <r_i_glide_ecoul>  (145) 
-0.0589921

>  <r_i_glide_erotb>  (145) 
0.316167

>  <r_i_glide_esite>  (145) 
0

>  <r_i_glide_emodel>  (145) 
-23.327

>  <r_i_glide_energy>  (145) 
-25.7806

>  <r_i_glide_einternal>  (145) 
7.19043

>  <r_i_glide_intrahb_reward>  (145) 
-0

>  <i_i_glide_confnum>  (145) 
5

>  <i_i_glide_posenum>  (145) 
23

>  <r_i_glide_eff_state_penalty>  (145) 
0

>  <ligand_id>  (145) 
41

>  <original_smiles>  (145) 
C#CCC(C)C1CCC2(C)C3CCC4C5C6CCC4(CCC5(C)CCC6C)C3CCC12C

>  <smiles>  (145) 
[H]C#CC([H])([H])C([H])(C([H])([H])[H])C1([H])C([H])([H])C([H])([H])C2(C([H])([H])[H])C3([H])C([H])([H])C([H])([H])C4([H])C5([H])C6([H])C([H])([H])C([H])([H])C4(C([H])([H])C([H])([H])C5(C([H])([H])[H])C([H])([H])C([H])([H])C6([H])C([H])([H])[H])C3([H])C([H])([H])C([H])([H])C12C([H])([H])[H]

$$$$
42:0:0
     RDKit          3D

 66 70  0  0  1  0  0  0  0  0999 V2000
    3.2913   -2.3567   -2.2278 C   0  0  0  0  0  0  0  0  0  0  0  0
    3.6782   -2.2393   -0.7425 C   0  0  0  0  0  0  0  0  0  0  0  0
    5.2058   -2.2964   -0.4510 C   0  0  1  0  0  0  0  0  0  0  0  0
    5.8825   -3.5244   -1.0677 C   0  0  0  0  0  0  0  0  0  0  0  0
    5.8253   -1.1849   -1.0883 O   0  0  0  0  0  0  0  0  0  0  0  0
    5.5215   -2.2803    1.0837 C   0  0  0  0  0  0  0  0  0  0  0  0
    5.2338   -0.9634    1.8175 C   0  0  0  0  0  0  0  0  0  0  0  0
    4.9307    0.0820    1.2185 O   0  0  0  0  0  0  0  0  0  0  0  0
    5.3462   -1.0601    3.1357 O   0  0  0  0  0  0  0  0  0  0  0  0
    5.2453    0.1103    3.9504 C   0  0  0  0  0  0  0  0  0  0  0  0
    3.8058    0.5575    4.3547 C   0  0  1  0  0  0  0  0  0  0  0  0
    3.5492   -0.0344    5.6318 O   0  0  0  0  0  0  0  0  0  0  0  0
    3.7479    2.0694    4.6905 C   0  0  0  0  0  0  0  0  0  0  0  0
    2.3157    2.5548    5.0434 C   0  0  0  0  0  0  0  0  0  0  0  0
    1.3254    2.3523    3.8751 C   0  0  2  0  0  0  0  0  0  0  0  0
    1.7837    3.2970    2.8982 O   0  0  0  0  0  0  0  0  0  0  0  0
   -0.1774    2.6433    4.1655 C   0  0  2  0  0  0  0  0  0  0  0  0
   -0.7226    1.6948    5.2817 C   0  0  0  0  0  0  0  0  0  0  0  0
   -0.4164    0.2153    5.1216 C   0  0  0  0  0  0  0  0  0  0  0  0
   -1.0003   -0.8854    5.7748 C   0  0  0  0  0  0  0  0  0  0  0  0
   -0.4725   -2.1856    5.5608 C   0  0  0  0  0  0  0  0  0  0  0  0
    0.6612   -2.4024    4.7440 C   0  0  0  0  0  0  0  0  0  0  0  0
    1.2041   -3.6460    4.5818 O   0  0  0  0  0  0  0  0  0  0  0  0
    1.2732   -1.2953    4.0977 C   0  0  0  0  0  0  0  0  0  0  0  0
    0.6593   -0.0727    4.2876 C   0  0  0  0  0  0  0  0  0  0  0  0
    1.3586    0.8908    3.3711 C   0  0  1  0  0  0  0  0  0  0  0  0
    0.6235    0.8405    2.0098 C   0  0  0  0  0  0  0  0  0  0  0  0
   -0.8347    1.2582    2.1556 C   0  0  0  0  0  0  0  0  0  0  0  0
   -0.9876    2.5443    2.8888 N   0  0  1  0  0  0  0  0  0  0  0  0
   -2.4102    2.9240    3.0472 C   0  0  0  0  0  0  0  0  0  0  0  0
    2.7347    0.2117    3.2435 C   0  0  2  0  0  0  0  0  0  0  0  0
    2.4014   -1.2080    3.3585 O   0  0  0  0  0  0  0  0  0  0  0  0
    2.2140   -2.2476   -2.3465 H   0  0  0  0  0  0  0  0  0  0  0  0
    3.5637   -3.3280   -2.6389 H   0  0  0  0  0  0  0  0  0  0  0  0
    3.7671   -1.5802   -2.8264 H   0  0  0  0  0  0  0  0  0  0  0  0
    3.2393   -1.3119   -0.3666 H   0  0  0  0  0  0  0  0  0  0  0  0
    3.1733   -3.0352   -0.1909 H   0  0  0  0  0  0  0  0  0  0  0  0
    5.4218   -4.4432   -0.7005 H   0  0  0  0  0  0  0  0  0  0  0  0
    6.9403   -3.5425   -0.8008 H   0  0  0  0  0  0  0  0  0  0  0  0
    5.8206   -3.5072   -2.1570 H   0  0  0  0  0  0  0  0  0  0  0  0
    5.3965   -0.4159   -0.7211 H   0  0  0  0  0  0  0  0  0  0  0  0
    4.9969   -3.1244    1.5796 H   0  0  0  0  0  0  0  0  0  0  0  0
    6.5926   -2.4637    1.2468 H   0  0  0  0  0  0  0  0  0  0  0  0
    5.8301   -0.0491    4.8480 H   0  0  0  0  0  0  0  0  0  0  0  0
    5.7672    0.9278    3.4615 H   0  0  0  0  0  0  0  0  0  0  0  0
    2.6480    0.1021    5.8531 H   0  0  0  0  0  0  0  0  0  0  0  0
    4.4359    2.3012    5.5063 H   0  0  0  0  0  0  0  0  0  0  0  0
    4.1138    2.6331    3.8385 H   0  0  0  0  0  0  0  0  0  0  0  0
    1.9851    2.0291    5.9342 H   0  0  0  0  0  0  0  0  0  0  0  0
    2.3643    3.6098    5.3094 H   0  0  0  0  0  0  0  0  0  0  0  0
    1.1968    3.4060    2.1622 H   0  0  0  0  0  0  0  0  0  0  0  0
   -0.2641    3.6806    4.4943 H   0  0  0  0  0  0  0  0  0  0  0  0
   -0.2855    2.0329    6.2175 H   0  0  0  0  0  0  0  0  0  0  0  0
   -1.7921    1.8301    5.4030 H   0  0  0  0  0  0  0  0  0  0  0  0
   -1.8427   -0.7191    6.4271 H   0  0  0  0  0  0  0  0  0  0  0  0
   -0.9228   -3.0288    6.0365 H   0  0  0  0  0  0  0  0  0  0  0  0
    1.9942   -3.6295    4.0681 H   0  0  0  0  0  0  0  0  0  0  0  0
    1.1070    1.4853    1.2869 H   0  0  0  0  0  0  0  0  0  0  0  0
    0.6712   -0.1425    1.5643 H   0  0  0  0  0  0  0  0  0  0  0  0
   -1.3083    1.3494    1.1850 H   0  0  0  0  0  0  0  0  0  0  0  0
   -1.4009    0.4707    2.6573 H   0  0  0  0  0  0  0  0  0  0  0  0
   -2.9851    2.1565    3.5824 H   0  0  0  0  0  0  0  0  0  0  0  0
   -2.8902    3.0413    2.0759 H   0  0  0  0  0  0  0  0  0  0  0  0
   -2.5163    3.8682    3.5874 H   0  0  0  0  0  0  0  0  0  0  0  0
    3.0502    0.5379    2.2797 H   0  0  0  0  0  0  0  0  0  0  0  0
   -0.6012    3.2586    2.2341 H   0  0  0  0  0  0  0  0  0  0  0  0
  1  2  1  0
  1 33  1  0
  1 34  1  0
  1 35  1  0
  2  3  1  0
  2 36  1  0
  2 37  1  0
  3  4  1  0
  3  5  1  6
  3  6  1  0
  4 38  1  0
  4 39  1  0
  4 40  1  0
  5 41  1  0
  6  7  1  0
  6 42  1  0
  6 43  1  0
  7  8  2  0
  7  9  1  0
  9 10  1  0
 10 11  1  0
 10 44  1  0
 10 45  1  0
 11 31  1  0
 11 12  1  1
 11 13  1  0
 12 46  1  0
 13 14  1  0
 13 47  1  0
 13 48  1  0
 14 15  1  0
 14 49  1  0
 14 50  1  0
 15 26  1  0
 15 16  1  6
 15 17  1  0
 16 51  1  0
 17 29  1  0
 17 18  1  0
 17 52  1  1
 18 19  1  0
 18 53  1  0
 18 54  1  0
 19 25  2  0
 19 20  1  0
 20 21  2  0
 20 55  1  0
 21 22  1  0
 21 56  1  0
 22 23  1  0
 22 24  2  0
 23 57  1  0
 24 32  1  0
 24 25  1  0
 25 26  1  0
 26 27  1  6
 26 31  1  0
 27 28  1  0
 27 58  1  0
 27 59  1  0
 28 29  1  0
 28 60  1  0
 28 61  1  0
 29 30  1  0
 29 66  1  6
 30 62  1  0
 30 63  1  0
 30 64  1  0
 31 32  1  0
 31 65  1  6
M  CHG  1  29   1
M  END
>  <i_m_ct_stereo_status>  (146) 
1

>  <s_m_source_file>  (146) 
/var/tmp/pbs.5076255.sched01/tmp276pg2sv/48_ir7zhrj.sdf

>  <i_m_source_file_index>  (146) 
18

>  <i_lp_mmshare_version>  (146) 
48012

>  <i_f3d_flags>  (146) 
0

>  <s_epik_input>  (146) 
W0NIM11bQ0gyXVtDQEBdKFtDSDNdKShbT0hdKVtDSDJdQyg9TylPW0NIMl1bQ0BAXShbT0hdKShbQ0gyXVtDSDJdMSlbQ0BIXTJPYyhjKFtPSF0pW2NIXVtjSF0zKWM0YzNbQ0gyXVtDQEBIXShbQ0BAXTEoW0NAQF0yNDUpW09IXSlOKFtDSDNdKVtDSDJdW0NIMl01

>  <s_epik_cmdline>  (146) 
J2VwaWtfcHl0aG9uJywgJy1waHQnLCAnMi4wJywgJy1waCcsICc3LjAnLCAnLXRuJywgJzgnLCAnLW1hJywgJzIwMCcsICctaW1hZScsICc8aW5maWxlLm1hZT4nLCAnLW9tYWUnLCAnPG91dGZpbGUubWFlPic=

>  <r_lp_tautomer_probability>  (146) 
1

>  <r_epik_Ionization_Penalty>  (146) 
0.0856461

>  <r_epik_Ionization_Penalty_Charging>  (146) 
0.0761309

>  <r_epik_Ionization_Penalty_Neutral>  (146) 
0.00951519

>  <r_epik_State_Penalty>  (146) 
0.0736071

>  <r_epik_Charging_Adjusted_Penalty>  (146) 
0.149738

>  <i_epik_Tot_Q>  (146) 
1

>  <i_epik_Tot_abs_Q>  (146) 
1

>  <s_epik_Chemistry_Notes>  (146) 
This compound has an ester and may undergo hydrolysis at high or low pH.

>  <s_lp_Force_Field>  (146) 
OPLS3e

>  <r_lp_Energy>  (146) 
63.4196

>  <b_lp_Chiralities_Consistent>  (146) 
1

>  <s_lp_Variant>  (146) 
42:0-1

>  <s_i_glide_gridfile>  (146) 
pfpi4k_grid

>  <i_i_glide_lignum>  (146) 
18

>  <i_i_glide_rotatable_bonds>  (146) 
10

>  <r_i_docking_score>  (146) 
-3.86773

>  <r_i_glide_ligand_efficiency>  (146) 
-0.120867

>  <r_i_glide_ligand_efficiency_sa>  (146) 
-0.383728

>  <r_i_glide_ligand_efficiency_ln>  (146) 
-0.866091

>  <r_i_glide_gscore>  (146) 
-3.86773

>  <r_i_glide_lipo>  (146) 
-0.277487

>  <r_i_glide_hbond>  (146) 
-0.504945

>  <r_i_glide_metal>  (146) 
-0

>  <r_i_glide_rewards>  (146) 
-1.01573

>  <r_i_glide_evdw>  (146) 
-27.0862

>  <r_i_glide_ecoul>  (146) 
-7.565

>  <r_i_glide_erotb>  (146) 
0.497904

>  <r_i_glide_esite>  (146) 
-0.0784175

>  <r_i_glide_emodel>  (146) 
-47.0909

>  <r_i_glide_energy>  (146) 
-34.6512

>  <r_i_glide_einternal>  (146) 
4.3347

>  <r_i_glide_intrahb_reward>  (146) 
-0.5

>  <i_i_glide_confnum>  (146) 
5

>  <i_i_glide_posenum>  (146) 
13

>  <r_i_glide_eff_state_penalty>  (146) 
0

>  <ligand_id>  (146) 
42

>  <original_smiles>  (146) 
CCC(C)(O)CC(=O)OCC1(O)CCC2(O)C3Cc4ccc(O)c5c4C2(CCN3C)C1O5

>  <smiles>  (146) 
[H]Oc1c([H])c([H])c2c3c1OC1([H])C(O[H])(C([H])([H])OC(=O)C([H])([H])C(O[H])(C([H])([H])[H])C([H])([H])C([H])([H])[H])C([H])([H])C([H])([H])C4(O[H])C31C([H])([H])C([H])([H])[N+]([H])(C([H])([H])[H])C4([H])C2([H])[H]

$$$$
42:0:1
     RDKit          3D

 66 70  0  0  1  0  0  0  0  0999 V2000
    3.0177   -2.3288   -2.2974 C   0  0  0  0  0  0  0  0  0  0  0  0
    3.4937   -2.2438   -0.8382 C   0  0  0  0  0  0  0  0  0  0  0  0
    5.0393   -2.2422   -0.6402 C   0  0  1  0  0  0  0  0  0  0  0  0
    5.7247   -3.4337   -1.3248 C   0  0  0  0  0  0  0  0  0  0  0  0
    5.5503   -1.0918   -1.3174 O   0  0  0  0  0  0  0  0  0  0  0  0
    5.4503   -2.2366    0.8663 C   0  0  0  0  0  0  0  0  0  0  0  0
    5.1729   -0.9241    1.6512 C   0  0  0  0  0  0  0  0  0  0  0  0
    4.8492    0.1424    1.1122 O   0  0  0  0  0  0  0  0  0  0  0  0
    5.3486   -1.0576    2.9490 O   0  0  0  0  0  0  0  0  0  0  0  0
    5.2585    0.1012    3.7836 C   0  0  0  0  0  0  0  0  0  0  0  0
    3.8303    0.5415    4.2375 C   0  0  1  0  0  0  0  0  0  0  0  0
    3.6318   -0.1135    5.4823 O   0  0  0  0  0  0  0  0  0  0  0  0
    3.7752    2.0474    4.5892 C   0  0  0  0  0  0  0  0  0  0  0  0
    2.3571    2.5274    4.9701 C   0  0  0  0  0  0  0  0  0  0  0  0
    1.3373    2.3265    3.8170 C   0  0  2  0  0  0  0  0  0  0  0  0
    1.7875    3.2843    2.8506 O   0  0  0  0  0  0  0  0  0  0  0  0
   -0.1557    2.6159    4.1388 C   0  0  2  0  0  0  0  0  0  0  0  0
   -0.6810    1.6577    5.2577 C   0  0  0  0  0  0  0  0  0  0  0  0
   -0.3791    0.1711    5.0804 C   0  0  0  0  0  0  0  0  0  0  0  0
   -0.9452   -0.9331    5.7400 C   0  0  0  0  0  0  0  0  0  0  0  0
   -0.4109   -2.2248    5.4998 C   0  0  0  0  0  0  0  0  0  0  0  0
    0.7094   -2.4297    4.6558 C   0  0  0  0  0  0  0  0  0  0  0  0
    1.2546   -3.6741    4.4806 O   0  0  0  0  0  0  0  0  0  0  0  0
    1.2906   -1.3200    4.0168 C   0  0  0  0  0  0  0  0  0  0  0  0
    0.6862   -0.0999    4.2201 C   0  0  0  0  0  0  0  0  0  0  0  0
    1.3697    0.8737    3.3040 C   0  0  1  0  0  0  0  0  0  0  0  0
    0.6115    0.8400    1.9645 C   0  0  0  0  0  0  0  0  0  0  0  0
   -0.8517    1.2454    2.1353 C   0  0  0  0  0  0  0  0  0  0  0  0
   -0.9763    2.5414    2.8674 N   0  0  1  0  0  0  0  0  0  0  0  0
   -2.4115    2.9042    3.0564 C   0  0  0  0  0  0  0  0  0  0  0  0
    2.7431    0.2127    3.1276 C   0  0  2  0  0  0  0  0  0  0  0  0
    2.4266   -1.2107    3.2527 O   0  0  0  0  0  0  0  0  0  0  0  0
    1.9321   -2.2672   -2.3506 H   0  0  0  0  0  0  0  0  0  0  0  0
    3.3092   -3.2715   -2.7599 H   0  0  0  0  0  0  0  0  0  0  0  0
    3.4205   -1.5110   -2.8954 H   0  0  0  0  0  0  0  0  0  0  0  0
    3.0424   -1.3508   -0.3985 H   0  0  0  0  0  0  0  0  0  0  0  0
    3.0595   -3.0785   -0.2849 H   0  0  0  0  0  0  0  0  0  0  0  0
    5.3236   -4.3759   -0.9423 H   0  0  0  0  0  0  0  0  0  0  0  0
    6.7979   -3.4073   -1.1192 H   0  0  0  0  0  0  0  0  0  0  0  0
    5.5935   -3.3970   -2.4069 H   0  0  0  0  0  0  0  0  0  0  0  0
    5.0981   -0.3552   -0.9458 H   0  0  0  0  0  0  0  0  0  0  0  0
    4.9774   -3.1040    1.3843 H   0  0  0  0  0  0  0  0  0  0  0  0
    6.5348   -2.4087    0.9633 H   0  0  0  0  0  0  0  0  0  0  0  0
    5.8711   -0.0684    4.6615 H   0  0  0  0  0  0  0  0  0  0  0  0
    5.7795    0.9233    3.3015 H   0  0  0  0  0  0  0  0  0  0  0  0
    3.6122   -1.0416    5.2928 H   0  0  0  0  0  0  0  0  0  0  0  0
    4.4858    2.2765    5.3910 H   0  0  0  0  0  0  0  0  0  0  0  0
    4.1164    2.6201    3.7281 H   0  0  0  0  0  0  0  0  0  0  0  0
    2.0492    1.9817    5.8602 H   0  0  0  0  0  0  0  0  0  0  0  0
    2.4079    3.5821    5.2396 H   0  0  0  0  0  0  0  0  0  0  0  0
    1.1853    3.4154    2.1213 H   0  0  0  0  0  0  0  0  0  0  0  0
   -0.2353    3.6506    4.4790 H   0  0  0  0  0  0  0  0  0  0  0  0
   -0.2136    1.9890    6.1844 H   0  0  0  0  0  0  0  0  0  0  0  0
   -1.7378    1.7930    5.3999 H   0  0  0  0  0  0  0  0  0  0  0  0
   -1.7726   -0.7731    6.4132 H   0  0  0  0  0  0  0  0  0  0  0  0
   -0.8463   -3.0805    5.9785 H   0  0  0  0  0  0  0  0  0  0  0  0
    2.0340   -3.6509    3.9351 H   0  0  0  0  0  0  0  0  0  0  0  0
    1.0735    1.4833    1.2351 H   0  0  0  0  0  0  0  0  0  0  0  0
    0.6470   -0.1429    1.5021 H   0  0  0  0  0  0  0  0  0  0  0  0
   -1.3398    1.3355    1.1768 H   0  0  0  0  0  0  0  0  0  0  0  0
   -1.3983    0.4569    2.6389 H   0  0  0  0  0  0  0  0  0  0  0  0
   -2.9749    2.1459    3.6066 H   0  0  0  0  0  0  0  0  0  0  0  0
   -2.8994    3.0233    2.0820 H   0  0  0  0  0  0  0  0  0  0  0  0
   -2.5091    3.8384    3.6131 H   0  0  0  0  0  0  0  0  0  0  0  0
    3.0403    0.5579    2.1530 H   0  0  0  0  0  0  0  0  0  0  0  0
   -0.6227    3.2425    2.2286 H   0  0  0  0  0  0  0  0  0  0  0  0
  1  2  1  0
  1 33  1  0
  1 34  1  0
  1 35  1  0
  2  3  1  0
  2 36  1  0
  2 37  1  0
  3  4  1  0
  3  5  1  6
  3  6  1  0
  4 38  1  0
  4 39  1  0
  4 40  1  0
  5 41  1  0
  6  7  1  0
  6 42  1  0
  6 43  1  0
  7  8  2  0
  7  9  1  0
  9 10  1  0
 10 11  1  0
 10 44  1  0
 10 45  1  0
 11 31  1  0
 11 12  1  1
 11 13  1  0
 12 46  1  0
 13 14  1  0
 13 47  1  0
 13 48  1  0
 14 15  1  0
 14 49  1  0
 14 50  1  0
 15 26  1  0
 15 16  1  6
 15 17  1  0
 16 51  1  0
 17 29  1  0
 17 18  1  0
 17 52  1  1
 18 19  1  0
 18 53  1  0
 18 54  1  0
 19 25  2  0
 19 20  1  0
 20 21  2  0
 20 55  1  0
 21 22  1  0
 21 56  1  0
 22 23  1  0
 22 24  2  0
 23 57  1  0
 24 32  1  0
 24 25  1  0
 25 26  1  0
 26 27  1  6
 26 31  1  0
 27 28  1  0
 27 58  1  0
 27 59  1  0
 28 29  1  0
 28 60  1  0
 28 61  1  0
 29 30  1  0
 29 66  1  6
 30 62  1  0
 30 63  1  0
 30 64  1  0
 31 32  1  0
 31 65  1  6
M  CHG  1  29   1
M  END
>  <i_m_ct_stereo_status>  (147) 
1

>  <s_m_source_file>  (147) 
/var/tmp/pbs.5076255.sched01/tmp276pg2sv/48_ir7zhrj.sdf

>  <i_m_source_file_index>  (147) 
18

>  <i_lp_mmshare_version>  (147) 
48012

>  <i_f3d_flags>  (147) 
0

>  <s_epik_input>  (147) 
W0NIM11bQ0gyXVtDQEBdKFtDSDNdKShbT0hdKVtDSDJdQyg9TylPW0NIMl1bQ0BAXShbT0hdKShbQ0gyXVtDSDJdMSlbQ0BIXTJPYyhjKFtPSF0pW2NIXVtjSF0zKWM0YzNbQ0gyXVtDQEBIXShbQ0BAXTEoW0NAQF0yNDUpW09IXSlOKFtDSDNdKVtDSDJdW0NIMl01

>  <s_epik_cmdline>  (147) 
J2VwaWtfcHl0aG9uJywgJy1waHQnLCAnMi4wJywgJy1waCcsICc3LjAnLCAnLXRuJywgJzgnLCAnLW1hJywgJzIwMCcsICctaW1hZScsICc8aW5maWxlLm1hZT4nLCAnLW9tYWUnLCAnPG91dGZpbGUubWFlPic=

>  <r_lp_tautomer_probability>  (147) 
1

>  <r_epik_Ionization_Penalty>  (147) 
0.0856461

>  <r_epik_Ionization_Penalty_Charging>  (147) 
0.0761309

>  <r_epik_Ionization_Penalty_Neutral>  (147) 
0.00951519

>  <r_epik_State_Penalty>  (147) 
0.0736071

>  <r_epik_Charging_Adjusted_Penalty>  (147) 
0.149738

>  <i_epik_Tot_Q>  (147) 
1

>  <i_epik_Tot_abs_Q>  (147) 
1

>  <s_epik_Chemistry_Notes>  (147) 
This compound has an ester and may undergo hydrolysis at high or low pH.

>  <s_lp_Force_Field>  (147) 
OPLS3e

>  <r_lp_Energy>  (147) 
63.4196

>  <b_lp_Chiralities_Consistent>  (147) 
1

>  <s_lp_Variant>  (147) 
42:0-1

>  <s_i_glide_gridfile>  (147) 
pfpi4k_grid

>  <i_i_glide_lignum>  (147) 
18

>  <i_i_glide_rotatable_bonds>  (147) 
10

>  <r_i_docking_score>  (147) 
-3.82388

>  <r_i_glide_ligand_efficiency>  (147) 
-0.119496

>  <r_i_glide_ligand_efficiency_sa>  (147) 
-0.379377

>  <r_i_glide_ligand_efficiency_ln>  (147) 
-0.856272

>  <r_i_glide_gscore>  (147) 
-3.82388

>  <r_i_glide_lipo>  (147) 
-0.280593

>  <r_i_glide_hbond>  (147) 
-0.478412

>  <r_i_glide_metal>  (147) 
-0

>  <r_i_glide_rewards>  (147) 
-1.02321

>  <r_i_glide_evdw>  (147) 
-27.5003

>  <r_i_glide_ecoul>  (147) 
-7.2306

>  <r_i_glide_erotb>  (147) 
0.497904

>  <r_i_glide_esite>  (147) 
-0.0799681

>  <r_i_glide_emodel>  (147) 
-46.6483

>  <r_i_glide_energy>  (147) 
-34.7309

>  <r_i_glide_einternal>  (147) 
4.52927

>  <r_i_glide_intrahb_reward>  (147) 
-0.5

>  <i_i_glide_confnum>  (147) 
5

>  <i_i_glide_posenum>  (147) 
1

>  <r_i_glide_eff_state_penalty>  (147) 
0

>  <ligand_id>  (147) 
42

>  <original_smiles>  (147) 
CCC(C)(O)CC(=O)OCC1(O)CCC2(O)C3Cc4ccc(O)c5c4C2(CCN3C)C1O5

>  <smiles>  (147) 
[H]Oc1c([H])c([H])c2c3c1OC1([H])C(O[H])(C([H])([H])OC(=O)C([H])([H])C(O[H])(C([H])([H])[H])C([H])([H])C([H])([H])[H])C([H])([H])C([H])([H])C4(O[H])C31C([H])([H])C([H])([H])[N+]([H])(C([H])([H])[H])C4([H])C2([H])[H]

$$$$
42:0:2
     RDKit          3D

 66 70  0  0  1  0  0  0  0  0999 V2000
   -2.2513   -7.9936    3.1702 C   0  0  0  0  0  0  0  0  0  0  0  0
   -0.8655   -7.9229    3.8128 C   0  0  0  0  0  0  0  0  0  0  0  0
    0.3060   -8.4851    2.9526 C   0  0  1  0  0  0  0  0  0  0  0  0
    0.0960   -9.9858    2.6602 C   0  0  0  0  0  0  0  0  0  0  0  0
    0.3200   -7.8527    1.6815 O   0  0  0  0  0  0  0  0  0  0  0  0
    1.7003   -8.2907    3.6214 C   0  0  0  0  0  0  0  0  0  0  0  0
    2.1024   -6.8660    4.0108 C   0  0  0  0  0  0  0  0  0  0  0  0
    1.3359   -5.8898    3.8917 O   0  0  0  0  0  0  0  0  0  0  0  0
    3.3706   -6.7533    4.4271 O   0  0  0  0  0  0  0  0  0  0  0  0
    3.8746   -5.4634    4.7685 C   0  0  0  0  0  0  0  0  0  0  0  0
    4.4350   -4.6697    3.5565 C   0  0  1  0  0  0  0  0  0  0  0  0
    4.9256   -3.4589    4.1128 O   0  0  0  0  0  0  0  0  0  0  0  0
    5.6991   -5.3253    2.9764 C   0  0  0  0  0  0  0  0  0  0  0  0
    6.2616   -4.5503    1.7515 C   0  0  0  0  0  0  0  0  0  0  0  0
    5.2475   -4.4900    0.5827 C   0  0  2  0  0  0  0  0  0  0  0  0
    5.1739   -5.8368    0.1312 O   0  0  0  0  0  0  0  0  0  0  0  0
    5.6341   -3.6026   -0.6406 C   0  0  2  0  0  0  0  0  0  0  0  0
    5.8060   -2.1155   -0.2217 C   0  0  0  0  0  0  0  0  0  0  0  0
    4.6797   -1.5331    0.6334 C   0  0  0  0  0  0  0  0  0  0  0  0
    4.3891   -0.1909    0.9149 C   0  0  0  0  0  0  0  0  0  0  0  0
    3.3462    0.1466    1.8180 C   0  0  0  0  0  0  0  0  0  0  0  0
    2.6293   -0.8599    2.5041 C   0  0  0  0  0  0  0  0  0  0  0  0
    1.6700   -0.5281    3.4185 O   0  0  0  0  0  0  0  0  0  0  0  0
    2.9302   -2.2220    2.2557 C   0  0  0  0  0  0  0  0  0  0  0  0
    3.8895   -2.4718    1.2934 C   0  0  0  0  0  0  0  0  0  0  0  0
    3.8862   -3.9481    1.0618 C   0  0  1  0  0  0  0  0  0  0  0  0
    2.8432   -4.2379   -0.0562 C   0  0  0  0  0  0  0  0  0  0  0  0
    3.2010   -3.5141   -1.3654 C   0  0  0  0  0  0  0  0  0  0  0  0
    4.6224   -3.7625   -1.7568 N   0  0  1  0  0  0  0  0  0  0  0  0
    4.9729   -3.0566   -3.0151 C   0  0  0  0  0  0  0  0  0  0  0  0
    3.3588   -4.4249    2.4332 C   0  0  2  0  0  0  0  0  0  0  0  0
    2.4611   -3.3604    2.8409 O   0  0  0  0  0  0  0  0  0  0  0  0
   -2.9653   -7.4607    3.7965 H   0  0  0  0  0  0  0  0  0  0  0  0
   -2.5876   -9.0216    3.0534 H   0  0  0  0  0  0  0  0  0  0  0  0
   -2.2638   -7.4949    2.2010 H   0  0  0  0  0  0  0  0  0  0  0  0
   -0.7525   -6.8665    4.0368 H   0  0  0  0  0  0  0  0  0  0  0  0
   -0.8731   -8.4285    4.7797 H   0  0  0  0  0  0  0  0  0  0  0  0
    0.0221  -10.5584    3.5856 H   0  0  0  0  0  0  0  0  0  0  0  0
    0.9255  -10.4016    2.0848 H   0  0  0  0  0  0  0  0  0  0  0  0
   -0.8138  -10.1763    2.0861 H   0  0  0  0  0  0  0  0  0  0  0  0
    0.2109   -8.5292    1.0160 H   0  0  0  0  0  0  0  0  0  0  0  0
    1.7400   -8.8988    4.5263 H   0  0  0  0  0  0  0  0  0  0  0  0
    2.4729   -8.6980    2.9637 H   0  0  0  0  0  0  0  0  0  0  0  0
    3.1091   -4.8824    5.2942 H   0  0  0  0  0  0  0  0  0  0  0  0
    4.6601   -5.6186    5.5035 H   0  0  0  0  0  0  0  0  0  0  0  0
    5.1386   -2.8556    3.4190 H   0  0  0  0  0  0  0  0  0  0  0  0
    6.4712   -5.3991    3.7466 H   0  0  0  0  0  0  0  0  0  0  0  0
    5.4721   -6.3533    2.6931 H   0  0  0  0  0  0  0  0  0  0  0  0
    6.5475   -3.5457    2.0702 H   0  0  0  0  0  0  0  0  0  0  0  0
    7.1883   -5.0283    1.4222 H   0  0  0  0  0  0  0  0  0  0  0  0
    4.4915   -5.9395   -0.5146 H   0  0  0  0  0  0  0  0  0  0  0  0
    6.5861   -3.9476   -1.0340 H   0  0  0  0  0  0  0  0  0  0  0  0
    6.7237   -2.0284    0.3617 H   0  0  0  0  0  0  0  0  0  0  0  0
    5.9538   -1.4724   -1.0887 H   0  0  0  0  0  0  0  0  0  0  0  0
    4.9813    0.5709    0.4435 H   0  0  0  0  0  0  0  0  0  0  0  0
    3.1346    1.1908    1.9953 H   0  0  0  0  0  0  0  0  0  0  0  0
    1.5131    0.4038    3.4489 H   0  0  0  0  0  0  0  0  0  0  0  0
    2.7534   -5.3128   -0.2377 H   0  0  0  0  0  0  0  0  0  0  0  0
    1.8437   -3.9273    0.2532 H   0  0  0  0  0  0  0  0  0  0  0  0
    2.5405   -3.8613   -2.1623 H   0  0  0  0  0  0  0  0  0  0  0  0
    3.0142   -2.4426   -1.2599 H   0  0  0  0  0  0  0  0  0  0  0  0
    4.8173   -1.9805   -2.9189 H   0  0  0  0  0  0  0  0  0  0  0  0
    4.3314   -3.4123   -3.8191 H   0  0  0  0  0  0  0  0  0  0  0  0
    6.0080   -3.2462   -3.2892 H   0  0  0  0  0  0  0  0  0  0  0  0
    2.8448   -5.3400    2.1955 H   0  0  0  0  0  0  0  0  0  0  0  0
    4.6493   -4.7505   -1.9985 H   0  0  0  0  0  0  0  0  0  0  0  0
  1  2  1  0
  1 33  1  0
  1 34  1  0
  1 35  1  0
  2  3  1  0
  2 36  1  0
  2 37  1  0
  3  4  1  0
  3  5  1  6
  3  6  1  0
  4 38  1  0
  4 39  1  0
  4 40  1  0
  5 41  1  0
  6  7  1  0
  6 42  1  0
  6 43  1  0
  7  8  2  0
  7  9  1  0
  9 10  1  0
 10 11  1  0
 10 44  1  0
 10 45  1  0
 11 31  1  0
 11 12  1  1
 11 13  1  0
 12 46  1  0
 13 14  1  0
 13 47  1  0
 13 48  1  0
 14 15  1  0
 14 49  1  0
 14 50  1  0
 15 26  1  0
 15 16  1  6
 15 17  1  0
 16 51  1  0
 17 29  1  0
 17 18  1  0
 17 52  1  6
 18 19  1  0
 18 53  1  0
 18 54  1  0
 19 25  2  0
 19 20  1  0
 20 21  2  0
 20 55  1  0
 21 22  1  0
 21 56  1  0
 22 23  1  0
 22 24  2  0
 23 57  1  0
 24 32  1  0
 24 25  1  0
 25 26  1  0
 26 27  1  6
 26 31  1  0
 27 28  1  0
 27 58  1  0
 27 59  1  0
 28 29  1  0
 28 60  1  0
 28 61  1  0
 29 30  1  0
 29 66  1  6
 30 62  1  0
 30 63  1  0
 30 64  1  0
 31 32  1  0
 31 65  1  6
M  CHG  1  29   1
M  END
>  <i_m_ct_stereo_status>  (148) 
1

>  <s_m_source_file>  (148) 
/var/tmp/pbs.5076255.sched01/tmp276pg2sv/48_ir7zhrj.sdf

>  <i_m_source_file_index>  (148) 
18

>  <i_lp_mmshare_version>  (148) 
48012

>  <i_f3d_flags>  (148) 
0

>  <s_epik_input>  (148) 
W0NIM11bQ0gyXVtDQEBdKFtDSDNdKShbT0hdKVtDSDJdQyg9TylPW0NIMl1bQ0BAXShbT0hdKShbQ0gyXVtDSDJdMSlbQ0BIXTJPYyhjKFtPSF0pW2NIXVtjSF0zKWM0YzNbQ0gyXVtDQEBIXShbQ0BAXTEoW0NAQF0yNDUpW09IXSlOKFtDSDNdKVtDSDJdW0NIMl01

>  <s_epik_cmdline>  (148) 
J2VwaWtfcHl0aG9uJywgJy1waHQnLCAnMi4wJywgJy1waCcsICc3LjAnLCAnLXRuJywgJzgnLCAnLW1hJywgJzIwMCcsICctaW1hZScsICc8aW5maWxlLm1hZT4nLCAnLW9tYWUnLCAnPG91dGZpbGUubWFlPic=

>  <r_lp_tautomer_probability>  (148) 
1

>  <r_epik_Ionization_Penalty>  (148) 
0.0856461

>  <r_epik_Ionization_Penalty_Charging>  (148) 
0.0761309

>  <r_epik_Ionization_Penalty_Neutral>  (148) 
0.00951519

>  <r_epik_State_Penalty>  (148) 
0.0736071

>  <r_epik_Charging_Adjusted_Penalty>  (148) 
0.149738

>  <i_epik_Tot_Q>  (148) 
1

>  <i_epik_Tot_abs_Q>  (148) 
1

>  <s_epik_Chemistry_Notes>  (148) 
This compound has an ester and may undergo hydrolysis at high or low pH.

>  <s_lp_Force_Field>  (148) 
OPLS3e

>  <r_lp_Energy>  (148) 
63.4196

>  <b_lp_Chiralities_Consistent>  (148) 
1

>  <s_lp_Variant>  (148) 
42:0-1

>  <s_i_glide_gridfile>  (148) 
pfpi4k_grid

>  <i_i_glide_lignum>  (148) 
18

>  <i_i_glide_rotatable_bonds>  (148) 
10

>  <r_i_docking_score>  (148) 
-3.15749

>  <r_i_glide_ligand_efficiency>  (148) 
-0.0986715

>  <r_i_glide_ligand_efficiency_sa>  (148) 
-0.313262

>  <r_i_glide_ligand_efficiency_ln>  (148) 
-0.707048

>  <r_i_glide_gscore>  (148) 
-3.15749

>  <r_i_glide_lipo>  (148) 
-0.671644

>  <r_i_glide_hbond>  (148) 
0

>  <r_i_glide_metal>  (148) 
-0

>  <r_i_glide_rewards>  (148) 
-0.350937

>  <r_i_glide_evdw>  (148) 
-28.0219

>  <r_i_glide_ecoul>  (148) 
-8.0794

>  <r_i_glide_erotb>  (148) 
0.497904

>  <r_i_glide_esite>  (148) 
-0.0198077

>  <r_i_glide_emodel>  (148) 
-42.4465

>  <r_i_glide_energy>  (148) 
-36.1013

>  <r_i_glide_einternal>  (148) 
2.04128

>  <r_i_glide_intrahb_reward>  (148) 
-0

>  <i_i_glide_confnum>  (148) 
6

>  <i_i_glide_posenum>  (148) 
6

>  <r_i_glide_eff_state_penalty>  (148) 
0

>  <ligand_id>  (148) 
42

>  <original_smiles>  (148) 
CCC(C)(O)CC(=O)OCC1(O)CCC2(O)C3Cc4ccc(O)c5c4C2(CCN3C)C1O5

>  <smiles>  (148) 
[H]Oc1c([H])c([H])c2c3c1OC1([H])C(O[H])(C([H])([H])OC(=O)C([H])([H])C(O[H])(C([H])([H])[H])C([H])([H])C([H])([H])[H])C([H])([H])C([H])([H])C4(O[H])C31C([H])([H])C([H])([H])[N+]([H])(C([H])([H])[H])C4([H])C2([H])[H]

$$$$
42:1:0
     RDKit          3D

 65 69  0  0  1  0  0  0  0  0999 V2000
    4.9272   -0.8499   -1.8499 C   0  0  0  0  0  0  0  0  0  0  0  0
    4.9828   -1.8786   -2.9879 C   0  0  0  0  0  0  0  0  0  0  0  0
    3.8354   -2.9093   -2.9875 C   0  0  1  0  0  0  0  0  0  0  0  0
    2.5803   -2.3271   -3.6544 C   0  0  0  0  0  0  0  0  0  0  0  0
    4.2235   -3.9526   -3.8543 O   0  0  0  0  0  0  0  0  0  0  0  0
    3.4615   -3.4835   -1.5907 C   0  0  0  0  0  0  0  0  0  0  0  0
    4.5619   -4.1422   -0.7371 C   0  0  0  0  0  0  0  0  0  0  0  0
    5.7613   -3.9009   -0.8752 O   0  0  0  0  0  0  0  0  0  0  0  0
    4.0455   -4.9748    0.1814 O   0  0  0  0  0  0  0  0  0  0  0  0
    4.9151   -5.6790    1.0565 C   0  0  0  0  0  0  0  0  0  0  0  0
    4.1447   -6.2977    2.2425 C   0  0  1  0  0  0  0  0  0  0  0  0
    5.1608   -6.8139    3.0817 O   0  0  0  0  0  0  0  0  0  0  0  0
    3.4589   -5.2150    3.1072 C   0  0  0  0  0  0  0  0  0  0  0  0
    2.6465   -5.8072    4.2840 C   0  0  0  0  0  0  0  0  0  0  0  0
    1.5137   -6.7270    3.7895 C   0  0  2  0  0  0  0  0  0  0  0  0
    0.6324   -5.8423    3.1122 O   0  0  0  0  0  0  0  0  0  0  0  0
    0.7165   -7.4881    4.9055 C   0  0  2  0  0  0  0  0  0  0  0  0
    1.6412   -8.4056    5.7344 C   0  0  0  0  0  0  0  0  0  0  0  0
    2.6193   -9.2686    4.9375 C   0  0  0  0  0  0  0  0  0  0  0  0
    3.3924  -10.3550    5.3880 C   0  0  0  0  0  0  0  0  0  0  0  0
    4.3137  -10.9753    4.5034 C   0  0  0  0  0  0  0  0  0  0  0  0
    4.5063  -10.4848    3.1894 C   0  0  0  0  0  0  0  0  0  0  0  0
    5.4129  -11.0834    2.3658 O   0  0  0  0  0  0  0  0  0  0  0  0
    3.7620   -9.3780    2.7275 C   0  0  0  0  0  0  0  0  0  0  0  0
    2.8266   -8.8720    3.6062 C   0  0  0  0  0  0  0  0  0  0  0  0
    2.0643   -7.8218    2.8540 C   0  0  1  0  0  0  0  0  0  0  0  0
    0.8369   -8.5094    2.1977 C   0  0  0  0  0  0  0  0  0  0  0  0
   -0.0774   -9.1626    3.2584 C   0  0  0  0  0  0  0  0  0  0  0  0
   -0.4197   -8.2790    4.3832 N   0  0  0  0  0  0  0  0  0  0  0  0
   -1.6722   -7.5684    4.2144 C   0  0  0  0  0  0  0  0  0  0  0  0
    3.1400   -7.4214    1.7930 C   0  0  2  0  0  0  0  0  0  0  0  0
    3.8625   -8.6582    1.5582 O   0  0  0  0  0  0  0  0  0  0  0  0
    5.7544   -0.1561   -1.9493 H   0  0  0  0  0  0  0  0  0  0  0  0
    5.0306   -1.3099   -0.8678 H   0  0  0  0  0  0  0  0  0  0  0  0
    3.9966   -0.2837   -1.8606 H   0  0  0  0  0  0  0  0  0  0  0  0
    4.9996   -1.3584   -3.9478 H   0  0  0  0  0  0  0  0  0  0  0  0
    5.9355   -2.4018   -2.9324 H   0  0  0  0  0  0  0  0  0  0  0  0
    2.2203   -1.4501   -3.1196 H   0  0  0  0  0  0  0  0  0  0  0  0
    1.7634   -3.0508   -3.6803 H   0  0  0  0  0  0  0  0  0  0  0  0
    2.7841   -2.0265   -4.6824 H   0  0  0  0  0  0  0  0  0  0  0  0
    3.7666   -4.7384   -3.5733 H   0  0  0  0  0  0  0  0  0  0  0  0
    3.0422   -2.6764   -0.9932 H   0  0  0  0  0  0  0  0  0  0  0  0
    2.6483   -4.2014   -1.7010 H   0  0  0  0  0  0  0  0  0  0  0  0
    5.4474   -6.4510    0.4964 H   0  0  0  0  0  0  0  0  0  0  0  0
    5.6737   -4.9939    1.4400 H   0  0  0  0  0  0  0  0  0  0  0  0
    5.5400   -7.5671    2.6496 H   0  0  0  0  0  0  0  0  0  0  0  0
    4.2095   -4.5267    3.5015 H   0  0  0  0  0  0  0  0  0  0  0  0
    2.8012   -4.6115    2.4809 H   0  0  0  0  0  0  0  0  0  0  0  0
    3.3247   -6.3499    4.9393 H   0  0  0  0  0  0  0  0  0  0  0  0
    2.2366   -4.9965    4.8848 H   0  0  0  0  0  0  0  0  0  0  0  0
    0.4774   -5.1055    3.6864 H   0  0  0  0  0  0  0  0  0  0  0  0
    0.3147   -6.7588    5.6079 H   0  0  0  0  0  0  0  0  0  0  0  0
    2.2257   -7.7948    6.4136 H   0  0  0  0  0  0  0  0  0  0  0  0
    1.0369   -9.0599    6.3605 H   0  0  0  0  0  0  0  0  0  0  0  0
    3.2829  -10.7197    6.4000 H   0  0  0  0  0  0  0  0  0  0  0  0
    4.8783  -11.8277    4.8436 H   0  0  0  0  0  0  0  0  0  0  0  0
    4.9981  -11.3773    1.5482 H   0  0  0  0  0  0  0  0  0  0  0  0
    0.2532   -7.8027    1.6045 H   0  0  0  0  0  0  0  0  0  0  0  0
    1.1781   -9.2779    1.5039 H   0  0  0  0  0  0  0  0  0  0  0  0
   -0.9863   -9.5362    2.7850 H   0  0  0  0  0  0  0  0  0  0  0  0
    0.4190  -10.0549    3.6454 H   0  0  0  0  0  0  0  0  0  0  0  0
   -2.4814   -8.2790    4.0558 H   0  0  0  0  0  0  0  0  0  0  0  0
   -1.6560   -6.8839    3.3708 H   0  0  0  0  0  0  0  0  0  0  0  0
   -1.9089   -6.9996    5.1104 H   0  0  0  0  0  0  0  0  0  0  0  0
    2.6290   -7.0866    0.8878 H   0  0  0  0  0  0  0  0  0  0  0  0
  1  2  1  0
  1 33  1  0
  1 34  1  0
  1 35  1  0
  2  3  1  0
  2 36  1  0
  2 37  1  0
  3  4  1  0
  3  5  1  6
  3  6  1  0
  4 38  1  0
  4 39  1  0
  4 40  1  0
  5 41  1  0
  6  7  1  0
  6 42  1  0
  6 43  1  0
  7  8  2  0
  7  9  1  0
  9 10  1  0
 10 11  1  0
 10 44  1  0
 10 45  1  0
 11 31  1  0
 11 12  1  1
 11 13  1  0
 12 46  1  0
 13 14  1  0
 13 47  1  0
 13 48  1  0
 14 15  1  0
 14 49  1  0
 14 50  1  0
 15 26  1  0
 15 16  1  6
 15 17  1  0
 16 51  1  0
 17 29  1  0
 17 18  1  0
 17 52  1  1
 18 19  1  0
 18 53  1  0
 18 54  1  0
 19 25  2  0
 19 20  1  0
 20 21  2  0
 20 55  1  0
 21 22  1  0
 21 56  1  0
 22 23  1  0
 22 24  2  0
 23 57  1  0
 24 32  1  0
 24 25  1  0
 25 26  1  0
 26 27  1  6
 26 31  1  0
 27 28  1  0
 27 58  1  0
 27 59  1  0
 28 29  1  0
 28 60  1  0
 28 61  1  0
 29 30  1  0
 30 62  1  0
 30 63  1  0
 30 64  1  0
 31 32  1  0
 31 65  1  6
M  END
>  <i_m_ct_stereo_status>  (149) 
1

>  <s_m_source_file>  (149) 
/var/tmp/pbs.5076255.sched01/tmp276pg2sv/48_ir7zhrj.sdf

>  <i_m_source_file_index>  (149) 
19

>  <i_lp_mmshare_version>  (149) 
48012

>  <i_f3d_flags>  (149) 
0

>  <s_epik_input>  (149) 
W0NIM11bQ0gyXVtDQEBdKFtDSDNdKShbT0hdKVtDSDJdQyg9TylPW0NIMl1bQ0BAXShbT0hdKShbQ0gyXVtDSDJdMSlbQ0BIXTJPYyhjKFtPSF0pW2NIXVtjSF0zKWM0YzNbQ0gyXVtDQEBIXShbQ0BAXTEoW0NAQF0yNDUpW09IXSlOKFtDSDNdKVtDSDJdW0NIMl01

>  <s_epik_cmdline>  (149) 
J2VwaWtfcHl0aG9uJywgJy1waHQnLCAnMi4wJywgJy1waCcsICc3LjAnLCAnLXRuJywgJzgnLCAnLW1hJywgJzIwMCcsICctaW1hZScsICc8aW5maWxlLm1hZT4nLCAnLW9tYWUnLCAnPG91dGZpbGUubWFlPic=

>  <r_lp_tautomer_probability>  (149) 
1

>  <r_epik_Ionization_Penalty>  (149) 
1.25392

>  <r_epik_Ionization_Penalty_Charging>  (149) 
0

>  <r_epik_Ionization_Penalty_Neutral>  (149) 
1.25392

>  <r_epik_State_Penalty>  (149) 
1.32981

>  <r_epik_Charging_Adjusted_Penalty>  (149) 
1.32981

>  <i_epik_Tot_Q>  (149) 
0

>  <i_epik_Tot_abs_Q>  (149) 
0

>  <s_epik_Chemistry_Notes>  (149) 
This compound has an ester and may undergo hydrolysis at high or low pH.

>  <s_lp_Force_Field>  (149) 
OPLS3e

>  <r_lp_Energy>  (149) 
60.7749

>  <b_lp_Chiralities_Consistent>  (149) 
1

>  <s_lp_Variant>  (149) 
42:0-2

>  <s_i_glide_gridfile>  (149) 
pfpi4k_grid

>  <i_i_glide_lignum>  (149) 
19

>  <i_i_glide_rotatable_bonds>  (149) 
10

>  <r_i_docking_score>  (149) 
-3.48273

>  <r_i_glide_ligand_efficiency>  (149) 
-0.108835

>  <r_i_glide_ligand_efficiency_sa>  (149) 
-0.345531

>  <r_i_glide_ligand_efficiency_ln>  (149) 
-0.779879

>  <r_i_glide_gscore>  (149) 
-3.48273

>  <r_i_glide_lipo>  (149) 
-0.486802

>  <r_i_glide_hbond>  (149) 
-0.0271469

>  <r_i_glide_metal>  (149) 
-0

>  <r_i_glide_rewards>  (149) 
-0.357809

>  <r_i_glide_evdw>  (149) 
-26.814

>  <r_i_glide_ecoul>  (149) 
-11.7522

>  <r_i_glide_erotb>  (149) 
0.499944

>  <r_i_glide_esite>  (149) 
-0.00738758

>  <r_i_glide_emodel>  (149) 
-43.7804

>  <r_i_glide_energy>  (149) 
-38.5662

>  <r_i_glide_einternal>  (149) 
5.2398

>  <r_i_glide_intrahb_reward>  (149) 
-0

>  <i_i_glide_confnum>  (149) 
2

>  <i_i_glide_posenum>  (149) 
1

>  <r_i_glide_eff_state_penalty>  (149) 
0

>  <ligand_id>  (149) 
42

>  <original_smiles>  (149) 
CCC(C)(O)CC(=O)OCC1(O)CCC2(O)C3Cc4ccc(O)c5c4C2(CCN3C)C1O5

>  <smiles>  (149) 
[H]Oc1c([H])c([H])c2c3c1OC1([H])C(O[H])(C([H])([H])OC(=O)C([H])([H])C(O[H])(C([H])([H])[H])C([H])([H])C([H])([H])[H])C([H])([H])C([H])([H])C4(O[H])C([H])(N(C([H])([H])[H])C([H])([H])C([H])([H])C314)C2([H])[H]

$$$$
42:1:1
     RDKit          3D

 65 69  0  0  1  0  0  0  0  0999 V2000
    5.0654   -0.9804   -0.5021 C   0  0  0  0  0  0  0  0  0  0  0  0
    5.3403   -1.9933   -1.6306 C   0  0  0  0  0  0  0  0  0  0  0  0
    4.1670   -2.9458   -1.9800 C   0  0  1  0  0  0  0  0  0  0  0  0
    3.0086   -2.1814   -2.6547 C   0  0  0  0  0  0  0  0  0  0  0  0
    4.6338   -3.8524   -2.9591 O   0  0  0  0  0  0  0  0  0  0  0  0
    3.6181   -3.7550   -0.7747 C   0  0  0  0  0  0  0  0  0  0  0  0
    4.6275   -4.5185    0.0912 C   0  0  0  0  0  0  0  0  0  0  0  0
    5.4782   -3.9415    0.7692 O   0  0  0  0  0  0  0  0  0  0  0  0
    4.4259   -5.8493    0.0624 O   0  0  0  0  0  0  0  0  0  0  0  0
    5.1168   -6.7012    0.9716 C   0  0  0  0  0  0  0  0  0  0  0  0
    4.2519   -7.0586    2.2017 C   0  0  1  0  0  0  0  0  0  0  0  0
    5.1615   -7.6488    3.1156 O   0  0  0  0  0  0  0  0  0  0  0  0
    3.7291   -5.8048    2.9399 C   0  0  0  0  0  0  0  0  0  0  0  0
    2.8252   -6.1241    4.1479 C   0  0  0  0  0  0  0  0  0  0  0  0
    1.5622   -6.9028    3.7212 C   0  0  2  0  0  0  0  0  0  0  0  0
    0.8418   -5.9677    2.9212 O   0  0  0  0  0  0  0  0  0  0  0  0
    0.6605   -7.4099    4.9030 C   0  0  2  0  0  0  0  0  0  0  0  0
    1.4430   -8.3589    5.8489 C   0  0  0  0  0  0  0  0  0  0  0  0
    2.2754   -9.4250    5.1542 C   0  0  0  0  0  0  0  0  0  0  0  0
    2.8718  -10.5578    5.7434 C   0  0  0  0  0  0  0  0  0  0  0  0
    3.6731  -11.4173    4.9652 C   0  0  0  0  0  0  0  0  0  0  0  0
    3.9450  -11.1257    3.6067 C   0  0  0  0  0  0  0  0  0  0  0  0
    4.7657  -11.9334    2.8734 O   0  0  0  0  0  0  0  0  0  0  0  0
    3.3866   -9.9753    3.0149 C   0  0  0  0  0  0  0  0  0  0  0  0
    2.5373   -9.2208    3.7897 C   0  0  0  0  0  0  0  0  0  0  0  0
    1.9425   -8.1600    2.9081 C   0  0  1  0  0  0  0  0  0  0  0  0
    0.6273   -8.7349    2.3113 C   0  0  0  0  0  0  0  0  0  0  0  0
   -0.3767   -9.1231    3.4214 C   0  0  0  0  0  0  0  0  0  0  0  0
   -0.5746   -8.0881    4.4472 N   0  0  0  0  0  0  0  0  0  0  0  0
   -1.6951   -7.2088    4.1743 C   0  0  0  0  0  0  0  0  0  0  0  0
    3.0877   -8.0605    1.8509 C   0  0  2  0  0  0  0  0  0  0  0  0
    3.6062   -9.4153    1.7813 O   0  0  0  0  0  0  0  0  0  0  0  0
    5.9252   -0.3277   -0.3476 H   0  0  0  0  0  0  0  0  0  0  0  0
    4.8646   -1.4715    0.4511 H   0  0  0  0  0  0  0  0  0  0  0  0
    4.2109   -0.3430   -0.7296 H   0  0  0  0  0  0  0  0  0  0  0  0
    5.6214   -1.4442   -2.5280 H   0  0  0  0  0  0  0  0  0  0  0  0
    6.2189   -2.5819   -1.3670 H   0  0  0  0  0  0  0  0  0  0  0  0
    2.6154   -1.3977   -2.0034 H   0  0  0  0  0  0  0  0  0  0  0  0
    2.1737   -2.8453   -2.8936 H   0  0  0  0  0  0  0  0  0  0  0  0
    3.3210   -1.7007   -3.5833 H   0  0  0  0  0  0  0  0  0  0  0  0
    3.9952   -4.5580   -3.0321 H   0  0  0  0  0  0  0  0  0  0  0  0
    3.0897   -3.0759   -0.1106 H   0  0  0  0  0  0  0  0  0  0  0  0
    2.8664   -4.4625   -1.1208 H   0  0  0  0  0  0  0  0  0  0  0  0
    5.3974   -7.6160    0.4529 H   0  0  0  0  0  0  0  0  0  0  0  0
    6.0597   -6.2471    1.2890 H   0  0  0  0  0  0  0  0  0  0  0  0
    5.4256   -8.4893    2.7657 H   0  0  0  0  0  0  0  0  0  0  0  0
    4.5712   -5.1853    3.2579 H   0  0  0  0  0  0  0  0  0  0  0  0
    3.1541   -5.1888    2.2493 H   0  0  0  0  0  0  0  0  0  0  0  0
    3.4067   -6.6865    4.8775 H   0  0  0  0  0  0  0  0  0  0  0  0
    2.5450   -5.1965    4.6418 H   0  0  0  0  0  0  0  0  0  0  0  0
    0.8133   -5.1476    3.3872 H   0  0  0  0  0  0  0  0  0  0  0  0
    0.3639   -6.5462    5.4998 H   0  0  0  0  0  0  0  0  0  0  0  0
    2.0955   -7.7589    6.4789 H   0  0  0  0  0  0  0  0  0  0  0  0
    0.7380   -8.8430    6.5258 H   0  0  0  0  0  0  0  0  0  0  0  0
    2.7050  -10.7763    6.7897 H   0  0  0  0  0  0  0  0  0  0  0  0
    4.0930  -12.3020    5.4095 H   0  0  0  0  0  0  0  0  0  0  0  0
    4.6016  -11.8330    1.9302 H   0  0  0  0  0  0  0  0  0  0  0  0
    0.1615   -8.0181    1.6378 H   0  0  0  0  0  0  0  0  0  0  0  0
    0.8348   -9.6162    1.7015 H   0  0  0  0  0  0  0  0  0  0  0  0
   -1.3337   -9.4081    2.9836 H   0  0  0  0  0  0  0  0  0  0  0  0
   -0.0229  -10.0305    3.9127 H   0  0  0  0  0  0  0  0  0  0  0  0
   -2.5967   -7.8058    4.0579 H   0  0  0  0  0  0  0  0  0  0  0  0
   -1.5627   -6.6427    3.2540 H   0  0  0  0  0  0  0  0  0  0  0  0
   -1.8648   -6.5206    5.0040 H   0  0  0  0  0  0  0  0  0  0  0  0
    2.6579   -7.7699    0.8924 H   0  0  0  0  0  0  0  0  0  0  0  0
  1  2  1  0
  1 33  1  0
  1 34  1  0
  1 35  1  0
  2  3  1  0
  2 36  1  0
  2 37  1  0
  3  4  1  0
  3  5  1  6
  3  6  1  0
  4 38  1  0
  4 39  1  0
  4 40  1  0
  5 41  1  0
  6  7  1  0
  6 42  1  0
  6 43  1  0
  7  8  2  0
  7  9  1  0
  9 10  1  0
 10 11  1  0
 10 44  1  0
 10 45  1  0
 11 31  1  0
 11 12  1  1
 11 13  1  0
 12 46  1  0
 13 14  1  0
 13 47  1  0
 13 48  1  0
 14 15  1  0
 14 49  1  0
 14 50  1  0
 15 26  1  0
 15 16  1  6
 15 17  1  0
 16 51  1  0
 17 29  1  0
 17 18  1  0
 17 52  1  1
 18 19  1  0
 18 53  1  0
 18 54  1  0
 19 25  2  0
 19 20  1  0
 20 21  2  0
 20 55  1  0
 21 22  1  0
 21 56  1  0
 22 23  1  0
 22 24  2  0
 23 57  1  0
 24 32  1  0
 24 25  1  0
 25 26  1  0
 26 27  1  6
 26 31  1  0
 27 28  1  0
 27 58  1  0
 27 59  1  0
 28 29  1  0
 28 60  1  0
 28 61  1  0
 29 30  1  0
 30 62  1  0
 30 63  1  0
 30 64  1  0
 31 32  1  0
 31 65  1  6
M  END
>  <i_m_ct_stereo_status>  (150) 
1

>  <s_m_source_file>  (150) 
/var/tmp/pbs.5076255.sched01/tmp276pg2sv/48_ir7zhrj.sdf

>  <i_m_source_file_index>  (150) 
19

>  <i_lp_mmshare_version>  (150) 
48012

>  <i_f3d_flags>  (150) 
0

>  <s_epik_input>  (150) 
W0NIM11bQ0gyXVtDQEBdKFtDSDNdKShbT0hdKVtDSDJdQyg9TylPW0NIMl1bQ0BAXShbT0hdKShbQ0gyXVtDSDJdMSlbQ0BIXTJPYyhjKFtPSF0pW2NIXVtjSF0zKWM0YzNbQ0gyXVtDQEBIXShbQ0BAXTEoW0NAQF0yNDUpW09IXSlOKFtDSDNdKVtDSDJdW0NIMl01

>  <s_epik_cmdline>  (150) 
J2VwaWtfcHl0aG9uJywgJy1waHQnLCAnMi4wJywgJy1waCcsICc3LjAnLCAnLXRuJywgJzgnLCAnLW1hJywgJzIwMCcsICctaW1hZScsICc8aW5maWxlLm1hZT4nLCAnLW9tYWUnLCAnPG91dGZpbGUubWFlPic=

>  <r_lp_tautomer_probability>  (150) 
1

>  <r_epik_Ionization_Penalty>  (150) 
1.25392

>  <r_epik_Ionization_Penalty_Charging>  (150) 
0

>  <r_epik_Ionization_Penalty_Neutral>  (150) 
1.25392

>  <r_epik_State_Penalty>  (150) 
1.32981

>  <r_epik_Charging_Adjusted_Penalty>  (150) 
1.32981

>  <i_epik_Tot_Q>  (150) 
0

>  <i_epik_Tot_abs_Q>  (150) 
0

>  <s_epik_Chemistry_Notes>  (150) 
This compound has an ester and may undergo hydrolysis at high or low pH.

>  <s_lp_Force_Field>  (150) 
OPLS3e

>  <r_lp_Energy>  (150) 
60.7749

>  <b_lp_Chiralities_Consistent>  (150) 
1

>  <s_lp_Variant>  (150) 
42:0-2

>  <s_i_glide_gridfile>  (150) 
pfpi4k_grid

>  <i_i_glide_lignum>  (150) 
19

>  <i_i_glide_rotatable_bonds>  (150) 
10

>  <r_i_docking_score>  (150) 
-3.18564

>  <r_i_glide_ligand_efficiency>  (150) 
-0.0995512

>  <r_i_glide_ligand_efficiency_sa>  (150) 
-0.316055

>  <r_i_glide_ligand_efficiency_ln>  (150) 
-0.713351

>  <r_i_glide_gscore>  (150) 
-3.18564

>  <r_i_glide_lipo>  (150) 
-0.110042

>  <r_i_glide_hbond>  (150) 
-0.304

>  <r_i_glide_metal>  (150) 
-0

>  <r_i_glide_rewards>  (150) 
-0.388048

>  <r_i_glide_evdw>  (150) 
-28.4844

>  <r_i_glide_ecoul>  (150) 
-9.72847

>  <r_i_glide_erotb>  (150) 
0.499944

>  <r_i_glide_esite>  (150) 
0

>  <r_i_glide_emodel>  (150) 
-44.2692

>  <r_i_glide_energy>  (150) 
-38.2129

>  <r_i_glide_einternal>  (150) 
3.09693

>  <r_i_glide_intrahb_reward>  (150) 
-0

>  <i_i_glide_confnum>  (150) 
2

>  <i_i_glide_posenum>  (150) 
39

>  <r_i_glide_eff_state_penalty>  (150) 
0

>  <ligand_id>  (150) 
42

>  <original_smiles>  (150) 
CCC(C)(O)CC(=O)OCC1(O)CCC2(O)C3Cc4ccc(O)c5c4C2(CCN3C)C1O5

>  <smiles>  (150) 
[H]Oc1c([H])c([H])c2c3c1OC1([H])C(O[H])(C([H])([H])OC(=O)C([H])([H])C(O[H])(C([H])([H])[H])C([H])([H])C([H])([H])[H])C([H])([H])C([H])([H])C4(O[H])C([H])(N(C([H])([H])[H])C([H])([H])C([H])([H])C314)C2([H])[H]

$$$$
42:1:2
     RDKit          3D

 65 69  0  0  1  0  0  0  0  0999 V2000
    3.3782   -2.8710   -3.6161 C   0  0  0  0  0  0  0  0  0  0  0  0
    2.9009   -2.1346   -2.3530 C   0  0  0  0  0  0  0  0  0  0  0  0
    4.0076   -1.8753   -1.2859 C   0  0  1  0  0  0  0  0  0  0  0  0
    5.0587   -0.9107   -1.8447 C   0  0  0  0  0  0  0  0  0  0  0  0
    3.4117   -1.1708   -0.2033 O   0  0  0  0  0  0  0  0  0  0  0  0
    4.7192   -3.1346   -0.7227 C   0  0  0  0  0  0  0  0  0  0  0  0
    3.8134   -4.2592   -0.1913 C   0  0  0  0  0  0  0  0  0  0  0  0
    2.5886   -4.1831   -0.1446 O   0  0  0  0  0  0  0  0  0  0  0  0
    4.5145   -5.3249    0.2003 O   0  0  0  0  0  0  0  0  0  0  0  0
    3.8174   -6.4913    0.6324 C   0  0  0  0  0  0  0  0  0  0  0  0
    3.5045   -6.5440    2.1451 C   0  0  1  0  0  0  0  0  0  0  0  0
    3.1955   -7.9136    2.3880 O   0  0  0  0  0  0  0  0  0  0  0  0
    4.7712   -6.3468    2.9980 C   0  0  0  0  0  0  0  0  0  0  0  0
    4.4654   -6.3436    4.5156 C   0  0  0  0  0  0  0  0  0  0  0  0
    3.4949   -5.2047    4.8961 C   0  0  2  0  0  0  0  0  0  0  0  0
    4.2441   -4.0292    4.6234 O   0  0  0  0  0  0  0  0  0  0  0  0
    3.0072   -5.1791    6.3819 C   0  0  2  0  0  0  0  0  0  0  0  0
    2.2521   -6.4791    6.7388 C   0  0  0  0  0  0  0  0  0  0  0  0
    1.1966   -6.9621    5.7412 C   0  0  0  0  0  0  0  0  0  0  0  0
    0.2181   -7.9485    5.8984 C   0  0  0  0  0  0  0  0  0  0  0  0
   -0.6127   -8.2933    4.7906 C   0  0  0  0  0  0  0  0  0  0  0  0
   -0.4318   -7.7117    3.5210 C   0  0  0  0  0  0  0  0  0  0  0  0
   -1.2078   -8.0802    2.4619 O   0  0  0  0  0  0  0  0  0  0  0  0
    0.5981   -6.7453    3.3298 C   0  0  0  0  0  0  0  0  0  0  0  0
    1.3013   -6.3926    4.4628 C   0  0  0  0  0  0  0  0  0  0  0  0
    2.2019   -5.2646    4.0565 C   0  0  1  0  0  0  0  0  0  0  0  0
    1.4415   -3.9319    4.2908 C   0  0  0  0  0  0  0  0  0  0  0  0
    1.0546   -3.7714    5.7691 C   0  0  0  0  0  0  0  0  0  0  0  0
    2.1569   -4.0096    6.7117 N   0  0  0  0  0  0  0  0  0  0  0  0
    2.8732   -2.8035    7.1039 C   0  0  0  0  0  0  0  0  0  0  0  0
    2.3418   -5.5618    2.5533 C   0  0  2  0  0  0  0  0  0  0  0  0
    1.0560   -6.1321    2.1972 O   0  0  0  0  0  0  0  0  0  0  0  0
    2.5339   -3.0156   -4.2922 H   0  0  0  0  0  0  0  0  0  0  0  0
    3.7823   -3.8557   -3.3781 H   0  0  0  0  0  0  0  0  0  0  0  0
    4.1377   -2.3057   -4.1526 H   0  0  0  0  0  0  0  0  0  0  0  0
    2.4429   -1.1880   -2.6380 H   0  0  0  0  0  0  0  0  0  0  0  0
    2.0637   -2.7043   -1.9605 H   0  0  0  0  0  0  0  0  0  0  0  0
    5.5529   -1.3579   -2.7063 H   0  0  0  0  0  0  0  0  0  0  0  0
    5.8227   -0.6981   -1.0951 H   0  0  0  0  0  0  0  0  0  0  0  0
    4.6194    0.0389   -2.1632 H   0  0  0  0  0  0  0  0  0  0  0  0
    2.4922   -1.0823   -0.3655 H   0  0  0  0  0  0  0  0  0  0  0  0
    5.3372   -3.5711   -1.5099 H   0  0  0  0  0  0  0  0  0  0  0  0
    5.4195   -2.8374    0.0655 H   0  0  0  0  0  0  0  0  0  0  0  0
    2.8951   -6.6432    0.0728 H   0  0  0  0  0  0  0  0  0  0  0  0
    4.4575   -7.3259    0.3621 H   0  0  0  0  0  0  0  0  0  0  0  0
    2.9718   -8.0437    3.2984 H   0  0  0  0  0  0  0  0  0  0  0  0
    5.4989   -7.1319    2.7736 H   0  0  0  0  0  0  0  0  0  0  0  0
    5.2486   -5.4084    2.7151 H   0  0  0  0  0  0  0  0  0  0  0  0
    4.0524   -7.3117    4.7983 H   0  0  0  0  0  0  0  0  0  0  0  0
    5.4041   -6.2403    5.0639 H   0  0  0  0  0  0  0  0  0  0  0  0
    4.9824   -3.9904    5.2131 H   0  0  0  0  0  0  0  0  0  0  0  0
    3.8838   -5.1477    7.0325 H   0  0  0  0  0  0  0  0  0  0  0  0
    2.9798   -7.2790    6.8601 H   0  0  0  0  0  0  0  0  0  0  0  0
    1.7742   -6.3527    7.7095 H   0  0  0  0  0  0  0  0  0  0  0  0
    0.0846   -8.4385    6.8562 H   0  0  0  0  0  0  0  0  0  0  0  0
   -1.3891   -9.0349    4.9375 H   0  0  0  0  0  0  0  0  0  0  0  0
   -1.6412   -8.9081    2.6323 H   0  0  0  0  0  0  0  0  0  0  0  0
    2.0495   -3.0852    3.9769 H   0  0  0  0  0  0  0  0  0  0  0  0
    0.5460   -3.8745    3.6697 H   0  0  0  0  0  0  0  0  0  0  0  0
    0.6326   -2.7791    5.9271 H   0  0  0  0  0  0  0  0  0  0  0  0
    0.2424   -4.4685    5.9811 H   0  0  0  0  0  0  0  0  0  0  0  0
    2.1841   -2.0802    7.5389 H   0  0  0  0  0  0  0  0  0  0  0  0
    3.3758   -2.3256    6.2649 H   0  0  0  0  0  0  0  0  0  0  0  0
    3.6122   -3.0352    7.8702 H   0  0  0  0  0  0  0  0  0  0  0  0
    2.4978   -4.5714    2.1181 H   0  0  0  0  0  0  0  0  0  0  0  0
  1  2  1  0
  1 33  1  0
  1 34  1  0
  1 35  1  0
  2  3  1  0
  2 36  1  0
  2 37  1  0
  3  4  1  0
  3  5  1  1
  3  6  1  0
  4 38  1  0
  4 39  1  0
  4 40  1  0
  5 41  1  0
  6  7  1  0
  6 42  1  0
  6 43  1  0
  7  8  2  0
  7  9  1  0
  9 10  1  0
 10 11  1  0
 10 44  1  0
 10 45  1  0
 11 31  1  0
 11 12  1  6
 11 13  1  0
 12 46  1  0
 13 14  1  0
 13 47  1  0
 13 48  1  0
 14 15  1  0
 14 49  1  0
 14 50  1  0
 15 26  1  0
 15 16  1  6
 15 17  1  0
 16 51  1  0
 17 29  1  0
 17 18  1  0
 17 52  1  1
 18 19  1  0
 18 53  1  0
 18 54  1  0
 19 25  2  0
 19 20  1  0
 20 21  2  0
 20 55  1  0
 21 22  1  0
 21 56  1  0
 22 23  1  0
 22 24  2  0
 23 57  1  0
 24 32  1  0
 24 25  1  0
 25 26  1  0
 26 27  1  6
 26 31  1  0
 27 28  1  0
 27 58  1  0
 27 59  1  0
 28 29  1  0
 28 60  1  0
 28 61  1  0
 29 30  1  0
 30 62  1  0
 30 63  1  0
 30 64  1  0
 31 32  1  0
 31 65  1  6
M  END
>  <i_m_ct_stereo_status>  (151) 
1

>  <s_m_source_file>  (151) 
/var/tmp/pbs.5076255.sched01/tmp276pg2sv/48_ir7zhrj.sdf

>  <i_m_source_file_index>  (151) 
19

>  <i_lp_mmshare_version>  (151) 
48012

>  <i_f3d_flags>  (151) 
0

>  <s_epik_input>  (151) 
W0NIM11bQ0gyXVtDQEBdKFtDSDNdKShbT0hdKVtDSDJdQyg9TylPW0NIMl1bQ0BAXShbT0hdKShbQ0gyXVtDSDJdMSlbQ0BIXTJPYyhjKFtPSF0pW2NIXVtjSF0zKWM0YzNbQ0gyXVtDQEBIXShbQ0BAXTEoW0NAQF0yNDUpW09IXSlOKFtDSDNdKVtDSDJdW0NIMl01

>  <s_epik_cmdline>  (151) 
J2VwaWtfcHl0aG9uJywgJy1waHQnLCAnMi4wJywgJy1waCcsICc3LjAnLCAnLXRuJywgJzgnLCAnLW1hJywgJzIwMCcsICctaW1hZScsICc8aW5maWxlLm1hZT4nLCAnLW9tYWUnLCAnPG91dGZpbGUubWFlPic=

>  <r_lp_tautomer_probability>  (151) 
1

>  <r_epik_Ionization_Penalty>  (151) 
1.25392

>  <r_epik_Ionization_Penalty_Charging>  (151) 
0

>  <r_epik_Ionization_Penalty_Neutral>  (151) 
1.25392

>  <r_epik_State_Penalty>  (151) 
1.32981

>  <r_epik_Charging_Adjusted_Penalty>  (151) 
1.32981

>  <i_epik_Tot_Q>  (151) 
0

>  <i_epik_Tot_abs_Q>  (151) 
0

>  <s_epik_Chemistry_Notes>  (151) 
This compound has an ester and may undergo hydrolysis at high or low pH.

>  <s_lp_Force_Field>  (151) 
OPLS3e

>  <r_lp_Energy>  (151) 
60.7749

>  <b_lp_Chiralities_Consistent>  (151) 
1

>  <s_lp_Variant>  (151) 
42:0-2

>  <s_i_glide_gridfile>  (151) 
pfpi4k_grid

>  <i_i_glide_lignum>  (151) 
19

>  <i_i_glide_rotatable_bonds>  (151) 
10

>  <r_i_docking_score>  (151) 
-2.32561

>  <r_i_glide_ligand_efficiency>  (151) 
-0.0726753

>  <r_i_glide_ligand_efficiency_sa>  (151) 
-0.23073

>  <r_i_glide_ligand_efficiency_ln>  (151) 
-0.520767

>  <r_i_glide_gscore>  (151) 
-2.32561

>  <r_i_glide_lipo>  (151) 
-0.370373

>  <r_i_glide_hbond>  (151) 
-0.0191961

>  <r_i_glide_metal>  (151) 
-0

>  <r_i_glide_rewards>  (151) 
-0.357809

>  <r_i_glide_evdw>  (151) 
-25.8923

>  <r_i_glide_ecoul>  (151) 
-5.10718

>  <r_i_glide_erotb>  (151) 
0.499944

>  <r_i_glide_esite>  (151) 
-0.0174824

>  <r_i_glide_emodel>  (151) 
-34.8315

>  <r_i_glide_energy>  (151) 
-30.9995

>  <r_i_glide_einternal>  (151) 
2.29826

>  <r_i_glide_intrahb_reward>  (151) 
-0

>  <i_i_glide_confnum>  (151) 
5

>  <i_i_glide_posenum>  (151) 
16

>  <r_i_glide_eff_state_penalty>  (151) 
0

>  <ligand_id>  (151) 
42

>  <original_smiles>  (151) 
CCC(C)(O)CC(=O)OCC1(O)CCC2(O)C3Cc4ccc(O)c5c4C2(CCN3C)C1O5

>  <smiles>  (151) 
[H]Oc1c([H])c([H])c2c3c1OC1([H])C(O[H])(C([H])([H])OC(=O)C([H])([H])C(O[H])(C([H])([H])[H])C([H])([H])C([H])([H])[H])C([H])([H])C([H])([H])C4(O[H])C([H])(N(C([H])([H])[H])C([H])([H])C([H])([H])C314)C2([H])[H]

$$$$
42:2:0
     RDKit          3D

 65 69  0  0  1  0  0  0  0  0999 V2000
    6.8436   -3.2496   -2.2026 C   0  0  0  0  0  0  0  0  0  0  0  0
    5.6092   -3.4455   -1.3322 C   0  0  0  0  0  0  0  0  0  0  0  0
    4.2928   -2.7734   -1.8500 C   0  0  1  0  0  0  0  0  0  0  0  0
    4.4814   -1.2955   -2.2738 C   0  0  0  0  0  0  0  0  0  0  0  0
    3.8931   -3.4505   -3.0192 O   0  0  0  0  0  0  0  0  0  0  0  0
    3.1194   -2.9601   -0.8560 C   0  0  0  0  0  0  0  0  0  0  0  0
    3.4484   -2.4630    0.5560 C   0  0  0  0  0  0  0  0  0  0  0  0
    4.4239   -1.7481    0.7862 O   0  0  0  0  0  0  0  0  0  0  0  0
    2.6045   -2.9273    1.4925 O   0  0  0  0  0  0  0  0  0  0  0  0
    2.9039   -2.7496    2.8823 C   0  0  0  0  0  0  0  0  0  0  0  0
    2.5401   -1.3686    3.4958 C   0  0  1  0  0  0  0  0  0  0  0  0
    3.0051   -1.4304    4.8298 O   0  0  0  0  0  0  0  0  0  0  0  0
    3.3769   -0.2149    2.9250 C   0  0  0  0  0  0  0  0  0  0  0  0
    3.0682    1.1639    3.4946 C   0  0  0  0  0  0  0  0  0  0  0  0
    1.6167    1.5525    3.1285 C   0  0  2  0  0  0  0  0  0  0  0  0
    1.6169    1.7435    1.7105 O   0  0  0  0  0  0  0  0  0  0  0  0
    1.1275    2.8828    3.7595 C   0  0  2  0  0  0  0  0  0  0  0  0
    1.2120    2.8059    5.3089 C   0  0  0  0  0  0  0  0  0  0  0  0
    0.6127    1.5595    5.9510 C   0  0  0  0  0  0  0  0  0  0  0  0
    0.2632    1.3475    7.2923 C   0  0  0  0  0  0  0  0  0  0  0  0
   -0.1564    0.0588    7.7003 C   0  0  0  0  0  0  0  0  0  0  0  0
   -0.1699   -1.0428    6.7959 C   0  0  0  0  0  0  0  0  0  0  0  0
   -0.4745   -2.3098    7.2426 O   0  0  0  0  0  0  0  0  0  0  0  0
    0.1609   -0.8461    5.4384 C   0  0  0  0  0  0  0  0  0  0  0  0
    0.4751    0.4568    5.0926 C   0  0  0  0  0  0  0  0  0  0  0  0
    0.6358    0.4548    3.5981 C   0  0  1  0  0  0  0  0  0  0  0  0
   -0.7521    0.7828    2.9899 C   0  0  0  0  0  0  0  0  0  0  0  0
   -1.2598    2.1591    3.4597 C   0  0  0  0  0  0  0  0  0  0  0  0
   -0.2491    3.2296    3.2744 N   0  0  1  0  0  0  0  0  0  0  0  0
   -0.7413    4.5350    3.7438 C   0  0  0  0  0  0  0  0  0  0  0  0
    1.0149   -1.0481    3.3740 C   0  0  2  0  0  0  0  0  0  0  0  0
    0.2861   -1.7423    4.4089 O   0  0  0  0  0  0  0  0  0  0  0  0
    7.7072   -3.7355   -1.7482 H   0  0  0  0  0  0  0  0  0  0  0  0
    7.1101   -2.2020   -2.3165 H   0  0  0  0  0  0  0  0  0  0  0  0
    6.6584   -3.6751   -3.1813 H   0  0  0  0  0  0  0  0  0  0  0  0
    5.4235   -4.5046   -1.1575 H   0  0  0  0  0  0  0  0  0  0  0  0
    5.9360   -3.0706   -0.3694 H   0  0  0  0  0  0  0  0  0  0  0  0
    4.9073   -0.6703   -1.4907 H   0  0  0  0  0  0  0  0  0  0  0  0
    3.5416   -0.8385   -2.5866 H   0  0  0  0  0  0  0  0  0  0  0  0
    5.1511   -1.2282   -3.1255 H   0  0  0  0  0  0  0  0  0  0  0  0
    3.6286   -4.3343   -2.7618 H   0  0  0  0  0  0  0  0  0  0  0  0
    2.2389   -2.4450   -1.2365 H   0  0  0  0  0  0  0  0  0  0  0  0
    2.8475   -4.0130   -0.7641 H   0  0  0  0  0  0  0  0  0  0  0  0
    2.3600   -3.5226    3.4229 H   0  0  0  0  0  0  0  0  0  0  0  0
    3.9546   -2.9924    3.0583 H   0  0  0  0  0  0  0  0  0  0  0  0
    2.7826   -0.6302    5.2721 H   0  0  0  0  0  0  0  0  0  0  0  0
    4.4441   -0.4427    3.0059 H   0  0  0  0  0  0  0  0  0  0  0  0
    3.1416   -0.1031    1.8690 H   0  0  0  0  0  0  0  0  0  0  0  0
    3.2961    1.1908    4.5577 H   0  0  0  0  0  0  0  0  0  0  0  0
    3.7571    1.8438    3.0050 H   0  0  0  0  0  0  0  0  0  0  0  0
    0.8973    2.2759    1.4073 H   0  0  0  0  0  0  0  0  0  0  0  0
    1.7913    3.6825    3.4239 H   0  0  0  0  0  0  0  0  0  0  0  0
    2.2653    2.8436    5.6009 H   0  0  0  0  0  0  0  0  0  0  0  0
    0.7768    3.6861    5.7743 H   0  0  0  0  0  0  0  0  0  0  0  0
    0.3405    2.1586    8.0088 H   0  0  0  0  0  0  0  0  0  0  0  0
   -0.4368   -0.0889    8.7228 H   0  0  0  0  0  0  0  0  0  0  0  0
   -0.7214    0.7554    1.8961 H   0  0  0  0  0  0  0  0  0  0  0  0
   -1.4848    0.0252    3.2849 H   0  0  0  0  0  0  0  0  0  0  0  0
   -2.1689    2.4087    2.9132 H   0  0  0  0  0  0  0  0  0  0  0  0
   -1.5667    2.0920    4.5050 H   0  0  0  0  0  0  0  0  0  0  0  0
   -1.0267    4.5164    4.7991 H   0  0  0  0  0  0  0  0  0  0  0  0
   -1.6284    4.8126    3.1718 H   0  0  0  0  0  0  0  0  0  0  0  0
    0.0044    5.3184    3.5951 H   0  0  0  0  0  0  0  0  0  0  0  0
    0.6596   -1.3740    2.3967 H   0  0  0  0  0  0  0  0  0  0  0  0
   -0.1703    3.3888    2.2771 H   0  0  0  0  0  0  0  0  0  0  0  0
  1  2  1  0
  1 33  1  0
  1 34  1  0
  1 35  1  0
  2  3  1  0
  2 36  1  0
  2 37  1  0
  3  4  1  0
  3  5  1  6
  3  6  1  0
  4 38  1  0
  4 39  1  0
  4 40  1  0
  5 41  1  0
  6  7  1  0
  6 42  1  0
  6 43  1  0
  7  8  2  0
  7  9  1  0
  9 10  1  0
 10 11  1  0
 10 44  1  0
 10 45  1  0
 11 31  1  0
 11 12  1  1
 11 13  1  0
 12 46  1  0
 13 14  1  0
 13 47  1  0
 13 48  1  0
 14 15  1  0
 14 49  1  0
 14 50  1  0
 15 26  1  0
 15 16  1  6
 15 17  1  0
 16 51  1  0
 17 29  1  0
 17 18  1  0
 17 52  1  6
 18 19  1  0
 18 53  1  0
 18 54  1  0
 19 25  2  0
 19 20  1  0
 20 21  2  0
 20 55  1  0
 21 22  1  0
 21 56  1  0
 22 23  1  0
 22 24  2  0
 24 32  1  0
 24 25  1  0
 25 26  1  0
 26 27  1  6
 26 31  1  0
 27 28  1  0
 27 57  1  0
 27 58  1  0
 28 29  1  0
 28 59  1  0
 28 60  1  0
 29 30  1  0
 29 65  1  6
 30 61  1  0
 30 62  1  0
 30 63  1  0
 31 32  1  0
 31 64  1  6
M  CHG  2  23  -1  29   1
M  END
>  <i_m_ct_stereo_status>  (152) 
1

>  <s_m_source_file>  (152) 
/var/tmp/pbs.5076255.sched01/tmp276pg2sv/48_ir7zhrj.sdf

>  <i_m_source_file_index>  (152) 
20

>  <i_lp_mmshare_version>  (152) 
48012

>  <i_f3d_flags>  (152) 
0

>  <s_epik_input>  (152) 
W0NIM11bQ0gyXVtDQEBdKFtDSDNdKShbT0hdKVtDSDJdQyg9TylPW0NIMl1bQ0BAXShbT0hdKShbQ0gyXVtDSDJdMSlbQ0BIXTJPYyhjKFtPSF0pW2NIXVtjSF0zKWM0YzNbQ0gyXVtDQEBIXShbQ0BAXTEoW0NAQF0yNDUpW09IXSlOKFtDSDNdKVtDSDJdW0NIMl01

>  <s_epik_cmdline>  (152) 
J2VwaWtfcHl0aG9uJywgJy1waHQnLCAnMi4wJywgJy1waCcsICc3LjAnLCAnLXRuJywgJzgnLCAnLW1hJywgJzIwMCcsICctaW1hZScsICc8aW5maWxlLm1hZT4nLCAnLW9tYWUnLCAnPG91dGZpbGUubWFlPic=

>  <r_epik_Ionization_Penalty>  (152) 
2.52247

>  <r_epik_Ionization_Penalty_Charging>  (152) 
2.52247

>  <r_epik_Ionization_Penalty_Neutral>  (152) 
8.45587e-07

>  <r_epik_State_Penalty>  (152) 
2.6806

>  <r_epik_Charging_Adjusted_Penalty>  (152) 
5.20307

>  <i_epik_Tot_Q>  (152) 
0

>  <i_epik_Tot_abs_Q>  (152) 
2

>  <s_epik_Chemistry_Notes>  (152) 
This compound has an ester and may undergo hydrolysis at high or low pH.

>  <s_lp_Force_Field>  (152) 
OPLS3e

>  <r_lp_Energy>  (152) 
59.8458

>  <b_lp_Chiralities_Consistent>  (152) 
1

>  <s_lp_Variant>  (152) 
42:0-3

>  <s_i_glide_gridfile>  (152) 
pfpi4k_grid

>  <i_i_glide_lignum>  (152) 
20

>  <i_i_glide_rotatable_bonds>  (152) 
9

>  <r_i_docking_score>  (152) 
-3.84304

>  <r_i_glide_ligand_efficiency>  (152) 
-0.120095

>  <r_i_glide_ligand_efficiency_sa>  (152) 
-0.381278

>  <r_i_glide_ligand_efficiency_ln>  (152) 
-0.860562

>  <r_i_glide_gscore>  (152) 
-3.84304

>  <r_i_glide_lipo>  (152) 
-0.107803

>  <r_i_glide_hbond>  (152) 
-0.617805

>  <r_i_glide_metal>  (152) 
-0

>  <r_i_glide_rewards>  (152) 
-0.657809

>  <r_i_glide_evdw>  (152) 
-23.2461

>  <r_i_glide_ecoul>  (152) 
-11.1567

>  <r_i_glide_erotb>  (152) 
0.499944

>  <r_i_glide_esite>  (152) 
-0.123761

>  <r_i_glide_emodel>  (152) 
-44.7671

>  <r_i_glide_energy>  (152) 
-34.4028

>  <r_i_glide_einternal>  (152) 
2.79492

>  <r_i_glide_intrahb_reward>  (152) 
-0

>  <i_i_glide_confnum>  (152) 
3

>  <i_i_glide_posenum>  (152) 
2

>  <r_i_glide_eff_state_penalty>  (152) 
0

>  <ligand_id>  (152) 
42

>  <original_smiles>  (152) 
CCC(C)(O)CC(=O)OCC1(O)CCC2(O)C3Cc4ccc(O)c5c4C2(CCN3C)C1O5

>  <smiles>  (152) 
[H]OC(C([H])([H])[H])(C([H])([H])C(=O)OC([H])([H])C1(O[H])C([H])([H])C([H])([H])C2(O[H])C34c5c(c([O-])c([H])c([H])c5C([H])([H])C2([H])[N+]([H])(C([H])([H])[H])C([H])([H])C3([H])[H])OC14[H])C([H])([H])C([H])([H])[H]

$$$$
42:2:1
     RDKit          3D

 65 69  0  0  1  0  0  0  0  0999 V2000
    3.6722   -0.3094   -3.7337 C   0  0  0  0  0  0  0  0  0  0  0  0
    4.1391   -1.2673   -2.6220 C   0  0  0  0  0  0  0  0  0  0  0  0
    3.7752   -2.7623   -2.8176 C   0  0  1  0  0  0  0  0  0  0  0  0
    2.2525   -3.0162   -2.8846 C   0  0  0  0  0  0  0  0  0  0  0  0
    4.2566   -3.1630   -4.0783 O   0  0  0  0  0  0  0  0  0  0  0  0
    4.5537   -3.6526   -1.8015 C   0  0  0  0  0  0  0  0  0  0  0  0
    4.0472   -3.6965   -0.3443 C   0  0  0  0  0  0  0  0  0  0  0  0
    3.0293   -3.1222    0.0336 O   0  0  0  0  0  0  0  0  0  0  0  0
    4.8202   -4.4363    0.4678 O   0  0  0  0  0  0  0  0  0  0  0  0
    4.4051   -4.6394    1.8227 C   0  0  0  0  0  0  0  0  0  0  0  0
    3.5432   -5.9153    2.0250 C   0  0  1  0  0  0  0  0  0  0  0  0
    2.2158   -5.5587    1.6748 O   0  0  0  0  0  0  0  0  0  0  0  0
    3.9508   -7.0611    1.0714 C   0  0  0  0  0  0  0  0  0  0  0  0
    3.1285   -8.3483    1.2912 C   0  0  0  0  0  0  0  0  0  0  0  0
    3.3344   -8.9222    2.7115 C   0  0  2  0  0  0  0  0  0  0  0  0
    4.6624   -9.4199    2.7289 O   0  0  0  0  0  0  0  0  0  0  0  0
    2.4215  -10.1189    3.1029 C   0  0  2  0  0  0  0  0  0  0  0  0
    0.9206   -9.7439    3.0686 C   0  0  0  0  0  0  0  0  0  0  0  0
    0.5475   -8.4447    3.7834 C   0  0  0  0  0  0  0  0  0  0  0  0
   -0.7281   -7.9999    4.1852 C   0  0  0  0  0  0  0  0  0  0  0  0
   -0.8413   -6.6983    4.7493 C   0  0  0  0  0  0  0  0  0  0  0  0
    0.2695   -5.8155    4.8580 C   0  0  0  0  0  0  0  0  0  0  0  0
    0.1073   -4.5582    5.3615 O   0  0  0  0  0  0  0  0  0  0  0  0
    1.5515   -6.2561    4.4294 C   0  0  0  0  0  0  0  0  0  0  0  0
    1.6123   -7.5617    3.9811 C   0  0  0  0  0  0  0  0  0  0  0  0
    3.0755   -7.8346    3.7810 C   0  0  1  0  0  0  0  0  0  0  0  0
    3.6179   -8.4047    5.1273 C   0  0  0  0  0  0  0  0  0  0  0  0
    2.8736   -9.6936    5.5367 C   0  0  0  0  0  0  0  0  0  0  0  0
    2.8355  -10.6707    4.4301 N   0  0  1  0  0  0  0  0  0  0  0  0
    2.1043  -11.8778    4.8345 C   0  0  0  0  0  0  0  0  0  0  0  0
    3.6033   -6.3903    3.5163 C   0  0  2  0  0  0  0  0  0  0  0  0
    2.7437   -5.5623    4.3308 O   0  0  0  0  0  0  0  0  0  0  0  0
    3.9700    0.7177   -3.5128 H   0  0  0  0  0  0  0  0  0  0  0  0
    2.5890   -0.3125   -3.8291 H   0  0  0  0  0  0  0  0  0  0  0  0
    4.0953   -0.5719   -4.7048 H   0  0  0  0  0  0  0  0  0  0  0  0
    5.2222   -1.1635   -2.5369 H   0  0  0  0  0  0  0  0  0  0  0  0
    3.7303   -0.9277   -1.6700 H   0  0  0  0  0  0  0  0  0  0  0  0
    1.7315   -2.6559   -2.0073 H   0  0  0  0  0  0  0  0  0  0  0  0
    2.0252   -4.0759   -2.9459 H   0  0  0  0  0  0  0  0  0  0  0  0
    1.7861   -2.5238   -3.7379 H   0  0  0  0  0  0  0  0  0  0  0  0
    4.0588   -4.0857   -4.1766 H   0  0  0  0  0  0  0  0  0  0  0  0
    4.6098   -4.6739   -2.1715 H   0  0  0  0  0  0  0  0  0  0  0  0
    5.5974   -3.3403   -1.7790 H   0  0  0  0  0  0  0  0  0  0  0  0
    5.3251   -4.7028    2.3995 H   0  0  0  0  0  0  0  0  0  0  0  0
    3.8942   -3.7553    2.2137 H   0  0  0  0  0  0  0  0  0  0  0  0
    1.9417   -4.8891    2.2921 H   0  0  0  0  0  0  0  0  0  0  0  0
    3.8072   -6.7509    0.0332 H   0  0  0  0  0  0  0  0  0  0  0  0
    5.0149   -7.2697    1.1925 H   0  0  0  0  0  0  0  0  0  0  0  0
    2.0755   -8.1132    1.1261 H   0  0  0  0  0  0  0  0  0  0  0  0
    3.4094   -9.0863    0.5396 H   0  0  0  0  0  0  0  0  0  0  0  0
    4.7603  -10.0912    2.0583 H   0  0  0  0  0  0  0  0  0  0  0  0
    2.5771  -10.9181    2.3744 H   0  0  0  0  0  0  0  0  0  0  0  0
    0.6212   -9.6237    2.0316 H   0  0  0  0  0  0  0  0  0  0  0  0
    0.2930  -10.5491    3.4414 H   0  0  0  0  0  0  0  0  0  0  0  0
   -1.5802   -8.6404    4.0728 H   0  0  0  0  0  0  0  0  0  0  0  0
   -1.8125   -6.3669    5.0900 H   0  0  0  0  0  0  0  0  0  0  0  0
    4.6917   -8.6115    5.0680 H   0  0  0  0  0  0  0  0  0  0  0  0
    3.5052   -7.6741    5.9402 H   0  0  0  0  0  0  0  0  0  0  0  0
    3.3712  -10.1477    6.3937 H   0  0  0  0  0  0  0  0  0  0  0  0
    1.8669   -9.4555    5.8762 H   0  0  0  0  0  0  0  0  0  0  0  0
    1.0885  -11.7025    5.1760 H   0  0  0  0  0  0  0  0  0  0  0  0
    2.6454  -12.3929    5.6209 H   0  0  0  0  0  0  0  0  0  0  0  0
    2.0703  -12.4927    3.9564 H   0  0  0  0  0  0  0  0  0  0  0  0
    4.6332   -6.3216    3.8701 H   0  0  0  0  0  0  0  0  0  0  0  0
    3.7829  -10.9616    4.2920 H   0  0  0  0  0  0  0  0  0  0  0  0
  1  2  1  0
  1 33  1  0
  1 34  1  0
  1 35  1  0
  2  3  1  0
  2 36  1  0
  2 37  1  0
  3  4  1  0
  3  5  1  6
  3  6  1  0
  4 38  1  0
  4 39  1  0
  4 40  1  0
  5 41  1  0
  6  7  1  0
  6 42  1  0
  6 43  1  0
  7  8  2  0
  7  9  1  0
  9 10  1  0
 10 11  1  0
 10 44  1  0
 10 45  1  0
 11 31  1  0
 11 12  1  6
 11 13  1  0
 12 46  1  0
 13 14  1  0
 13 47  1  0
 13 48  1  0
 14 15  1  0
 14 49  1  0
 14 50  1  0
 15 26  1  0
 15 16  1  6
 15 17  1  0
 16 51  1  0
 17 29  1  0
 17 18  1  0
 17 52  1  6
 18 19  1  0
 18 53  1  0
 18 54  1  0
 19 25  2  0
 19 20  1  0
 20 21  2  0
 20 55  1  0
 21 22  1  0
 21 56  1  0
 22 23  1  0
 22 24  2  0
 24 32  1  0
 24 25  1  0
 25 26  1  0
 26 27  1  1
 26 31  1  0
 27 28  1  0
 27 57  1  0
 27 58  1  0
 28 29  1  0
 28 59  1  0
 28 60  1  0
 29 30  1  0
 29 65  1  6
 30 61  1  0
 30 62  1  0
 30 63  1  0
 31 32  1  0
 31 64  1  1
M  CHG  2  23  -1  29   1
M  END
>  <i_m_ct_stereo_status>  (153) 
1

>  <s_m_source_file>  (153) 
/var/tmp/pbs.5076255.sched01/tmp276pg2sv/48_ir7zhrj.sdf

>  <i_m_source_file_index>  (153) 
20

>  <i_lp_mmshare_version>  (153) 
48012

>  <i_f3d_flags>  (153) 
0

>  <s_epik_input>  (153) 
W0NIM11bQ0gyXVtDQEBdKFtDSDNdKShbT0hdKVtDSDJdQyg9TylPW0NIMl1bQ0BAXShbT0hdKShbQ0gyXVtDSDJdMSlbQ0BIXTJPYyhjKFtPSF0pW2NIXVtjSF0zKWM0YzNbQ0gyXVtDQEBIXShbQ0BAXTEoW0NAQF0yNDUpW09IXSlOKFtDSDNdKVtDSDJdW0NIMl01

>  <s_epik_cmdline>  (153) 
J2VwaWtfcHl0aG9uJywgJy1waHQnLCAnMi4wJywgJy1waCcsICc3LjAnLCAnLXRuJywgJzgnLCAnLW1hJywgJzIwMCcsICctaW1hZScsICc8aW5maWxlLm1hZT4nLCAnLW9tYWUnLCAnPG91dGZpbGUubWFlPic=

>  <r_epik_Ionization_Penalty>  (153) 
2.52247

>  <r_epik_Ionization_Penalty_Charging>  (153) 
2.52247

>  <r_epik_Ionization_Penalty_Neutral>  (153) 
8.45587e-07

>  <r_epik_State_Penalty>  (153) 
2.6806

>  <r_epik_Charging_Adjusted_Penalty>  (153) 
5.20307

>  <i_epik_Tot_Q>  (153) 
0

>  <i_epik_Tot_abs_Q>  (153) 
2

>  <s_epik_Chemistry_Notes>  (153) 
This compound has an ester and may undergo hydrolysis at high or low pH.

>  <s_lp_Force_Field>  (153) 
OPLS3e

>  <r_lp_Energy>  (153) 
59.8458

>  <b_lp_Chiralities_Consistent>  (153) 
1

>  <s_lp_Variant>  (153) 
42:0-3

>  <s_i_glide_gridfile>  (153) 
pfpi4k_grid

>  <i_i_glide_lignum>  (153) 
20

>  <i_i_glide_rotatable_bonds>  (153) 
9

>  <r_i_docking_score>  (153) 
-3.24215

>  <r_i_glide_ligand_efficiency>  (153) 
-0.101317

>  <r_i_glide_ligand_efficiency_sa>  (153) 
-0.321662

>  <r_i_glide_ligand_efficiency_ln>  (153) 
-0.726005

>  <r_i_glide_gscore>  (153) 
-3.24215

>  <r_i_glide_lipo>  (153) 
-0.560531

>  <r_i_glide_hbond>  (153) 
-0.137863

>  <r_i_glide_metal>  (153) 
-0

>  <r_i_glide_rewards>  (153) 
-0.362111

>  <r_i_glide_evdw>  (153) 
-29.9098

>  <r_i_glide_ecoul>  (153) 
-7.78077

>  <r_i_glide_erotb>  (153) 
0.499944

>  <r_i_glide_esite>  (153) 
-0.0189792

>  <r_i_glide_emodel>  (153) 
-46.1138

>  <r_i_glide_energy>  (153) 
-37.6906

>  <r_i_glide_einternal>  (153) 
4.49515

>  <r_i_glide_intrahb_reward>  (153) 
-0

>  <i_i_glide_confnum>  (153) 
2

>  <i_i_glide_posenum>  (153) 
9

>  <r_i_glide_eff_state_penalty>  (153) 
0

>  <ligand_id>  (153) 
42

>  <original_smiles>  (153) 
CCC(C)(O)CC(=O)OCC1(O)CCC2(O)C3Cc4ccc(O)c5c4C2(CCN3C)C1O5

>  <smiles>  (153) 
[H]OC(C([H])([H])[H])(C([H])([H])C(=O)OC([H])([H])C1(O[H])C([H])([H])C([H])([H])C2(O[H])C34c5c(c([O-])c([H])c([H])c5C([H])([H])C2([H])[N+]([H])(C([H])([H])[H])C([H])([H])C3([H])[H])OC14[H])C([H])([H])C([H])([H])[H]

$$$$
42:2:2
     RDKit          3D

 65 69  0  0  1  0  0  0  0  0999 V2000
    5.3220   -0.9375   -0.4482 C   0  0  0  0  0  0  0  0  0  0  0  0
    4.0113   -1.2095   -1.2175 C   0  0  0  0  0  0  0  0  0  0  0  0
    3.9680   -2.5408   -2.0252 C   0  0  1  0  0  0  0  0  0  0  0  0
    2.5091   -2.8986   -2.4245 C   0  0  0  0  0  0  0  0  0  0  0  0
    4.6506   -2.3398   -3.2400 O   0  0  0  0  0  0  0  0  0  0  0  0
    4.7104   -3.7174   -1.3357 C   0  0  0  0  0  0  0  0  0  0  0  0
    4.2012   -4.0001    0.0807 C   0  0  0  0  0  0  0  0  0  0  0  0
    3.0996   -3.6129    0.4658 O   0  0  0  0  0  0  0  0  0  0  0  0
    5.0732   -4.6898    0.8383 O   0  0  0  0  0  0  0  0  0  0  0  0
    4.7460   -5.0422    2.1881 C   0  0  0  0  0  0  0  0  0  0  0  0
    3.7241   -6.2212    2.3083 C   0  0  1  0  0  0  0  0  0  0  0  0
    2.4300   -5.7514    1.9820 O   0  0  0  0  0  0  0  0  0  0  0  0
    3.9580   -7.3059    1.2408 C   0  0  0  0  0  0  0  0  0  0  0  0
    2.8900   -8.4175    1.3293 C   0  0  0  0  0  0  0  0  0  0  0  0
    2.9541   -9.1314    2.6787 C   0  0  2  0  0  0  0  0  0  0  0  0
    4.1553   -9.8919    2.6291 O   0  0  0  0  0  0  0  0  0  0  0  0
    1.8054  -10.1406    2.9465 C   0  0  2  0  0  0  0  0  0  0  0  0
    0.4122   -9.4862    2.9450 C   0  0  0  0  0  0  0  0  0  0  0  0
    0.2870   -8.2318    3.7941 C   0  0  0  0  0  0  0  0  0  0  0  0
   -0.8886   -7.5825    4.2399 C   0  0  0  0  0  0  0  0  0  0  0  0
   -0.7579   -6.3678    4.9389 C   0  0  0  0  0  0  0  0  0  0  0  0
    0.5009   -5.7234    5.1439 C   0  0  0  0  0  0  0  0  0  0  0  0
    0.5299   -4.5086    5.7698 O   0  0  0  0  0  0  0  0  0  0  0  0
    1.6848   -6.3594    4.6883 C   0  0  0  0  0  0  0  0  0  0  0  0
    1.4952   -7.5889    4.1064 C   0  0  0  0  0  0  0  0  0  0  0  0
    2.8833   -8.1429    3.8649 C   0  0  1  0  0  0  0  0  0  0  0  0
    3.2811   -8.9313    5.1376 C   0  0  0  0  0  0  0  0  0  0  0  0
    2.2990  -10.0779    5.4008 C   0  0  0  0  0  0  0  0  0  0  0  0
    2.0759  -10.9056    4.1980 N   0  0  1  0  0  0  0  0  0  0  0  0
    1.1119  -11.9804    4.4603 C   0  0  0  0  0  0  0  0  0  0  0  0
    3.6998   -6.8196    3.7540 C   0  0  2  0  0  0  0  0  0  0  0  0
    2.9931   -5.9250    4.6649 O   0  0  0  0  0  0  0  0  0  0  0  0
    5.2679    0.0121    0.0844 H   0  0  0  0  0  0  0  0  0  0  0  0
    6.1697   -0.9290   -1.1266 H   0  0  0  0  0  0  0  0  0  0  0  0
    5.5346   -1.6773    0.3220 H   0  0  0  0  0  0  0  0  0  0  0  0
    3.1998   -1.1947   -0.4885 H   0  0  0  0  0  0  0  0  0  0  0  0
    3.8071   -0.3759   -1.8915 H   0  0  0  0  0  0  0  0  0  0  0  0
    1.8293   -2.9840   -1.5777 H   0  0  0  0  0  0  0  0  0  0  0  0
    2.4445   -3.8486   -2.9571 H   0  0  0  0  0  0  0  0  0  0  0  0
    2.0760   -2.1256   -3.0595 H   0  0  0  0  0  0  0  0  0  0  0  0
    4.6548   -3.1727   -3.6777 H   0  0  0  0  0  0  0  0  0  0  0  0
    4.6190   -4.6336   -1.9285 H   0  0  0  0  0  0  0  0  0  0  0  0
    5.7850   -3.5029   -1.2776 H   0  0  0  0  0  0  0  0  0  0  0  0
    5.6895   -5.3781    2.6122 H   0  0  0  0  0  0  0  0  0  0  0  0
    4.4876   -4.1689    2.7895 H   0  0  0  0  0  0  0  0  0  0  0  0
    2.5398   -4.9994    1.4106 H   0  0  0  0  0  0  0  0  0  0  0  0
    3.8804   -6.8681    0.2443 H   0  0  0  0  0  0  0  0  0  0  0  0
    4.9660   -7.7092    1.3306 H   0  0  0  0  0  0  0  0  0  0  0  0
    1.9066   -7.9761    1.1616 H   0  0  0  0  0  0  0  0  0  0  0  0
    3.0466   -9.1369    0.5227 H   0  0  0  0  0  0  0  0  0  0  0  0
    4.1556  -10.4540    1.8628 H   0  0  0  0  0  0  0  0  0  0  0  0
    1.8228  -10.8599    2.1307 H   0  0  0  0  0  0  0  0  0  0  0  0
    0.1711   -9.2049    1.9331 H   0  0  0  0  0  0  0  0  0  0  0  0
   -0.3615  -10.1985    3.2299 H   0  0  0  0  0  0  0  0  0  0  0  0
   -1.8612   -8.0417    4.0532 H   0  0  0  0  0  0  0  0  0  0  0  0
   -1.6375   -5.9002    5.3325 H   0  0  0  0  0  0  0  0  0  0  0  0
    4.2907   -9.3264    5.0374 H   0  0  0  0  0  0  0  0  0  0  0  0
    3.2885   -8.2821    6.0072 H   0  0  0  0  0  0  0  0  0  0  0  0
    2.6764  -10.7102    6.2028 H   0  0  0  0  0  0  0  0  0  0  0  0
    1.3465   -9.6883    5.7621 H   0  0  0  0  0  0  0  0  0  0  0  0
    0.1604  -11.6234    4.8452 H   0  0  0  0  0  0  0  0  0  0  0  0
    1.5297  -12.6520    5.2035 H   0  0  0  0  0  0  0  0  0  0  0  0
    0.9161  -12.4935    3.5296 H   0  0  0  0  0  0  0  0  0  0  0  0
    4.7253   -6.9787    4.1023 H   0  0  0  0  0  0  0  0  0  0  0  0
    2.9715  -11.3726    4.0212 H   0  0  0  0  0  0  0  0  0  0  0  0
  1  2  1  0
  1 33  1  0
  1 34  1  0
  1 35  1  0
  2  3  1  0
  2 36  1  0
  2 37  1  0
  3  4  1  0
  3  5  1  6
  3  6  1  0
  4 38  1  0
  4 39  1  0
  4 40  1  0
  5 41  1  0
  6  7  1  0
  6 42  1  0
  6 43  1  0
  7  8  2  0
  7  9  1  0
  9 10  1  0
 10 11  1  0
 10 44  1  0
 10 45  1  0
 11 31  1  0
 11 12  1  6
 11 13  1  0
 12 46  1  0
 13 14  1  0
 13 47  1  0
 13 48  1  0
 14 15  1  0
 14 49  1  0
 14 50  1  0
 15 26  1  0
 15 16  1  6
 15 17  1  0
 16 51  1  0
 17 29  1  0
 17 18  1  0
 17 52  1  6
 18 19  1  0
 18 53  1  0
 18 54  1  0
 19 25  2  0
 19 20  1  0
 20 21  2  0
 20 55  1  0
 21 22  1  0
 21 56  1  0
 22 23  1  0
 22 24  2  0
 24 32  1  0
 24 25  1  0
 25 26  1  0
 26 27  1  1
 26 31  1  0
 27 28  1  0
 27 57  1  0
 27 58  1  0
 28 29  1  0
 28 59  1  0
 28 60  1  0
 29 30  1  0
 29 65  1  6
 30 61  1  0
 30 62  1  0
 30 63  1  0
 31 32  1  0
 31 64  1  1
M  CHG  2  23  -1  29   1
M  END
>  <i_m_ct_stereo_status>  (154) 
1

>  <s_m_source_file>  (154) 
/var/tmp/pbs.5076255.sched01/tmp276pg2sv/48_ir7zhrj.sdf

>  <i_m_source_file_index>  (154) 
20

>  <i_lp_mmshare_version>  (154) 
48012

>  <i_f3d_flags>  (154) 
0

>  <s_epik_input>  (154) 
W0NIM11bQ0gyXVtDQEBdKFtDSDNdKShbT0hdKVtDSDJdQyg9TylPW0NIMl1bQ0BAXShbT0hdKShbQ0gyXVtDSDJdMSlbQ0BIXTJPYyhjKFtPSF0pW2NIXVtjSF0zKWM0YzNbQ0gyXVtDQEBIXShbQ0BAXTEoW0NAQF0yNDUpW09IXSlOKFtDSDNdKVtDSDJdW0NIMl01

>  <s_epik_cmdline>  (154) 
J2VwaWtfcHl0aG9uJywgJy1waHQnLCAnMi4wJywgJy1waCcsICc3LjAnLCAnLXRuJywgJzgnLCAnLW1hJywgJzIwMCcsICctaW1hZScsICc8aW5maWxlLm1hZT4nLCAnLW9tYWUnLCAnPG91dGZpbGUubWFlPic=

>  <r_epik_Ionization_Penalty>  (154) 
2.52247

>  <r_epik_Ionization_Penalty_Charging>  (154) 
2.52247

>  <r_epik_Ionization_Penalty_Neutral>  (154) 
8.45587e-07

>  <r_epik_State_Penalty>  (154) 
2.6806

>  <r_epik_Charging_Adjusted_Penalty>  (154) 
5.20307

>  <i_epik_Tot_Q>  (154) 
0

>  <i_epik_Tot_abs_Q>  (154) 
2

>  <s_epik_Chemistry_Notes>  (154) 
This compound has an ester and may undergo hydrolysis at high or low pH.

>  <s_lp_Force_Field>  (154) 
OPLS3e

>  <r_lp_Energy>  (154) 
59.8458

>  <b_lp_Chiralities_Consistent>  (154) 
1

>  <s_lp_Variant>  (154) 
42:0-3

>  <s_i_glide_gridfile>  (154) 
pfpi4k_grid

>  <i_i_glide_lignum>  (154) 
20

>  <i_i_glide_rotatable_bonds>  (154) 
9

>  <r_i_docking_score>  (154) 
-2.85256

>  <r_i_glide_ligand_efficiency>  (154) 
-0.0891425

>  <r_i_glide_ligand_efficiency_sa>  (154) 
-0.28301

>  <r_i_glide_ligand_efficiency_ln>  (154) 
-0.638766

>  <r_i_glide_gscore>  (154) 
-2.85256

>  <r_i_glide_lipo>  (154) 
-0.187434

>  <r_i_glide_hbond>  (154) 
-0.0625552

>  <r_i_glide_metal>  (154) 
-0

>  <r_i_glide_rewards>  (154) 
-0.867796

>  <r_i_glide_evdw>  (154) 
-26.6781

>  <r_i_glide_ecoul>  (154) 
-5.89949

>  <r_i_glide_erotb>  (154) 
0.499944

>  <r_i_glide_esite>  (154) 
-0.0158885

>  <r_i_glide_emodel>  (154) 
-42.6079

>  <r_i_glide_energy>  (154) 
-32.5776

>  <r_i_glide_einternal>  (154) 
4.66041

>  <r_i_glide_intrahb_reward>  (154) 
-0.5

>  <i_i_glide_confnum>  (154) 
2

>  <i_i_glide_posenum>  (154) 
11

>  <r_i_glide_eff_state_penalty>  (154) 
0

>  <ligand_id>  (154) 
42

>  <original_smiles>  (154) 
CCC(C)(O)CC(=O)OCC1(O)CCC2(O)C3Cc4ccc(O)c5c4C2(CCN3C)C1O5

>  <smiles>  (154) 
[H]OC(C([H])([H])[H])(C([H])([H])C(=O)OC([H])([H])C1(O[H])C([H])([H])C([H])([H])C2(O[H])C34c5c(c([O-])c([H])c([H])c5C([H])([H])C2([H])[N+]([H])(C([H])([H])[H])C([H])([H])C3([H])[H])OC14[H])C([H])([H])C([H])([H])[H]

$$$$
43:0:0
     RDKit          3D

 31 33  0  0  1  0  0  0  0  0999 V2000
    8.0039   -7.5476    2.9826 C   0  0  0  0  0  0  0  0  0  0  0  0
    7.7474   -6.9659    1.5930 C   0  0  0  0  0  0  0  0  0  0  0  0
    8.8544   -6.1637    0.9096 C   0  0  0  0  0  0  0  0  0  0  0  0
    7.8289   -5.2323    0.4786 N   0  0  0  0  0  0  0  0  0  0  0  0
    8.1228   -3.8675    0.4401 C   0  0  0  0  0  0  0  0  0  0  0  0
    9.1997   -3.4248    0.8549 O   0  0  0  0  0  0  0  0  0  0  0  0
    7.0903   -2.9890   -0.2180 C   0  0  0  0  0  0  0  0  0  0  0  0
    6.3488   -3.2523   -1.3020 N   0  0  0  0  0  0  0  0  0  0  0  0
    5.6121   -2.1167   -1.3933 C   0  0  0  0  0  0  0  0  0  0  0  0
    4.6968   -1.8789   -2.5036 C   0  0  0  0  0  0  0  0  0  0  0  0
    4.1880   -2.8619   -3.4029 C   0  0  0  0  0  0  0  0  0  0  0  0
    3.4311   -2.2959   -4.3185 N   0  0  0  0  0  0  0  0  0  0  0  0
    3.4336   -0.9690   -4.0426 N   0  0  0  0  0  0  0  0  0  0  0  0
    2.7033   -0.0564   -4.8978 C   0  0  0  0  0  0  0  0  0  0  0  0
    4.2025   -0.6809   -2.9337 C   0  0  0  0  0  0  0  0  0  0  0  0
    5.8173   -1.1881   -0.4677 N   0  0  0  0  0  0  0  0  0  0  0  0
    6.8304   -1.7618    0.3219 O   0  0  0  0  0  0  0  0  0  0  0  0
    6.8590   -5.7220    1.4416 C   0  0  0  0  0  0  0  0  0  0  0  0
    8.3861   -6.7731    3.6428 H   0  0  0  0  0  0  0  0  0  0  0  0
    8.7552   -8.3393    2.9488 H   0  0  0  0  0  0  0  0  0  0  0  0
    7.0921   -7.9430    3.4333 H   0  0  0  0  0  0  0  0  0  0  0  0
    7.3990   -7.7296    0.9010 H   0  0  0  0  0  0  0  0  0  0  0  0
    9.5730   -5.7695    1.6370 H   0  0  0  0  0  0  0  0  0  0  0  0
    9.3363   -6.6684    0.0722 H   0  0  0  0  0  0  0  0  0  0  0  0
    4.3592   -3.9308   -3.4212 H   0  0  0  0  0  0  0  0  0  0  0  0
    2.7131    0.9403   -4.4629 H   0  0  0  0  0  0  0  0  0  0  0  0
    1.6683   -0.3795   -5.0147 H   0  0  0  0  0  0  0  0  0  0  0  0
    3.1349   -0.0272   -5.9019 H   0  0  0  0  0  0  0  0  0  0  0  0
    4.3447    0.3284   -2.5691 H   0  0  0  0  0  0  0  0  0  0  0  0
    5.8743   -5.9363    1.0166 H   0  0  0  0  0  0  0  0  0  0  0  0
    6.8143   -5.1197    2.3543 H   0  0  0  0  0  0  0  0  0  0  0  0
  1  2  1  0
  1 19  1  0
  1 20  1  0
  1 21  1  0
  2 18  1  0
  2  3  1  0
  2 22  1  0
  3  4  1  0
  3 23  1  0
  3 24  1  0
  4  5  1  0
  4 18  1  0
  5  6  2  0
  5  7  1  0
  7 17  1  0
  7  8  2  0
  8  9  1  0
  9 10  1  0
  9 16  2  0
 10 15  2  0
 10 11  1  0
 11 12  2  0
 11 25  1  0
 12 13  1  0
 13 14  1  0
 13 15  1  0
 14 26  1  0
 14 27  1  0
 14 28  1  0
 15 29  1  0
 16 17  1  0
 18 30  1  0
 18 31  1  0
M  END
>  <i_m_ct_stereo_status>  (155) 
1

>  <s_m_source_file>  (155) 
/var/tmp/pbs.5076255.sched01/tmp276pg2sv/48_ir7zhrj.sdf

>  <i_m_source_file_index>  (155) 
21

>  <i_lp_mmshare_version>  (155) 
48012

>  <i_f3d_flags>  (155) 
0

>  <s_epik_input>  (155) 
W0NIM11bQ0hdMVtDSDJdTihbQ0gyXTEpQyg9TyljMm5jKG5vMiktYzNbY0hdbm4oW0NIM10pW2NIXTM=

>  <s_epik_cmdline>  (155) 
J2VwaWtfcHl0aG9uJywgJy1waHQnLCAnMi4wJywgJy1waCcsICc3LjAnLCAnLXRuJywgJzgnLCAnLW1hJywgJzIwMCcsICctaW1hZScsICc8aW5maWxlLm1hZT4nLCAnLW9tYWUnLCAnPG91dGZpbGUubWFlPic=

>  <r_lp_tautomer_probability>  (155) 
1

>  <r_epik_Ionization_Penalty>  (155) 
9.21882e-06

>  <r_epik_Ionization_Penalty_Charging>  (155) 
0

>  <r_epik_Ionization_Penalty_Neutral>  (155) 
9.21882e-06

>  <r_epik_State_Penalty>  (155) 
-0

>  <r_epik_Charging_Adjusted_Penalty>  (155) 
0

>  <i_epik_Tot_Q>  (155) 
0

>  <i_epik_Tot_abs_Q>  (155) 
0

>  <s_lp_Force_Field>  (155) 
OPLS3e

>  <r_lp_Energy>  (155) 
-1.53729

>  <b_lp_Chiralities_Consistent>  (155) 
1

>  <s_lp_Variant>  (155) 
43:0-1

>  <s_i_glide_gridfile>  (155) 
pfpi4k_grid

>  <i_i_glide_lignum>  (155) 
21

>  <i_i_glide_rotatable_bonds>  (155) 
3

>  <r_i_docking_score>  (155) 
-4.43901

>  <r_i_glide_ligand_efficiency>  (155) 
-0.246612

>  <r_i_glide_ligand_efficiency_sa>  (155) 
-0.646306

>  <r_i_glide_ligand_efficiency_ln>  (155) 
-1.14102

>  <r_i_glide_gscore>  (155) 
-4.43901

>  <r_i_glide_lipo>  (155) 
-0.535904

>  <r_i_glide_hbond>  (155) 
-0.340574

>  <r_i_glide_metal>  (155) 
-0

>  <r_i_glide_rewards>  (155) 
-2.39095

>  <r_i_glide_evdw>  (155) 
-29.3629

>  <r_i_glide_ecoul>  (155) 
-3.08789

>  <r_i_glide_erotb>  (155) 
0.85605

>  <r_i_glide_esite>  (155) 
-0.0963049

>  <r_i_glide_emodel>  (155) 
-38.7725

>  <r_i_glide_energy>  (155) 
-32.4508

>  <r_i_glide_einternal>  (155) 
4.50354

>  <r_i_glide_intrahb_reward>  (155) 
-0

>  <i_i_glide_confnum>  (155) 
5

>  <i_i_glide_posenum>  (155) 
31

>  <r_i_glide_eff_state_penalty>  (155) 
0

>  <ligand_id>  (155) 
43

>  <original_smiles>  (155) 
CC1CN(C(=O)c2nc(-c3cnn(C)c3)no2)C1

>  <smiles>  (155) 
[H]c1nn(C([H])([H])[H])c([H])c1-c1noc(C(=O)N2C([H])([H])C([H])(C([H])([H])[H])C2([H])[H])n1

$$$$
43:0:1
     RDKit          3D

 31 33  0  0  1  0  0  0  0  0999 V2000
    2.3784  -11.3675    3.9934 C   0  0  0  0  0  0  0  0  0  0  0  0
    0.9014  -11.0226    3.8351 C   0  0  0  0  0  0  0  0  0  0  0  0
    0.3926  -10.5810    2.4634 C   0  0  0  0  0  0  0  0  0  0  0  0
   -0.3853   -9.5561    3.1508 N   0  0  0  0  0  0  0  0  0  0  0  0
   -0.5561   -8.2899    2.5805 C   0  0  0  0  0  0  0  0  0  0  0  0
   -1.6804   -7.7947    2.4850 O   0  0  0  0  0  0  0  0  0  0  0  0
    0.6564   -7.5555    2.0811 C   0  0  0  0  0  0  0  0  0  0  0  0
    1.9488   -7.8555    2.2273 N   0  0  0  0  0  0  0  0  0  0  0  0
    2.5299   -6.8276    1.5694 C   0  0  0  0  0  0  0  0  0  0  0  0
    3.9843   -6.7423    1.4337 C   0  0  0  0  0  0  0  0  0  0  0  0
    4.7264   -5.7065    0.8031 C   0  0  0  0  0  0  0  0  0  0  0  0
    6.0316   -5.9350    0.8800 N   0  0  0  0  0  0  0  0  0  0  0  0
    6.1442   -7.1165    1.5319 N   0  0  0  0  0  0  0  0  0  0  0  0
    7.4608   -7.6679    1.7613 C   0  0  0  0  0  0  0  0  0  0  0  0
    4.9140   -7.6349    1.8848 C   0  0  0  0  0  0  0  0  0  0  0  0
    1.7240   -5.9139    1.0510 N   0  0  0  0  0  0  0  0  0  0  0  0
    0.4523   -6.3995    1.3946 O   0  0  0  0  0  0  0  0  0  0  0  0
    0.3963   -9.6823    4.3770 C   0  0  0  0  0  0  0  0  0  0  0  0
    3.0127  -10.5767    3.5877 H   0  0  0  0  0  0  0  0  0  0  0  0
    2.6420  -12.2759    3.4555 H   0  0  0  0  0  0  0  0  0  0  0  0
    2.6561  -11.5039    5.0405 H   0  0  0  0  0  0  0  0  0  0  0  0
    0.2649  -11.8235    4.2187 H   0  0  0  0  0  0  0  0  0  0  0  0
    1.2028  -10.2353    1.8265 H   0  0  0  0  0  0  0  0  0  0  0  0
   -0.1917  -11.3303    1.9346 H   0  0  0  0  0  0  0  0  0  0  0  0
    4.3571   -4.8159    0.3141 H   0  0  0  0  0  0  0  0  0  0  0  0
    7.3971   -8.5476    2.4028 H   0  0  0  0  0  0  0  0  0  0  0  0
    8.0952   -6.9239    2.2425 H   0  0  0  0  0  0  0  0  0  0  0  0
    7.9142   -7.9566    0.8130 H   0  0  0  0  0  0  0  0  0  0  0  0
    4.7959   -8.5704    2.4181 H   0  0  0  0  0  0  0  0  0  0  0  0
   -0.1926   -9.7698    5.2904 H   0  0  0  0  0  0  0  0  0  0  0  0
    1.2022   -8.9529    4.4885 H   0  0  0  0  0  0  0  0  0  0  0  0
  1  2  1  0
  1 19  1  0
  1 20  1  0
  1 21  1  0
  2 18  1  0
  2  3  1  0
  2 22  1  0
  3  4  1  0
  3 23  1  0
  3 24  1  0
  4  5  1  0
  4 18  1  0
  5  6  2  0
  5  7  1  0
  7 17  1  0
  7  8  2  0
  8  9  1  0
  9 10  1  0
  9 16  2  0
 10 15  2  0
 10 11  1  0
 11 12  2  0
 11 25  1  0
 12 13  1  0
 13 14  1  0
 13 15  1  0
 14 26  1  0
 14 27  1  0
 14 28  1  0
 15 29  1  0
 16 17  1  0
 18 30  1  0
 18 31  1  0
M  END
>  <i_m_ct_stereo_status>  (156) 
1

>  <s_m_source_file>  (156) 
/var/tmp/pbs.5076255.sched01/tmp276pg2sv/48_ir7zhrj.sdf

>  <i_m_source_file_index>  (156) 
21

>  <i_lp_mmshare_version>  (156) 
48012

>  <i_f3d_flags>  (156) 
0

>  <s_epik_input>  (156) 
W0NIM11bQ0hdMVtDSDJdTihbQ0gyXTEpQyg9TyljMm5jKG5vMiktYzNbY0hdbm4oW0NIM10pW2NIXTM=

>  <s_epik_cmdline>  (156) 
J2VwaWtfcHl0aG9uJywgJy1waHQnLCAnMi4wJywgJy1waCcsICc3LjAnLCAnLXRuJywgJzgnLCAnLW1hJywgJzIwMCcsICctaW1hZScsICc8aW5maWxlLm1hZT4nLCAnLW9tYWUnLCAnPG91dGZpbGUubWFlPic=

>  <r_lp_tautomer_probability>  (156) 
1

>  <r_epik_Ionization_Penalty>  (156) 
9.21882e-06

>  <r_epik_Ionization_Penalty_Charging>  (156) 
0

>  <r_epik_Ionization_Penalty_Neutral>  (156) 
9.21882e-06

>  <r_epik_State_Penalty>  (156) 
-0

>  <r_epik_Charging_Adjusted_Penalty>  (156) 
0

>  <i_epik_Tot_Q>  (156) 
0

>  <i_epik_Tot_abs_Q>  (156) 
0

>  <s_lp_Force_Field>  (156) 
OPLS3e

>  <r_lp_Energy>  (156) 
-1.53729

>  <b_lp_Chiralities_Consistent>  (156) 
1

>  <s_lp_Variant>  (156) 
43:0-1

>  <s_i_glide_gridfile>  (156) 
pfpi4k_grid

>  <i_i_glide_lignum>  (156) 
21

>  <i_i_glide_rotatable_bonds>  (156) 
3

>  <r_i_docking_score>  (156) 
-3.63605

>  <r_i_glide_ligand_efficiency>  (156) 
-0.202003

>  <r_i_glide_ligand_efficiency_sa>  (156) 
-0.529397

>  <r_i_glide_ligand_efficiency_ln>  (156) 
-0.934628

>  <r_i_glide_gscore>  (156) 
-3.63605

>  <r_i_glide_lipo>  (156) 
-0.458684

>  <r_i_glide_hbond>  (156) 
0

>  <r_i_glide_metal>  (156) 
-0

>  <r_i_glide_rewards>  (156) 
-1.85165

>  <r_i_glide_evdw>  (156) 
-24.4333

>  <r_i_glide_ecoul>  (156) 
-4.63594

>  <r_i_glide_erotb>  (156) 
0.85605

>  <r_i_glide_esite>  (156) 
-0.264706

>  <r_i_glide_emodel>  (156) 
-34.2885

>  <r_i_glide_energy>  (156) 
-29.0692

>  <r_i_glide_einternal>  (156) 
4.24818

>  <r_i_glide_intrahb_reward>  (156) 
-0

>  <i_i_glide_confnum>  (156) 
3

>  <i_i_glide_posenum>  (156) 
13

>  <r_i_glide_eff_state_penalty>  (156) 
0

>  <ligand_id>  (156) 
43

>  <original_smiles>  (156) 
CC1CN(C(=O)c2nc(-c3cnn(C)c3)no2)C1

>  <smiles>  (156) 
[H]c1nn(C([H])([H])[H])c([H])c1-c1noc(C(=O)N2C([H])([H])C([H])(C([H])([H])[H])C2([H])[H])n1

$$$$
43:0:2
     RDKit          3D

 31 33  0  0  1  0  0  0  0  0999 V2000
    1.3641  -11.8632    4.0433 C   0  0  0  0  0  0  0  0  0  0  0  0
    1.4132  -10.3659    4.2827 C   0  0  0  0  0  0  0  0  0  0  0  0
    0.1194   -9.5597    4.1479 C   0  0  0  0  0  0  0  0  0  0  0  0
    0.9115   -8.5583    3.4532 N   0  0  0  0  0  0  0  0  0  0  0  0
    0.3570   -7.8367    2.3968 C   0  0  0  0  0  0  0  0  0  0  0  0
   -0.8454   -7.8708    2.1422 O   0  0  0  0  0  0  0  0  0  0  0  0
    1.2942   -6.9766    1.6024 C   0  0  0  0  0  0  0  0  0  0  0  0
    2.5952   -6.7437    1.7909 N   0  0  0  0  0  0  0  0  0  0  0  0
    2.8327   -5.8299    0.8184 C   0  0  0  0  0  0  0  0  0  0  0  0
    4.1730   -5.2806    0.5973 C   0  0  0  0  0  0  0  0  0  0  0  0
    5.3511   -5.5930    1.3227 C   0  0  0  0  0  0  0  0  0  0  0  0
    6.3889   -4.9082    0.8679 N   0  0  0  0  0  0  0  0  0  0  0  0
    5.8940   -4.1636   -0.1469 N   0  0  0  0  0  0  0  0  0  0  0  0
    6.7884   -3.2850   -0.8654 C   0  0  0  0  0  0  0  0  0  0  0  0
    4.5459   -4.3692   -0.3472 C   0  0  0  0  0  0  0  0  0  0  0  0
    1.8017   -5.4539    0.0804 N   0  0  0  0  0  0  0  0  0  0  0  0
    0.7619   -6.2602    0.5722 O   0  0  0  0  0  0  0  0  0  0  0  0
    2.0152   -9.4699    3.1979 C   0  0  0  0  0  0  0  0  0  0  0  0
    0.8734  -12.0822    3.0961 H   0  0  0  0  0  0  0  0  0  0  0  0
    0.8068  -12.3813    4.8279 H   0  0  0  0  0  0  0  0  0  0  0  0
    2.3706  -12.2800    3.9932 H   0  0  0  0  0  0  0  0  0  0  0  0
    1.8872  -10.1358    5.2388 H   0  0  0  0  0  0  0  0  0  0  0  0
   -0.6141  -10.0625    3.5133 H   0  0  0  0  0  0  0  0  0  0  0  0
   -0.2996   -9.2187    5.0982 H   0  0  0  0  0  0  0  0  0  0  0  0
    5.4739   -6.2760    2.1554 H   0  0  0  0  0  0  0  0  0  0  0  0
    6.2749   -2.8598   -1.7290 H   0  0  0  0  0  0  0  0  0  0  0  0
    7.6617   -3.8419   -1.2118 H   0  0  0  0  0  0  0  0  0  0  0  0
    7.1203   -2.4774   -0.2095 H   0  0  0  0  0  0  0  0  0  0  0  0
    3.9720   -3.8745   -1.1176 H   0  0  0  0  0  0  0  0  0  0  0  0
    3.0015   -9.0765    3.4498 H   0  0  0  0  0  0  0  0  0  0  0  0
    1.9909   -9.9253    2.2057 H   0  0  0  0  0  0  0  0  0  0  0  0
  1  2  1  0
  1 19  1  0
  1 20  1  0
  1 21  1  0
  2 18  1  0
  2  3  1  0
  2 22  1  0
  3  4  1  0
  3 23  1  0
  3 24  1  0
  4  5  1  0
  4 18  1  0
  5  6  2  0
  5  7  1  0
  7 17  1  0
  7  8  2  0
  8  9  1  0
  9 10  1  0
  9 16  2  0
 10 15  2  0
 10 11  1  0
 11 12  2  0
 11 25  1  0
 12 13  1  0
 13 14  1  0
 13 15  1  0
 14 26  1  0
 14 27  1  0
 14 28  1  0
 15 29  1  0
 16 17  1  0
 18 30  1  0
 18 31  1  0
M  END
>  <i_m_ct_stereo_status>  (157) 
1

>  <s_m_source_file>  (157) 
/var/tmp/pbs.5076255.sched01/tmp276pg2sv/48_ir7zhrj.sdf

>  <i_m_source_file_index>  (157) 
21

>  <i_lp_mmshare_version>  (157) 
48012

>  <i_f3d_flags>  (157) 
0

>  <s_epik_input>  (157) 
W0NIM11bQ0hdMVtDSDJdTihbQ0gyXTEpQyg9TyljMm5jKG5vMiktYzNbY0hdbm4oW0NIM10pW2NIXTM=

>  <s_epik_cmdline>  (157) 
J2VwaWtfcHl0aG9uJywgJy1waHQnLCAnMi4wJywgJy1waCcsICc3LjAnLCAnLXRuJywgJzgnLCAnLW1hJywgJzIwMCcsICctaW1hZScsICc8aW5maWxlLm1hZT4nLCAnLW9tYWUnLCAnPG91dGZpbGUubWFlPic=

>  <r_lp_tautomer_probability>  (157) 
1

>  <r_epik_Ionization_Penalty>  (157) 
9.21882e-06

>  <r_epik_Ionization_Penalty_Charging>  (157) 
0

>  <r_epik_Ionization_Penalty_Neutral>  (157) 
9.21882e-06

>  <r_epik_State_Penalty>  (157) 
-0

>  <r_epik_Charging_Adjusted_Penalty>  (157) 
0

>  <i_epik_Tot_Q>  (157) 
0

>  <i_epik_Tot_abs_Q>  (157) 
0

>  <s_lp_Force_Field>  (157) 
OPLS3e

>  <r_lp_Energy>  (157) 
-1.53729

>  <b_lp_Chiralities_Consistent>  (157) 
1

>  <s_lp_Variant>  (157) 
43:0-1

>  <s_i_glide_gridfile>  (157) 
pfpi4k_grid

>  <i_i_glide_lignum>  (157) 
21

>  <i_i_glide_rotatable_bonds>  (157) 
3

>  <r_i_docking_score>  (157) 
-3.2278

>  <r_i_glide_ligand_efficiency>  (157) 
-0.179322

>  <r_i_glide_ligand_efficiency_sa>  (157) 
-0.469957

>  <r_i_glide_ligand_efficiency_ln>  (157) 
-0.829689

>  <r_i_glide_gscore>  (157) 
-3.2278

>  <r_i_glide_lipo>  (157) 
-0.234058

>  <r_i_glide_hbond>  (157) 
0

>  <r_i_glide_metal>  (157) 
-0

>  <r_i_glide_rewards>  (157) 
-1.79898

>  <r_i_glide_evdw>  (157) 
-23.1317

>  <r_i_glide_ecoul>  (157) 
-4.07104

>  <r_i_glide_erotb>  (157) 
0.85605

>  <r_i_glide_esite>  (157) 
-0.283568

>  <r_i_glide_emodel>  (157) 
-33.6428

>  <r_i_glide_energy>  (157) 
-27.2027

>  <r_i_glide_einternal>  (157) 
0.0636825

>  <r_i_glide_intrahb_reward>  (157) 
-0

>  <i_i_glide_confnum>  (157) 
5

>  <i_i_glide_posenum>  (157) 
38

>  <r_i_glide_eff_state_penalty>  (157) 
0

>  <ligand_id>  (157) 
43

>  <original_smiles>  (157) 
CC1CN(C(=O)c2nc(-c3cnn(C)c3)no2)C1

>  <smiles>  (157) 
[H]c1nn(C([H])([H])[H])c([H])c1-c1noc(C(=O)N2C([H])([H])C([H])(C([H])([H])[H])C2([H])[H])n1

$$$$
44:0:0
     RDKit          3D

 32 33  0  0  1  0  0  0  0  0999 V2000
    6.5613   -1.4947   -0.3088 O   0  0  0  0  0  0  0  0  0  0  0  0
    5.7053   -2.3951   -0.2322 C   0  0  0  0  0  0  0  0  0  0  0  0
    5.9810   -3.6175   -0.3254 O   0  0  0  0  0  0  0  0  0  0  0  0
    4.1813   -1.9887   -0.0879 C   0  0  0  0  0  0  0  0  0  0  0  0
    3.5591   -1.8134   -1.4837 N   0  0  0  0  0  0  0  0  0  0  0  0
    4.2615   -0.8399   -2.3553 C   0  0  0  0  0  0  0  0  0  0  0  0
    3.5392   -0.6477   -3.6852 C   0  0  0  0  0  0  0  0  0  0  0  0
    3.4283   -1.9039   -4.3263 O   0  0  0  0  0  0  0  0  0  0  0  0
    2.6502   -2.8174   -3.5763 C   0  0  0  0  0  0  0  0  0  0  0  0
    3.3236   -3.0633   -2.2287 C   0  0  0  0  0  0  0  0  0  0  0  0
    3.3786   -3.0678    0.7337 C   0  0  0  0  0  0  0  0  0  0  0  0
    3.8667   -3.2927    2.1785 C   0  0  0  0  0  0  0  0  0  0  0  0
    3.6638   -1.8150    3.1996 S   0  0  0  0  0  0  0  0  0  0  0  0
    4.5765   -0.6605    2.1476 C   0  0  0  0  0  0  0  0  0  0  0  0
    4.0275   -0.6423    0.7086 C   0  0  0  0  0  0  0  0  0  0  0  0
    4.3646    0.1425   -1.9051 H   0  0  0  0  0  0  0  0  0  0  0  0
    5.2616   -1.2029   -2.6009 H   0  0  0  0  0  0  0  0  0  0  0  0
    2.5747   -0.1776   -3.5315 H   0  0  0  0  0  0  0  0  0  0  0  0
    4.1353    0.0167   -4.3036 H   0  0  0  0  0  0  0  0  0  0  0  0
    1.6447   -2.4377   -3.4256 H   0  0  0  0  0  0  0  0  0  0  0  0
    2.5528   -3.7487   -4.1299 H   0  0  0  0  0  0  0  0  0  0  0  0
    4.2698   -3.5861   -2.3864 H   0  0  0  0  0  0  0  0  0  0  0  0
    2.6463   -3.7313   -1.6924 H   0  0  0  0  0  0  0  0  0  0  0  0
    2.3173   -2.8032    0.7598 H   0  0  0  0  0  0  0  0  0  0  0  0
    3.4125   -4.0580    0.2811 H   0  0  0  0  0  0  0  0  0  0  0  0
    3.3157   -4.1197    2.6277 H   0  0  0  0  0  0  0  0  0  0  0  0
    4.9131   -3.5956    2.1792 H   0  0  0  0  0  0  0  0  0  0  0  0
    4.5148    0.3371    2.5788 H   0  0  0  0  0  0  0  0  0  0  0  0
    5.6351   -0.9234    2.1474 H   0  0  0  0  0  0  0  0  0  0  0  0
    4.5365    0.1898    0.2234 H   0  0  0  0  0  0  0  0  0  0  0  0
    2.9764   -0.3409    0.7356 H   0  0  0  0  0  0  0  0  0  0  0  0
    2.6279   -1.4337   -1.3028 H   0  0  0  0  0  0  0  0  0  0  0  0
  1  2  2  0
  2  3  1  0
  2  4  1  0
  4 15  1  0
  4  5  1  0
  4 11  1  0
  5 10  1  0
  5  6  1  0
  5 32  1  0
  6  7  1  0
  6 16  1  0
  6 17  1  0
  7  8  1  0
  7 18  1  0
  7 19  1  0
  8  9  1  0
  9 10  1  0
  9 20  1  0
  9 21  1  0
 10 22  1  0
 10 23  1  0
 11 12  1  0
 11 24  1  0
 11 25  1  0
 12 13  1  0
 12 26  1  0
 12 27  1  0
 13 14  1  0
 14 15  1  0
 14 28  1  0
 14 29  1  0
 15 30  1  0
 15 31  1  0
M  CHG  2   3  -1   5   1
M  END
>  <i_m_ct_stereo_status>  (158) 
1

>  <s_m_source_file>  (158) 
/var/tmp/pbs.5076255.sched01/tmp276pg2sv/48_ir7zhrj.sdf

>  <i_m_source_file_index>  (158) 
22

>  <i_lp_mmshare_version>  (158) 
48012

>  <i_f3d_flags>  (158) 
0

>  <s_epik_input>  (158) 
W0NIMl0xW0NIMl1TW0NIMl1bQ0gyXUMxKEMoPU8pW09IXSlOMltDSDJdW0NIMl1PW0NIMl1bQ0gyXTI=

>  <s_epik_cmdline>  (158) 
J2VwaWtfcHl0aG9uJywgJy1waHQnLCAnMi4wJywgJy1waCcsICc3LjAnLCAnLXRuJywgJzgnLCAnLW1hJywgJzIwMCcsICctaW1hZScsICc8aW5maWxlLm1hZT4nLCAnLW9tYWUnLCAnPG91dGZpbGUubWFlPic=

>  <r_epik_Ionization_Penalty>  (158) 
0.392656

>  <r_epik_Ionization_Penalty_Charging>  (158) 
0.392656

>  <r_epik_Ionization_Penalty_Neutral>  (158) 
7.8935e-16

>  <r_epik_State_Penalty>  (158) 
0.39175

>  <r_epik_Charging_Adjusted_Penalty>  (158) 
0.784406

>  <i_epik_Tot_Q>  (158) 
0

>  <i_epik_Tot_abs_Q>  (158) 
2

>  <s_lp_Force_Field>  (158) 
OPLS3e

>  <r_lp_Energy>  (158) 
21.9484

>  <b_lp_Chiralities_Consistent>  (158) 
1

>  <s_lp_Variant>  (158) 
44:0-1

>  <s_i_glide_gridfile>  (158) 
pfpi4k_grid

>  <i_i_glide_lignum>  (158) 
22

>  <i_i_glide_rotatable_bonds>  (158) 
2

>  <r_i_docking_score>  (158) 
-5.02729

>  <r_i_glide_ligand_efficiency>  (158) 
-0.335153

>  <r_i_glide_ligand_efficiency_sa>  (158) 
-0.826558

>  <r_i_glide_ligand_efficiency_ln>  (158) 
-1.35578

>  <r_i_glide_gscore>  (158) 
-5.02729

>  <r_i_glide_lipo>  (158) 
-0.633061

>  <r_i_glide_hbond>  (158) 
-0.663028

>  <r_i_glide_metal>  (158) 
-0

>  <r_i_glide_rewards>  (158) 
-1.83196

>  <r_i_glide_evdw>  (158) 
-22.0732

>  <r_i_glide_ecoul>  (158) 
-6.89853

>  <r_i_glide_erotb>  (158) 
0.319689

>  <r_i_glide_esite>  (158) 
-0.0804955

>  <r_i_glide_emodel>  (158) 
-40.3276

>  <r_i_glide_energy>  (158) 
-28.9717

>  <r_i_glide_einternal>  (158) 
2.25998

>  <r_i_glide_intrahb_reward>  (158) 
-0

>  <i_i_glide_confnum>  (158) 
1

>  <i_i_glide_posenum>  (158) 
1

>  <r_i_glide_eff_state_penalty>  (158) 
0

>  <ligand_id>  (158) 
44

>  <original_smiles>  (158) 
O=C(O)C1(N2CCOCC2)CCSCC1

>  <smiles>  (158) 
[H]C1([H])OC([H])([H])C([H])([H])[N+]([H])(C2(C(=O)[O-])C([H])([H])C([H])([H])SC([H])([H])C2([H])[H])C1([H])[H]

$$$$
44:0:1
     RDKit          3D

 32 33  0  0  1  0  0  0  0  0999 V2000
    6.8880   -1.8791   -0.5671 O   0  0  0  0  0  0  0  0  0  0  0  0
    5.8824   -2.4869   -0.1819 C   0  0  0  0  0  0  0  0  0  0  0  0
    5.9221   -3.3683    0.7132 O   0  0  0  0  0  0  0  0  0  0  0  0
    4.4797   -2.1583   -0.8260 C   0  0  0  0  0  0  0  0  0  0  0  0
    3.5278   -1.5350    0.2087 N   0  0  0  0  0  0  0  0  0  0  0  0
    2.9667   -2.4572    1.2253 C   0  0  0  0  0  0  0  0  0  0  0  0
    1.9164   -1.7516    2.0892 C   0  0  0  0  0  0  0  0  0  0  0  0
    2.4795   -0.6008    2.6900 O   0  0  0  0  0  0  0  0  0  0  0  0
    2.9113    0.3385    1.7217 C   0  0  0  0  0  0  0  0  0  0  0  0
    3.9994   -0.2820    0.8340 C   0  0  0  0  0  0  0  0  0  0  0  0
    4.6872   -1.1798   -2.0359 C   0  0  0  0  0  0  0  0  0  0  0  0
    3.4260   -0.8277   -2.8406 C   0  0  0  0  0  0  0  0  0  0  0  0
    2.7367   -2.2994   -3.6165 S   0  0  0  0  0  0  0  0  0  0  0  0
    2.5357   -3.2880   -2.1219 C   0  0  0  0  0  0  0  0  0  0  0  0
    3.8900   -3.4818   -1.4043 C   0  0  0  0  0  0  0  0  0  0  0  0
    2.4683   -3.3209    0.7801 H   0  0  0  0  0  0  0  0  0  0  0  0
    3.7570   -2.8151    1.8912 H   0  0  0  0  0  0  0  0  0  0  0  0
    1.0276   -1.4939    1.5176 H   0  0  0  0  0  0  0  0  0  0  0  0
    1.6094   -2.4403    2.8714 H   0  0  0  0  0  0  0  0  0  0  0  0
    2.0661    0.6667    1.1190 H   0  0  0  0  0  0  0  0  0  0  0  0
    3.3007    1.2203    2.2257 H   0  0  0  0  0  0  0  0  0  0  0  0
    4.8967   -0.4824    1.4296 H   0  0  0  0  0  0  0  0  0  0  0  0
    4.2470    0.4639    0.0835 H   0  0  0  0  0  0  0  0  0  0  0  0
    5.1737   -0.2584   -1.7230 H   0  0  0  0  0  0  0  0  0  0  0  0
    5.3928   -1.6338   -2.7324 H   0  0  0  0  0  0  0  0  0  0  0  0
    2.6462   -0.3822   -2.2289 H   0  0  0  0  0  0  0  0  0  0  0  0
    3.6614   -0.0876   -3.6041 H   0  0  0  0  0  0  0  0  0  0  0  0
    1.8076   -2.8205   -1.4652 H   0  0  0  0  0  0  0  0  0  0  0  0
    2.0862   -4.2353   -2.4071 H   0  0  0  0  0  0  0  0  0  0  0  0
    4.5931   -3.9075   -2.1255 H   0  0  0  0  0  0  0  0  0  0  0  0
    3.7747   -4.2529   -0.6408 H   0  0  0  0  0  0  0  0  0  0  0  0
    2.7175   -1.2635   -0.3456 H   0  0  0  0  0  0  0  0  0  0  0  0
  1  2  2  0
  2  3  1  0
  2  4  1  0
  4 15  1  0
  4  5  1  0
  4 11  1  0
  5 10  1  0
  5  6  1  0
  5 32  1  0
  6  7  1  0
  6 16  1  0
  6 17  1  0
  7  8  1  0
  7 18  1  0
  7 19  1  0
  8  9  1  0
  9 10  1  0
  9 20  1  0
  9 21  1  0
 10 22  1  0
 10 23  1  0
 11 12  1  0
 11 24  1  0
 11 25  1  0
 12 13  1  0
 12 26  1  0
 12 27  1  0
 13 14  1  0
 14 15  1  0
 14 28  1  0
 14 29  1  0
 15 30  1  0
 15 31  1  0
M  CHG  2   3  -1   5   1
M  END
>  <i_m_ct_stereo_status>  (159) 
1

>  <s_m_source_file>  (159) 
/var/tmp/pbs.5076255.sched01/tmp276pg2sv/48_ir7zhrj.sdf

>  <i_m_source_file_index>  (159) 
22

>  <i_lp_mmshare_version>  (159) 
48012

>  <i_f3d_flags>  (159) 
0

>  <s_epik_input>  (159) 
W0NIMl0xW0NIMl1TW0NIMl1bQ0gyXUMxKEMoPU8pW09IXSlOMltDSDJdW0NIMl1PW0NIMl1bQ0gyXTI=

>  <s_epik_cmdline>  (159) 
J2VwaWtfcHl0aG9uJywgJy1waHQnLCAnMi4wJywgJy1waCcsICc3LjAnLCAnLXRuJywgJzgnLCAnLW1hJywgJzIwMCcsICctaW1hZScsICc8aW5maWxlLm1hZT4nLCAnLW9tYWUnLCAnPG91dGZpbGUubWFlPic=

>  <r_epik_Ionization_Penalty>  (159) 
0.392656

>  <r_epik_Ionization_Penalty_Charging>  (159) 
0.392656

>  <r_epik_Ionization_Penalty_Neutral>  (159) 
7.8935e-16

>  <r_epik_State_Penalty>  (159) 
0.39175

>  <r_epik_Charging_Adjusted_Penalty>  (159) 
0.784406

>  <i_epik_Tot_Q>  (159) 
0

>  <i_epik_Tot_abs_Q>  (159) 
2

>  <s_lp_Force_Field>  (159) 
OPLS3e

>  <r_lp_Energy>  (159) 
21.9484

>  <b_lp_Chiralities_Consistent>  (159) 
1

>  <s_lp_Variant>  (159) 
44:0-1

>  <s_i_glide_gridfile>  (159) 
pfpi4k_grid

>  <i_i_glide_lignum>  (159) 
22

>  <i_i_glide_rotatable_bonds>  (159) 
2

>  <r_i_docking_score>  (159) 
-4.60081

>  <r_i_glide_ligand_efficiency>  (159) 
-0.306721

>  <r_i_glide_ligand_efficiency_sa>  (159) 
-0.756438

>  <r_i_glide_ligand_efficiency_ln>  (159) 
-1.24076

>  <r_i_glide_gscore>  (159) 
-4.60081

>  <r_i_glide_lipo>  (159) 
-0.504723

>  <r_i_glide_hbond>  (159) 
-0.385213

>  <r_i_glide_metal>  (159) 
-0

>  <r_i_glide_rewards>  (159) 
-1.83196

>  <r_i_glide_evdw>  (159) 
-18.7396

>  <r_i_glide_ecoul>  (159) 
-7.93962

>  <r_i_glide_erotb>  (159) 
0.319689

>  <r_i_glide_esite>  (159) 
-0.0706849

>  <r_i_glide_emodel>  (159) 
-37.6665

>  <r_i_glide_energy>  (159) 
-26.6792

>  <r_i_glide_einternal>  (159) 
0.615097

>  <r_i_glide_intrahb_reward>  (159) 
-0

>  <i_i_glide_confnum>  (159) 
5

>  <i_i_glide_posenum>  (159) 
23

>  <r_i_glide_eff_state_penalty>  (159) 
0

>  <ligand_id>  (159) 
44

>  <original_smiles>  (159) 
O=C(O)C1(N2CCOCC2)CCSCC1

>  <smiles>  (159) 
[H]C1([H])OC([H])([H])C([H])([H])[N+]([H])(C2(C(=O)[O-])C([H])([H])C([H])([H])SC([H])([H])C2([H])[H])C1([H])[H]

$$$$
44:0:2
     RDKit          3D

 32 33  0  0  1  0  0  0  0  0999 V2000
    6.5940   -2.9881   -1.4443 O   0  0  0  0  0  0  0  0  0  0  0  0
    6.3180   -2.2426   -0.5024 C   0  0  0  0  0  0  0  0  0  0  0  0
    7.2334   -1.6515    0.1563 O   0  0  0  0  0  0  0  0  0  0  0  0
    4.8287   -2.0039   -0.1146 C   0  0  0  0  0  0  0  0  0  0  0  0
    3.9602   -1.8749   -1.3293 N   0  0  0  0  0  0  0  0  0  0  0  0
    4.4022   -0.8332   -2.3254 C   0  0  0  0  0  0  0  0  0  0  0  0
    3.3903   -0.6694   -3.4550 C   0  0  0  0  0  0  0  0  0  0  0  0
    3.1753   -1.9220   -4.0929 O   0  0  0  0  0  0  0  0  0  0  0  0
    2.6295   -2.8874   -3.2011 C   0  0  0  0  0  0  0  0  0  0  0  0
    3.6024   -3.1600   -2.0531 C   0  0  0  0  0  0  0  0  0  0  0  0
    4.3736   -3.2076    0.7837 C   0  0  0  0  0  0  0  0  0  0  0  0
    2.9180   -3.0818    1.2863 C   0  0  0  0  0  0  0  0  0  0  0  0
    2.6920   -1.6546    2.3745 S   0  0  0  0  0  0  0  0  0  0  0  0
    3.2999   -0.3724    1.2517 C   0  0  0  0  0  0  0  0  0  0  0  0
    4.7139   -0.6981    0.7547 C   0  0  0  0  0  0  0  0  0  0  0  0
    4.5246    0.1394   -1.8446 H   0  0  0  0  0  0  0  0  0  0  0  0
    5.3632   -1.1182   -2.7445 H   0  0  0  0  0  0  0  0  0  0  0  0
    2.4536   -0.2584   -3.0845 H   0  0  0  0  0  0  0  0  0  0  0  0
    3.7863    0.0338   -4.1901 H   0  0  0  0  0  0  0  0  0  0  0  0
    1.6535   -2.5730   -2.8300 H   0  0  0  0  0  0  0  0  0  0  0  0
    2.4639   -3.8212   -3.7444 H   0  0  0  0  0  0  0  0  0  0  0  0
    4.4926   -3.6436   -2.4486 H   0  0  0  0  0  0  0  0  0  0  0  0
    3.0949   -3.8533   -1.3772 H   0  0  0  0  0  0  0  0  0  0  0  0
    4.4887   -4.1530    0.2470 H   0  0  0  0  0  0  0  0  0  0  0  0
    5.0298   -3.2833    1.6474 H   0  0  0  0  0  0  0  0  0  0  0  0
    2.2108   -2.9823    0.4628 H   0  0  0  0  0  0  0  0  0  0  0  0
    2.6267   -3.9800    1.8306 H   0  0  0  0  0  0  0  0  0  0  0  0
    2.6097   -0.2578    0.4205 H   0  0  0  0  0  0  0  0  0  0  0  0
    3.2991    0.5819    1.7758 H   0  0  0  0  0  0  0  0  0  0  0  0
    5.3562   -0.7653    1.6299 H   0  0  0  0  0  0  0  0  0  0  0  0
    5.0937    0.1460    0.1873 H   0  0  0  0  0  0  0  0  0  0  0  0
    3.0799   -1.5417   -0.9920 H   0  0  0  0  0  0  0  0  0  0  0  0
  1  2  2  0
  2  3  1  0
  2  4  1  0
  4 15  1  0
  4  5  1  0
  4 11  1  0
  5 10  1  0
  5  6  1  0
  5 32  1  0
  6  7  1  0
  6 16  1  0
  6 17  1  0
  7  8  1  0
  7 18  1  0
  7 19  1  0
  8  9  1  0
  9 10  1  0
  9 20  1  0
  9 21  1  0
 10 22  1  0
 10 23  1  0
 11 12  1  0
 11 24  1  0
 11 25  1  0
 12 13  1  0
 12 26  1  0
 12 27  1  0
 13 14  1  0
 14 15  1  0
 14 28  1  0
 14 29  1  0
 15 30  1  0
 15 31  1  0
M  CHG  2   3  -1   5   1
M  END
>  <i_m_ct_stereo_status>  (160) 
1

>  <s_m_source_file>  (160) 
/var/tmp/pbs.5076255.sched01/tmp276pg2sv/48_ir7zhrj.sdf

>  <i_m_source_file_index>  (160) 
22

>  <i_lp_mmshare_version>  (160) 
48012

>  <i_f3d_flags>  (160) 
0

>  <s_epik_input>  (160) 
W0NIMl0xW0NIMl1TW0NIMl1bQ0gyXUMxKEMoPU8pW09IXSlOMltDSDJdW0NIMl1PW0NIMl1bQ0gyXTI=

>  <s_epik_cmdline>  (160) 
J2VwaWtfcHl0aG9uJywgJy1waHQnLCAnMi4wJywgJy1waCcsICc3LjAnLCAnLXRuJywgJzgnLCAnLW1hJywgJzIwMCcsICctaW1hZScsICc8aW5maWxlLm1hZT4nLCAnLW9tYWUnLCAnPG91dGZpbGUubWFlPic=

>  <r_epik_Ionization_Penalty>  (160) 
0.392656

>  <r_epik_Ionization_Penalty_Charging>  (160) 
0.392656

>  <r_epik_Ionization_Penalty_Neutral>  (160) 
7.8935e-16

>  <r_epik_State_Penalty>  (160) 
0.39175

>  <r_epik_Charging_Adjusted_Penalty>  (160) 
0.784406

>  <i_epik_Tot_Q>  (160) 
0

>  <i_epik_Tot_abs_Q>  (160) 
2

>  <s_lp_Force_Field>  (160) 
OPLS3e

>  <r_lp_Energy>  (160) 
21.9484

>  <b_lp_Chiralities_Consistent>  (160) 
1

>  <s_lp_Variant>  (160) 
44:0-1

>  <s_i_glide_gridfile>  (160) 
pfpi4k_grid

>  <i_i_glide_lignum>  (160) 
22

>  <i_i_glide_rotatable_bonds>  (160) 
2

>  <r_i_docking_score>  (160) 
-4.17248

>  <r_i_glide_ligand_efficiency>  (160) 
-0.278165

>  <r_i_glide_ligand_efficiency_sa>  (160) 
-0.686014

>  <r_i_glide_ligand_efficiency_ln>  (160) 
-1.12525

>  <r_i_glide_gscore>  (160) 
-4.17248

>  <r_i_glide_lipo>  (160) 
-0.449145

>  <r_i_glide_hbond>  (160) 
-0.173367

>  <r_i_glide_metal>  (160) 
-0

>  <r_i_glide_rewards>  (160) 
-1.83196

>  <r_i_glide_evdw>  (160) 
-22.3457

>  <r_i_glide_ecoul>  (160) 
-5.63252

>  <r_i_glide_erotb>  (160) 
0.319689

>  <r_i_glide_esite>  (160) 
-0.0755333

>  <r_i_glide_emodel>  (160) 
-37.7668

>  <r_i_glide_energy>  (160) 
-27.9782

>  <r_i_glide_einternal>  (160) 
0.866854

>  <r_i_glide_intrahb_reward>  (160) 
-0

>  <i_i_glide_confnum>  (160) 
5

>  <i_i_glide_posenum>  (160) 
14

>  <r_i_glide_eff_state_penalty>  (160) 
0

>  <ligand_id>  (160) 
44

>  <original_smiles>  (160) 
O=C(O)C1(N2CCOCC2)CCSCC1

>  <smiles>  (160) 
[H]C1([H])OC([H])([H])C([H])([H])[N+]([H])(C2(C(=O)[O-])C([H])([H])C([H])([H])SC([H])([H])C2([H])[H])C1([H])[H]

$$$$
44:1:0
     RDKit          3D

 31 32  0  0  1  0  0  0  0  0999 V2000
    6.5252   -1.0342   -0.1124 O   0  0  0  0  0  0  0  0  0  0  0  0
    6.3676   -2.2648   -0.3518 C   0  0  0  0  0  0  0  0  0  0  0  0
    7.2907   -2.9955   -0.7356 O   0  0  0  0  0  0  0  0  0  0  0  0
    4.9303   -2.8268   -0.2137 C   0  0  0  0  0  0  0  0  0  0  0  0
    4.2233   -2.7864   -1.5161 N   0  0  0  0  0  0  0  0  0  0  0  0
    4.9249   -3.5113   -2.6041 C   0  0  0  0  0  0  0  0  0  0  0  0
    4.1961   -3.4586   -3.9578 C   0  0  0  0  0  0  0  0  0  0  0  0
    3.9939   -2.0977   -4.3235 O   0  0  0  0  0  0  0  0  0  0  0  0
    3.2080   -1.3951   -3.3676 C   0  0  0  0  0  0  0  0  0  0  0  0
    3.9068   -1.4225   -1.9986 C   0  0  0  0  0  0  0  0  0  0  0  0
    5.0328   -4.2966    0.3445 C   0  0  0  0  0  0  0  0  0  0  0  0
    5.8285   -4.4676    1.6328 C   0  0  0  0  0  0  0  0  0  0  0  0
    5.0018   -3.6545    3.0292 S   0  0  0  0  0  0  0  0  0  0  0  0
    4.8245   -1.9940    2.3061 C   0  0  0  0  0  0  0  0  0  0  0  0
    4.1567   -2.0306    0.9276 C   0  0  0  0  0  0  0  0  0  0  0  0
    5.9094   -3.0832   -2.7888 H   0  0  0  0  0  0  0  0  0  0  0  0
    5.0381   -4.5622   -2.3501 H   0  0  0  0  0  0  0  0  0  0  0  0
    4.8242   -3.9319   -4.6982 H   0  0  0  0  0  0  0  0  0  0  0  0
    3.2439   -3.9909   -3.9249 H   0  0  0  0  0  0  0  0  0  0  0  0
    3.0756   -0.3670   -3.7002 H   0  0  0  0  0  0  0  0  0  0  0  0
    2.2241   -1.8584   -3.3058 H   0  0  0  0  0  0  0  0  0  0  0  0
    3.2369   -0.9170   -1.3104 H   0  0  0  0  0  0  0  0  0  0  0  0
    4.8088   -0.8168   -2.0799 H   0  0  0  0  0  0  0  0  0  0  0  0
    4.0228   -4.6747    0.4844 H   0  0  0  0  0  0  0  0  0  0  0  0
    5.4800   -4.9600   -0.4124 H   0  0  0  0  0  0  0  0  0  0  0  0
    5.9554   -5.5346    1.8745 H   0  0  0  0  0  0  0  0  0  0  0  0
    6.8401   -4.0587    1.5506 H   0  0  0  0  0  0  0  0  0  0  0  0
    4.2437   -1.3634    2.9969 H   0  0  0  0  0  0  0  0  0  0  0  0
    5.8122   -1.5370    2.2519 H   0  0  0  0  0  0  0  0  0  0  0  0
    4.0092   -0.9929    0.6285 H   0  0  0  0  0  0  0  0  0  0  0  0
    3.1502   -2.4228    1.0204 H   0  0  0  0  0  0  0  0  0  0  0  0
  1  2  2  0
  2  3  1  0
  2  4  1  0
  4 15  1  0
  4  5  1  0
  4 11  1  0
  5 10  1  0
  5  6  1  0
  6  7  1  0
  6 16  1  0
  6 17  1  0
  7  8  1  0
  7 18  1  0
  7 19  1  0
  8  9  1  0
  9 10  1  0
  9 20  1  0
  9 21  1  0
 10 22  1  0
 10 23  1  0
 11 12  1  0
 11 24  1  0
 11 25  1  0
 12 13  1  0
 12 26  1  0
 12 27  1  0
 13 14  1  0
 14 15  1  0
 14 28  1  0
 14 29  1  0
 15 30  1  0
 15 31  1  0
M  CHG  1   3  -1
M  END
>  <i_m_ct_stereo_status>  (161) 
1

>  <s_m_source_file>  (161) 
/var/tmp/pbs.5076255.sched01/tmp276pg2sv/48_ir7zhrj.sdf

>  <i_m_source_file_index>  (161) 
23

>  <i_lp_mmshare_version>  (161) 
48012

>  <i_f3d_flags>  (161) 
0

>  <s_epik_input>  (161) 
W0NIMl0xW0NIMl1TW0NIMl1bQ0gyXUMxKEMoPU8pW09IXSlOMltDSDJdW0NIMl1PW0NIMl1bQ0gyXTI=

>  <s_epik_cmdline>  (161) 
J2VwaWtfcHl0aG9uJywgJy1waHQnLCAnMi4wJywgJy1waCcsICc3LjAnLCAnLXRuJywgJzgnLCAnLW1hJywgJzIwMCcsICctaW1hZScsICc8aW5maWxlLm1hZT4nLCAnLW9tYWUnLCAnPG91dGZpbGUubWFlPic=

>  <r_epik_Ionization_Penalty>  (161) 
0.430194

>  <r_epik_Ionization_Penalty_Charging>  (161) 
0.000919724

>  <r_epik_Ionization_Penalty_Neutral>  (161) 
0.429274

>  <r_epik_State_Penalty>  (161) 
0.43083

>  <r_epik_Charging_Adjusted_Penalty>  (161) 
0.43175

>  <i_epik_Tot_Q>  (161) 
-1

>  <i_epik_Tot_abs_Q>  (161) 
1

>  <s_lp_Force_Field>  (161) 
OPLS3e

>  <r_lp_Energy>  (161) 
28.2661

>  <b_lp_Chiralities_Consistent>  (161) 
1

>  <s_lp_Variant>  (161) 
44:0-2

>  <s_i_glide_gridfile>  (161) 
pfpi4k_grid

>  <i_i_glide_lignum>  (161) 
23

>  <i_i_glide_rotatable_bonds>  (161) 
2

>  <r_i_docking_score>  (161) 
-3.90004

>  <r_i_glide_ligand_efficiency>  (161) 
-0.260002

>  <r_i_glide_ligand_efficiency_sa>  (161) 
-0.641221

>  <r_i_glide_ligand_efficiency_ln>  (161) 
-1.05178

>  <r_i_glide_gscore>  (161) 
-3.90004

>  <r_i_glide_lipo>  (161) 
-0.454093

>  <r_i_glide_hbond>  (161) 
-0.410164

>  <r_i_glide_metal>  (161) 
-0

>  <r_i_glide_rewards>  (161) 
-1.83883

>  <r_i_glide_evdw>  (161) 
-22.1642

>  <r_i_glide_ecoul>  (161) 
-2.59983

>  <r_i_glide_erotb>  (161) 
0.322068

>  <r_i_glide_esite>  (161) 
-0.0208328

>  <r_i_glide_emodel>  (161) 
-32.0486

>  <r_i_glide_energy>  (161) 
-24.764

>  <r_i_glide_einternal>  (161) 
0.021417

>  <r_i_glide_intrahb_reward>  (161) 
-0

>  <i_i_glide_confnum>  (161) 
1

>  <i_i_glide_posenum>  (161) 
27

>  <r_i_glide_eff_state_penalty>  (161) 
0

>  <ligand_id>  (161) 
44

>  <original_smiles>  (161) 
O=C(O)C1(N2CCOCC2)CCSCC1

>  <smiles>  (161) 
[H]C1([H])OC([H])([H])C([H])([H])N(C2(C(=O)[O-])C([H])([H])C([H])([H])SC([H])([H])C2([H])[H])C1([H])[H]

$$$$
44:1:1
     RDKit          3D

 31 32  0  0  1  0  0  0  0  0999 V2000
    5.8828   -0.5632    0.4227 O   0  0  0  0  0  0  0  0  0  0  0  0
    6.1680   -1.6057   -0.1960 C   0  0  0  0  0  0  0  0  0  0  0  0
    7.3125   -1.8938   -0.6161 O   0  0  0  0  0  0  0  0  0  0  0  0
    5.0229   -2.5957   -0.5702 C   0  0  0  0  0  0  0  0  0  0  0  0
    4.5882   -2.2883   -1.9814 N   0  0  0  0  0  0  0  0  0  0  0  0
    4.1940   -0.8938   -2.2166 C   0  0  0  0  0  0  0  0  0  0  0  0
    3.7709   -0.6201   -3.6681 C   0  0  0  0  0  0  0  0  0  0  0  0
    2.7314   -1.5115   -4.0367 O   0  0  0  0  0  0  0  0  0  0  0  0
    3.1218   -2.8709   -3.9268 C   0  0  0  0  0  0  0  0  0  0  0  0
    3.5228   -3.1760   -2.4746 C   0  0  0  0  0  0  0  0  0  0  0  0
    5.6144   -4.0231   -0.4540 C   0  0  0  0  0  0  0  0  0  0  0  0
    6.2067   -4.3990    0.9265 C   0  0  0  0  0  0  0  0  0  0  0  0
    4.8993   -4.4162    2.1752 S   0  0  0  0  0  0  0  0  0  0  0  0
    4.2307   -2.7321    1.9546 C   0  0  0  0  0  0  0  0  0  0  0  0
    3.8560   -2.4851    0.4794 C   0  0  0  0  0  0  0  0  0  0  0  0
    3.3396   -0.6593   -1.5734 H   0  0  0  0  0  0  0  0  0  0  0  0
    5.0008   -0.1900   -2.0111 H   0  0  0  0  0  0  0  0  0  0  0  0
    3.4121    0.4030   -3.7376 H   0  0  0  0  0  0  0  0  0  0  0  0
    4.6124   -0.7275   -4.3522 H   0  0  0  0  0  0  0  0  0  0  0  0
    2.2749   -3.4968   -4.1989 H   0  0  0  0  0  0  0  0  0  0  0  0
    3.9375   -3.0984   -4.6155 H   0  0  0  0  0  0  0  0  0  0  0  0
    3.8496   -4.2099   -2.4578 H   0  0  0  0  0  0  0  0  0  0  0  0
    2.6125   -3.0880   -1.8751 H   0  0  0  0  0  0  0  0  0  0  0  0
    4.8455   -4.7510   -0.6734 H   0  0  0  0  0  0  0  0  0  0  0  0
    6.3576   -4.1867   -1.2232 H   0  0  0  0  0  0  0  0  0  0  0  0
    6.6690   -5.3871    0.8853 H   0  0  0  0  0  0  0  0  0  0  0  0
    6.9902   -3.7114    1.2455 H   0  0  0  0  0  0  0  0  0  0  0  0
    3.3287   -2.6005    2.5701 H   0  0  0  0  0  0  0  0  0  0  0  0
    4.9654   -2.0052    2.3113 H   0  0  0  0  0  0  0  0  0  0  0  0
    3.3715   -1.5096    0.4259 H   0  0  0  0  0  0  0  0  0  0  0  0
    3.0706   -3.1993    0.2320 H   0  0  0  0  0  0  0  0  0  0  0  0
  1  2  2  0
  2  3  1  0
  2  4  1  0
  4 15  1  0
  4  5  1  0
  4 11  1  0
  5 10  1  0
  5  6  1  0
  6  7  1  0
  6 16  1  0
  6 17  1  0
  7  8  1  0
  7 18  1  0
  7 19  1  0
  8  9  1  0
  9 10  1  0
  9 20  1  0
  9 21  1  0
 10 22  1  0
 10 23  1  0
 11 12  1  0
 11 24  1  0
 11 25  1  0
 12 13  1  0
 12 26  1  0
 12 27  1  0
 13 14  1  0
 14 15  1  0
 14 28  1  0
 14 29  1  0
 15 30  1  0
 15 31  1  0
M  CHG  1   3  -1
M  END
>  <i_m_ct_stereo_status>  (162) 
1

>  <s_m_source_file>  (162) 
/var/tmp/pbs.5076255.sched01/tmp276pg2sv/48_ir7zhrj.sdf

>  <i_m_source_file_index>  (162) 
23

>  <i_lp_mmshare_version>  (162) 
48012

>  <i_f3d_flags>  (162) 
0

>  <s_epik_input>  (162) 
W0NIMl0xW0NIMl1TW0NIMl1bQ0gyXUMxKEMoPU8pW09IXSlOMltDSDJdW0NIMl1PW0NIMl1bQ0gyXTI=

>  <s_epik_cmdline>  (162) 
J2VwaWtfcHl0aG9uJywgJy1waHQnLCAnMi4wJywgJy1waCcsICc3LjAnLCAnLXRuJywgJzgnLCAnLW1hJywgJzIwMCcsICctaW1hZScsICc8aW5maWxlLm1hZT4nLCAnLW9tYWUnLCAnPG91dGZpbGUubWFlPic=

>  <r_epik_Ionization_Penalty>  (162) 
0.430194

>  <r_epik_Ionization_Penalty_Charging>  (162) 
0.000919724

>  <r_epik_Ionization_Penalty_Neutral>  (162) 
0.429274

>  <r_epik_State_Penalty>  (162) 
0.43083

>  <r_epik_Charging_Adjusted_Penalty>  (162) 
0.43175

>  <i_epik_Tot_Q>  (162) 
-1

>  <i_epik_Tot_abs_Q>  (162) 
1

>  <s_lp_Force_Field>  (162) 
OPLS3e

>  <r_lp_Energy>  (162) 
28.2661

>  <b_lp_Chiralities_Consistent>  (162) 
1

>  <s_lp_Variant>  (162) 
44:0-2

>  <s_i_glide_gridfile>  (162) 
pfpi4k_grid

>  <i_i_glide_lignum>  (162) 
23

>  <i_i_glide_rotatable_bonds>  (162) 
2

>  <r_i_docking_score>  (162) 
-3.56367

>  <r_i_glide_ligand_efficiency>  (162) 
-0.237578

>  <r_i_glide_ligand_efficiency_sa>  (162) 
-0.585918

>  <r_i_glide_ligand_efficiency_ln>  (162) 
-0.961064

>  <r_i_glide_gscore>  (162) 
-3.56367

>  <r_i_glide_lipo>  (162) 
-0.523414

>  <r_i_glide_hbond>  (162) 
-0.2

>  <r_i_glide_metal>  (162) 
-0

>  <r_i_glide_rewards>  (162) 
-1.83883

>  <r_i_glide_evdw>  (162) 
-20.7041

>  <r_i_glide_ecoul>  (162) 
-1.74836

>  <r_i_glide_erotb>  (162) 
0.322068

>  <r_i_glide_esite>  (162) 
-0.0260416

>  <r_i_glide_emodel>  (162) 
-29.1724

>  <r_i_glide_energy>  (162) 
-22.4524

>  <r_i_glide_einternal>  (162) 
0.672483

>  <r_i_glide_intrahb_reward>  (162) 
-0

>  <i_i_glide_confnum>  (162) 
1

>  <i_i_glide_posenum>  (162) 
28

>  <r_i_glide_eff_state_penalty>  (162) 
0

>  <ligand_id>  (162) 
44

>  <original_smiles>  (162) 
O=C(O)C1(N2CCOCC2)CCSCC1

>  <smiles>  (162) 
[H]C1([H])OC([H])([H])C([H])([H])N(C2(C(=O)[O-])C([H])([H])C([H])([H])SC([H])([H])C2([H])[H])C1([H])[H]

$$$$
44:1:2
     RDKit          3D

 31 32  0  0  1  0  0  0  0  0999 V2000
    7.1598   -3.4411   -1.0201 O   0  0  0  0  0  0  0  0  0  0  0  0
    6.4258   -2.5214   -0.6357 C   0  0  0  0  0  0  0  0  0  0  0  0
    6.8955   -1.4141   -0.2871 O   0  0  0  0  0  0  0  0  0  0  0  0
    4.8763   -2.7325   -0.5745 C   0  0  0  0  0  0  0  0  0  0  0  0
    4.4767   -3.1373    0.8167 N   0  0  0  0  0  0  0  0  0  0  0  0
    5.0520   -2.3132    1.8965 C   0  0  0  0  0  0  0  0  0  0  0  0
    4.6293   -2.7552    3.3029 C   0  0  0  0  0  0  0  0  0  0  0  0
    3.2117   -2.7832    3.3979 O   0  0  0  0  0  0  0  0  0  0  0  0
    2.6310   -3.6737    2.4567 C   0  0  0  0  0  0  0  0  0  0  0  0
    3.0184   -3.2516    1.0228 C   0  0  0  0  0  0  0  0  0  0  0  0
    4.1770   -1.4058   -0.9900 C   0  0  0  0  0  0  0  0  0  0  0  0
    4.5957   -0.8263   -2.3392 C   0  0  0  0  0  0  0  0  0  0  0  0
    4.0713   -1.9303   -3.6762 S   0  0  0  0  0  0  0  0  0  0  0  0
    4.8678   -3.4640   -3.1114 C   0  0  0  0  0  0  0  0  0  0  0  0
    4.4799   -3.8023   -1.6532 C   0  0  0  0  0  0  0  0  0  0  0  0
    6.1383   -2.3606    1.9034 H   0  0  0  0  0  0  0  0  0  0  0  0
    4.7577   -1.2729    1.7629 H   0  0  0  0  0  0  0  0  0  0  0  0
    5.0535   -3.7336    3.5358 H   0  0  0  0  0  0  0  0  0  0  0  0
    5.0327   -2.0397    4.0155 H   0  0  0  0  0  0  0  0  0  0  0  0
    2.9456   -4.6990    2.6604 H   0  0  0  0  0  0  0  0  0  0  0  0
    1.5460   -3.6287    2.5684 H   0  0  0  0  0  0  0  0  0  0  0  0
    2.5291   -2.2919    0.8575 H   0  0  0  0  0  0  0  0  0  0  0  0
    2.5622   -3.9618    0.3369 H   0  0  0  0  0  0  0  0  0  0  0  0
    3.0996   -1.5624   -1.0520 H   0  0  0  0  0  0  0  0  0  0  0  0
    4.3136   -0.6299   -0.2373 H   0  0  0  0  0  0  0  0  0  0  0  0
    4.1329    0.1502   -2.4803 H   0  0  0  0  0  0  0  0  0  0  0  0
    5.6705   -0.6592   -2.3723 H   0  0  0  0  0  0  0  0  0  0  0  0
    4.5702   -4.2804   -3.7826 H   0  0  0  0  0  0  0  0  0  0  0  0
    5.9455   -3.3542   -3.2285 H   0  0  0  0  0  0  0  0  0  0  0  0
    4.8920   -4.7750   -1.3926 H   0  0  0  0  0  0  0  0  0  0  0  0
    3.4047   -3.9632   -1.6465 H   0  0  0  0  0  0  0  0  0  0  0  0
  1  2  2  0
  2  3  1  0
  2  4  1  0
  4 15  1  0
  4  5  1  0
  4 11  1  0
  5 10  1  0
  5  6  1  0
  6  7  1  0
  6 16  1  0
  6 17  1  0
  7  8  1  0
  7 18  1  0
  7 19  1  0
  8  9  1  0
  9 10  1  0
  9 20  1  0
  9 21  1  0
 10 22  1  0
 10 23  1  0
 11 12  1  0
 11 24  1  0
 11 25  1  0
 12 13  1  0
 12 26  1  0
 12 27  1  0
 13 14  1  0
 14 15  1  0
 14 28  1  0
 14 29  1  0
 15 30  1  0
 15 31  1  0
M  CHG  1   3  -1
M  END
>  <i_m_ct_stereo_status>  (163) 
1

>  <s_m_source_file>  (163) 
/var/tmp/pbs.5076255.sched01/tmp276pg2sv/48_ir7zhrj.sdf

>  <i_m_source_file_index>  (163) 
23

>  <i_lp_mmshare_version>  (163) 
48012

>  <i_f3d_flags>  (163) 
0

>  <s_epik_input>  (163) 
W0NIMl0xW0NIMl1TW0NIMl1bQ0gyXUMxKEMoPU8pW09IXSlOMltDSDJdW0NIMl1PW0NIMl1bQ0gyXTI=

>  <s_epik_cmdline>  (163) 
J2VwaWtfcHl0aG9uJywgJy1waHQnLCAnMi4wJywgJy1waCcsICc3LjAnLCAnLXRuJywgJzgnLCAnLW1hJywgJzIwMCcsICctaW1hZScsICc8aW5maWxlLm1hZT4nLCAnLW9tYWUnLCAnPG91dGZpbGUubWFlPic=

>  <r_epik_Ionization_Penalty>  (163) 
0.430194

>  <r_epik_Ionization_Penalty_Charging>  (163) 
0.000919724

>  <r_epik_Ionization_Penalty_Neutral>  (163) 
0.429274

>  <r_epik_State_Penalty>  (163) 
0.43083

>  <r_epik_Charging_Adjusted_Penalty>  (163) 
0.43175

>  <i_epik_Tot_Q>  (163) 
-1

>  <i_epik_Tot_abs_Q>  (163) 
1

>  <s_lp_Force_Field>  (163) 
OPLS3e

>  <r_lp_Energy>  (163) 
28.2661

>  <b_lp_Chiralities_Consistent>  (163) 
1

>  <s_lp_Variant>  (163) 
44:0-2

>  <s_i_glide_gridfile>  (163) 
pfpi4k_grid

>  <i_i_glide_lignum>  (163) 
23

>  <i_i_glide_rotatable_bonds>  (163) 
2

>  <r_i_docking_score>  (163) 
-3.54192

>  <r_i_glide_ligand_efficiency>  (163) 
-0.236128

>  <r_i_glide_ligand_efficiency_sa>  (163) 
-0.582341

>  <r_i_glide_ligand_efficiency_ln>  (163) 
-0.955197

>  <r_i_glide_gscore>  (163) 
-3.54192

>  <r_i_glide_lipo>  (163) 
-0.437182

>  <r_i_glide_hbond>  (163) 
-0.142233

>  <r_i_glide_metal>  (163) 
-0

>  <r_i_glide_rewards>  (163) 
-1.83883

>  <r_i_glide_evdw>  (163) 
-20.4436

>  <r_i_glide_ecoul>  (163) 
-2.67885

>  <r_i_glide_erotb>  (163) 
0.322068

>  <r_i_glide_esite>  (163) 
-0.0217353

>  <r_i_glide_emodel>  (163) 
-28.6912

>  <r_i_glide_energy>  (163) 
-23.1224

>  <r_i_glide_einternal>  (163) 
1.78594

>  <r_i_glide_intrahb_reward>  (163) 
-0

>  <i_i_glide_confnum>  (163) 
2

>  <i_i_glide_posenum>  (163) 
37

>  <r_i_glide_eff_state_penalty>  (163) 
0

>  <ligand_id>  (163) 
44

>  <original_smiles>  (163) 
O=C(O)C1(N2CCOCC2)CCSCC1

>  <smiles>  (163) 
[H]C1([H])OC([H])([H])C([H])([H])N(C2(C(=O)[O-])C([H])([H])C([H])([H])SC([H])([H])C2([H])[H])C1([H])[H]

$$$$
46:0:0
     RDKit          3D

 87 93  0  0  1  0  0  0  0  0999 V2000
   -0.1149   -2.4188    5.7406 C   0  0  0  0  0  0  0  0  0  0  0  0
    0.1439   -0.9324    5.5338 C   0  0  0  0  0  0  0  0  0  0  0  0
    1.3498   -0.4672    5.0698 C   0  0  0  0  0  0  0  0  0  0  0  0
    1.9395    0.9108    4.5918 C   0  0  1  0  0  0  0  0  0  0  0  0
    1.3521    1.0603    3.1617 C   0  0  0  0  0  0  0  0  0  0  0  0
    0.2791    2.1791    3.0229 C   0  0  1  0  0  0  0  0  0  0  0  0
   -0.9562    1.6206    2.2901 C   0  0  0  0  0  0  0  0  0  0  0  0
   -0.1591    2.9000    4.3433 C   0  0  2  0  0  0  0  0  0  0  0  0
   -0.5202    1.6877    5.1567 O   0  0  0  0  0  0  0  0  0  0  0  0
   -0.5060    1.2214    6.6211 C   0  0  1  0  0  0  0  0  0  0  0  0
   -0.9808   -0.0672    5.9858 C   0  0  0  0  0  0  0  0  0  0  0  0
   -2.1795   -0.3579    5.9497 O   0  0  0  0  0  0  0  0  0  0  0  0
    0.6442    0.9203    7.7692 C   0  0  1  0  0  0  0  0  0  0  0  0
    0.1565   -0.0627    8.6518 O   0  0  0  0  0  0  0  0  0  0  0  0
    1.9661    0.5932    7.3724 O   0  0  0  0  0  0  0  0  0  0  0  0
    3.1711    1.0177    8.0747 C   0  0  0  0  0  0  0  0  0  0  0  0
    2.9346    1.4845    9.5380 C   0  0  0  0  0  0  0  0  0  0  0  0
    4.0296   -0.2690    8.1855 C   0  0  0  0  0  0  0  0  0  0  0  0
    3.8320    2.1542    7.1777 C   0  0  2  0  0  0  0  0  0  0  0  0
    4.5867    1.4939    6.1839 O   0  0  0  0  0  0  0  0  0  0  0  0
    4.8954    3.0594    7.8282 C   0  0  0  0  0  0  0  0  0  0  0  0
    5.2924    4.1875    6.8508 C   0  0  0  0  0  0  0  0  0  0  0  0
    4.1837    5.2584    6.7941 C   0  0  1  0  0  0  0  0  0  0  0  0
    4.3671    6.0651    7.9437 O   0  0  0  0  0  0  0  0  0  0  0  0
    4.3925    6.0244    5.6562 O   0  0  0  0  0  0  0  0  0  0  0  0
    3.2196    6.7208    5.2322 C   0  0  0  0  0  0  0  0  0  0  0  0
    3.0713    8.0376    6.0392 C   0  0  0  0  0  0  0  0  0  0  0  0
    3.5476    7.1244    3.7849 C   0  0  0  0  0  0  0  0  0  0  0  0
    2.0423    5.7010    5.4912 C   0  0  1  0  0  0  0  0  0  0  0  0
    0.9511    5.4455    4.2429 C   0  0  1  0  0  0  0  0  0  0  0  0
    1.5608    5.2813    2.9781 O   0  0  0  0  0  0  0  0  0  0  0  0
   -0.3862    4.5040    4.2486 C   0  0  1  0  0  0  0  0  0  0  0  0
   -1.2159    4.8427    3.1542 O   0  0  0  0  0  0  0  0  0  0  0  0
    2.7027    4.7009    6.6510 C   0  0  2  0  0  0  0  0  0  0  0  0
    1.9685    5.0503    8.0073 C   0  0  0  0  0  0  0  0  0  0  0  0
    2.7239    3.0423    6.5322 C   0  0  1  0  0  0  0  0  0  0  0  0
    2.0032    2.4224    5.2852 C   0  0  1  0  0  0  0  0  0  0  0  0
    2.9764    3.0693    4.2059 C   0  0  0  0  0  0  0  0  0  0  0  0
    0.5615    3.0218    5.5435 C   0  0  2  0  0  0  0  0  0  0  0  0
   -0.5862    2.6715    6.5823 C   0  0  1  0  0  0  0  0  0  0  0  0
   -1.9273    3.1730    6.4699 O   0  0  0  0  0  0  0  0  0  0  0  0
   -0.5211   -2.6096    6.7345 H   0  0  0  0  0  0  0  0  0  0  0  0
    0.7993   -3.0029    5.6451 H   0  0  0  0  0  0  0  0  0  0  0  0
   -0.8273   -2.7899    5.0038 H   0  0  0  0  0  0  0  0  0  0  0  0
    2.0491   -1.2625    4.8637 H   0  0  0  0  0  0  0  0  0  0  0  0
    2.9663    0.5922    4.4417 H   0  0  0  0  0  0  0  0  0  0  0  0
    2.1569    1.2387    2.4422 H   0  0  0  0  0  0  0  0  0  0  0  0
    0.9429    0.1114    2.7986 H   0  0  0  0  0  0  0  0  0  0  0  0
    0.6915    2.9334    2.3612 H   0  0  0  0  0  0  0  0  0  0  0  0
   -1.4411    0.8254    2.8561 H   0  0  0  0  0  0  0  0  0  0  0  0
   -0.6728    1.2143    1.3172 H   0  0  0  0  0  0  0  0  0  0  0  0
   -1.7009    2.3949    2.1097 H   0  0  0  0  0  0  0  0  0  0  0  0
    0.7354    1.7663    8.4353 H   0  0  0  0  0  0  0  0  0  0  0  0
    0.6697   -0.0151    9.4440 H   0  0  0  0  0  0  0  0  0  0  0  0
    3.8813    1.6159   10.0619 H   0  0  0  0  0  0  0  0  0  0  0  0
    2.3711    0.7452   10.1080 H   0  0  0  0  0  0  0  0  0  0  0  0
    2.4116    2.4365    9.6055 H   0  0  0  0  0  0  0  0  0  0  0  0
    5.0218   -0.0624    8.5884 H   0  0  0  0  0  0  0  0  0  0  0  0
    4.1588   -0.7731    7.2273 H   0  0  0  0  0  0  0  0  0  0  0  0
    3.5573   -0.9923    8.8516 H   0  0  0  0  0  0  0  0  0  0  0  0
    3.9788    1.0089    5.6462 H   0  0  0  0  0  0  0  0  0  0  0  0
    4.5512    3.4940    8.7640 H   0  0  0  0  0  0  0  0  0  0  0  0
    5.7796    2.4711    8.0753 H   0  0  0  0  0  0  0  0  0  0  0  0
    6.2165    4.6680    7.1812 H   0  0  0  0  0  0  0  0  0  0  0  0
    5.4957    3.8062    5.8490 H   0  0  0  0  0  0  0  0  0  0  0  0
    3.6862    6.7176    7.9323 H   0  0  0  0  0  0  0  0  0  0  0  0
    2.3142    8.6837    5.5930 H   0  0  0  0  0  0  0  0  0  0  0  0
    4.0125    8.5937    6.0449 H   0  0  0  0  0  0  0  0  0  0  0  0
    2.7790    7.8877    7.0773 H   0  0  0  0  0  0  0  0  0  0  0  0
    2.7043    7.6259    3.3114 H   0  0  0  0  0  0  0  0  0  0  0  0
    3.8370    6.2697    3.1737 H   0  0  0  0  0  0  0  0  0  0  0  0
    4.3858    7.8211    3.7563 H   0  0  0  0  0  0  0  0  0  0  0  0
    1.3596    6.2924    6.0973 H   0  0  0  0  0  0  0  0  0  0  0  0
    0.5221    6.4412    4.1389 H   0  0  0  0  0  0  0  0  0  0  0  0
    0.9119    5.1197    2.2990 H   0  0  0  0  0  0  0  0  0  0  0  0
   -1.0003    4.8736    5.0666 H   0  0  0  0  0  0  0  0  0  0  0  0
   -0.8008    4.5399    2.3433 H   0  0  0  0  0  0  0  0  0  0  0  0
    0.9301    4.7296    8.0321 H   0  0  0  0  0  0  0  0  0  0  0  0
    1.9278    6.1185    8.2149 H   0  0  0  0  0  0  0  0  0  0  0  0
    2.4637    4.5848    8.8599 H   0  0  0  0  0  0  0  0  0  0  0  0
    2.0156    2.9092    7.3182 H   0  0  0  0  0  0  0  0  0  0  0  0
    3.4389    4.0187    4.4309 H   0  0  0  0  0  0  0  0  0  0  0  0
    2.5898    3.1975    3.2076 H   0  0  0  0  0  0  0  0  0  0  0  0
    3.8502    2.4456    4.0353 H   0  0  0  0  0  0  0  0  0  0  0  0
    0.6097    3.9603    6.0423 H   0  0  0  0  0  0  0  0  0  0  0  0
   -0.3757    3.1139    7.5504 H   0  0  0  0  0  0  0  0  0  0  0  0
   -2.2730    2.8323    5.6528 H   0  0  0  0  0  0  0  0  0  0  0  0
  1  2  1  0
  1 42  1  0
  1 43  1  0
  1 44  1  0
  2 11  1  0
  2  3  2  3
  3  4  1  0
  3 45  1  0
  4 37  1  0
  4  5  1  0
  4 46  1  6
  5  6  1  0
  5 47  1  0
  5 48  1  0
  6  7  1  0
  6  8  1  0
  6 49  1  6
  7 50  1  0
  7 51  1  0
  7 52  1  0
  8 32  1  0
  8 39  1  0
  8  9  1  1
 10  9  1  6
 10 40  1  0
 10 11  1  0
 10 13  1  0
 11 12  2  0
 13 14  1  0
 13 15  1  0
 13 53  1  1
 14 54  1  0
 15 16  1  0
 16 17  1  0
 16 18  1  0
 16 19  1  0
 17 55  1  0
 17 56  1  0
 17 57  1  0
 18 58  1  0
 18 59  1  0
 18 60  1  0
 19 36  1  0
 19 20  1  6
 19 21  1  0
 20 61  1  0
 21 22  1  0
 21 62  1  0
 21 63  1  0
 22 23  1  0
 22 64  1  0
 22 65  1  0
 23 34  1  0
 23 24  1  1
 23 25  1  0
 24 66  1  0
 25 26  1  0
 26 27  1  0
 26 28  1  0
 26 29  1  0
 27 67  1  0
 27 68  1  0
 27 69  1  0
 28 70  1  0
 28 71  1  0
 28 72  1  0
 29 30  1  0
 29 34  1  0
 29 73  1  1
 30 31  1  0
 30 32  1  0
 30 74  1  6
 31 75  1  0
 32 33  1  0
 32 76  1  1
 33 77  1  0
 34 35  1  1
 34 36  1  0
 35 78  1  0
 35 79  1  0
 35 80  1  0
 36 37  1  0
 36 81  1  1
 37 38  1  6
 37 39  1  0
 38 82  1  0
 38 83  1  0
 38 84  1  0
 39 40  1  0
 39 85  1  1
 40 41  1  0
 40 86  1  1
 41 87  1  0
M  END
>  <i_m_ct_stereo_status>  (164) 
1

>  <s_m_source_file>  (164) 
/var/tmp/pbs.5076255.sched01/tmp276pg2sv/48_ir7zhrj.sdf

>  <i_m_source_file_index>  (164) 
25

>  <i_lp_mmshare_version>  (164) 
48012

>  <i_f3d_flags>  (164) 
0

>  <s_epik_input>  (164) 
W0NIM11bQ0BASF0xW0NIMl1bQ0BASF0oW0NAQF0yKFtDSDNdKVtDQEhdM1tDQEBdMTQ1KVxbQ0hdPUMoXFtDSDNdKUMoPU8pW0NAQF0oTzQpKFtDQEBIXTNbT0hdKVtDQEBIXShbT0hdKU9DKFtDSDNdKShbQ0gzXSlbQ0BAXTYoW09IXSlbQ0BIXTJbQ0BAXTcoW0NIM10pW0NAQF0oW09IXSkoW0NIMl1bQ0gyXTYpT0MoW0NIM10pKFtDSDNdKVtDQEhdN1tDQEBIXShbT0hdKVtDQEhdNVtPSF0=

>  <s_epik_cmdline>  (164) 
J2VwaWtfcHl0aG9uJywgJy1waHQnLCAnMi4wJywgJy1waCcsICc3LjAnLCAnLXRuJywgJzgnLCAnLW1hJywgJzIwMCcsICctaW1hZScsICc8aW5maWxlLm1hZT4nLCAnLW9tYWUnLCAnPG91dGZpbGUubWFlPic=

>  <r_lp_tautomer_probability>  (164) 
1

>  <r_epik_Ionization_Penalty>  (164) 
2.4025e-05

>  <r_epik_Ionization_Penalty_Charging>  (164) 
0

>  <r_epik_Ionization_Penalty_Neutral>  (164) 
2.4025e-05

>  <r_epik_State_Penalty>  (164) 
-0

>  <r_epik_Charging_Adjusted_Penalty>  (164) 
0

>  <i_epik_Tot_Q>  (164) 
0

>  <i_epik_Tot_abs_Q>  (164) 
0

>  <s_epik_Chemistry_Notes>  (164) 
This compound contains an acetal/aminal-like group ( X-CH(R)-Y where X, Y are N, S, or O) that may be acid/base labile, releasing an aldehyde.

>  <s_lp_Force_Field>  (164) 
OPLS3e

>  <r_lp_Energy>  (164) 
461.651

>  <b_lp_Chiralities_Consistent>  (164) 
1

>  <s_lp_Variant>  (164) 
46:0-1

>  <s_i_glide_gridfile>  (164) 
pfpi4k_grid

>  <i_i_glide_lignum>  (164) 
25

>  <i_i_glide_rotatable_bonds>  (164) 
6

>  <r_i_docking_score>  (164) 
-3.45511

>  <r_i_glide_ligand_efficiency>  (164) 
-0.0842709

>  <r_i_glide_ligand_efficiency_sa>  (164) 
-0.290585

>  <r_i_glide_ligand_efficiency_ln>  (164) 
-0.733013

>  <r_i_glide_gscore>  (164) 
-3.45511

>  <r_i_glide_lipo>  (164) 
-0.0527574

>  <r_i_glide_hbond>  (164) 
-0.128658

>  <r_i_glide_metal>  (164) 
-0

>  <r_i_glide_rewards>  (164) 
0

>  <r_i_glide_evdw>  (164) 
-27.2185

>  <r_i_glide_ecoul>  (164) 
-12.3329

>  <r_i_glide_erotb>  (164) 
0

>  <r_i_glide_esite>  (164) 
-0.0628365

>  <r_i_glide_emodel>  (164) 
-49.1129

>  <r_i_glide_energy>  (164) 
-39.5514

>  <r_i_glide_einternal>  (164) 
1.1947

>  <r_i_glide_intrahb_reward>  (164) 
-0

>  <i_i_glide_confnum>  (164) 
1

>  <i_i_glide_posenum>  (164) 
33

>  <r_i_glide_eff_state_penalty>  (164) 
0

>  <ligand_id>  (164) 
46

>  <original_smiles>  (164) 
CC1=CC2CC(C)C34OC5(C1=O)C(O)OC(C)(C)C1(O)CCC6(O)OC(C)(C)C(C(O)C3O)C6(C)C1C2(C)C4C5O

>  <smiles>  (164) 
[H]OC1([H])OC(C([H])([H])[H])(C([H])([H])[H])C2(O[H])C([H])([H])C([H])([H])C3(O[H])OC(C([H])([H])[H])(C([H])([H])[H])C4([H])C([H])(O[H])C([H])(O[H])C56OC17C(=O)C(C([H])([H])[H])=C([H])C([H])(C([H])([H])C5([H])C([H])([H])[H])C(C([H])([H])[H])(C6([H])C7([H])O[H])C2([H])C34C([H])([H])[H]

$$$$
46:0:1
     RDKit          3D

 87 93  0  0  1  0  0  0  0  0999 V2000
    0.4124   -2.6327    5.5666 C   0  0  0  0  0  0  0  0  0  0  0  0
    0.5276   -1.1260    5.3747 C   0  0  0  0  0  0  0  0  0  0  0  0
    1.6970   -0.5341    4.9653 C   0  0  0  0  0  0  0  0  0  0  0  0
    2.1599    0.9029    4.5219 C   0  0  1  0  0  0  0  0  0  0  0  0
    1.6162    1.0094    3.0710 C   0  0  0  0  0  0  0  0  0  0  0  0
    0.4458    2.0236    2.8998 C   0  0  1  0  0  0  0  0  0  0  0  0
   -0.6998    1.3473    2.1334 C   0  0  0  0  0  0  0  0  0  0  0  0
   -0.1161    2.6772    4.2056 C   0  0  2  0  0  0  0  0  0  0  0  0
   -0.3895    1.4233    4.9936 O   0  0  0  0  0  0  0  0  0  0  0  0
   -0.3820    0.9353    6.4512 C   0  0  1  0  0  0  0  0  0  0  0  0
   -0.6975   -0.3870    5.7804 C   0  0  0  0  0  0  0  0  0  0  0  0
   -1.8542   -0.8067    5.6867 O   0  0  0  0  0  0  0  0  0  0  0  0
    0.7543    0.7388    7.6420 C   0  0  1  0  0  0  0  0  0  0  0  0
    0.3538   -0.3098    8.4896 O   0  0  0  0  0  0  0  0  0  0  0  0
    2.1165    0.5573    7.2945 O   0  0  0  0  0  0  0  0  0  0  0  0
    3.2500    1.0951    8.0393 C   0  0  0  0  0  0  0  0  0  0  0  0
    2.9136    1.5200    9.4969 C   0  0  0  0  0  0  0  0  0  0  0  0
    4.2294   -0.0990    8.1763 C   0  0  0  0  0  0  0  0  0  0  0  0
    3.8319    2.2958    7.1687 C   0  0  2  0  0  0  0  0  0  0  0  0
    4.7007    1.7306    6.2000 O   0  0  0  0  0  0  0  0  0  0  0  0
    4.7652    3.2997    7.8731 C   0  0  0  0  0  0  0  0  0  0  0  0
    5.0829    4.4733    6.9227 C   0  0  0  0  0  0  0  0  0  0  0  0
    3.8750    5.4268    6.8334 C   0  0  1  0  0  0  0  0  0  0  0  0
    3.9349    6.2328    7.9958 O   0  0  0  0  0  0  0  0  0  0  0  0
    4.0469    6.2238    5.7110 O   0  0  0  0  0  0  0  0  0  0  0  0
    2.8266    6.8024    5.2468 C   0  0  0  0  0  0  0  0  0  0  0  0
    2.5169    8.0892    6.0547 C   0  0  0  0  0  0  0  0  0  0  0  0
    3.1672    7.2519    3.8178 C   0  0  0  0  0  0  0  0  0  0  0  0
    1.7482    5.6669    5.4518 C   0  0  1  0  0  0  0  0  0  0  0  0
    0.7350    5.3171    4.1583 C   0  0  1  0  0  0  0  0  0  0  0  0
    1.4142    5.2276    2.9209 O   0  0  0  0  0  0  0  0  0  0  0  0
   -0.5081    4.2500    4.1097 C   0  0  1  0  0  0  0  0  0  0  0  0
   -1.3482    4.5194    2.9989 O   0  0  0  0  0  0  0  0  0  0  0  0
    2.4630    4.7250    6.6289 C   0  0  2  0  0  0  0  0  0  0  0  0
    1.6493    4.9853    7.9590 C   0  0  0  0  0  0  0  0  0  0  0  0
    2.6553    3.0768    6.5001 C   0  0  1  0  0  0  0  0  0  0  0  0
    2.0443    2.4050    5.2250 C   0  0  1  0  0  0  0  0  0  0  0  0
    2.9879    3.1574    4.1885 C   0  0  0  0  0  0  0  0  0  0  0  0
    0.5425    2.8545    5.4332 C   0  0  2  0  0  0  0  0  0  0  0  0
   -0.5987    2.3745    6.4245 C   0  0  1  0  0  0  0  0  0  0  0  0
   -1.9768    2.7488    6.2713 O   0  0  0  0  0  0  0  0  0  0  0  0
   -0.0120   -2.8738    6.5421 H   0  0  0  0  0  0  0  0  0  0  0  0
    1.3837   -3.1203    5.5031 H   0  0  0  0  0  0  0  0  0  0  0  0
   -0.2319   -3.0681    4.8020 H   0  0  0  0  0  0  0  0  0  0  0  0
    2.4829   -1.2489    4.7833 H   0  0  0  0  0  0  0  0  0  0  0  0
    3.2219    0.6944    4.4264 H   0  0  0  0  0  0  0  0  0  0  0  0
    2.4270    1.2689    2.3841 H   0  0  0  0  0  0  0  0  0  0  0  0
    1.3146    0.0293    2.6880 H   0  0  0  0  0  0  0  0  0  0  0  0
    0.8017    2.8135    2.2451 H   0  0  0  0  0  0  0  0  0  0  0  0
   -1.1230    0.5042    2.6758 H   0  0  0  0  0  0  0  0  0  0  0  0
   -0.3140    0.9822    1.1865 H   0  0  0  0  0  0  0  0  0  0  0  0
   -1.5153    2.0417    1.9332 H   0  0  0  0  0  0  0  0  0  0  0  0
    0.7287    1.5722    8.3261 H   0  0  0  0  0  0  0  0  0  0  0  0
    0.6547   -1.1162    8.0965 H   0  0  0  0  0  0  0  0  0  0  0  0
    3.8189    1.7376   10.0642 H   0  0  0  0  0  0  0  0  0  0  0  0
    2.3995    0.7231   10.0370 H   0  0  0  0  0  0  0  0  0  0  0  0
    2.2943    2.4127    9.5542 H   0  0  0  0  0  0  0  0  0  0  0  0
    5.1790    0.1982    8.6238 H   0  0  0  0  0  0  0  0  0  0  0  0
    4.4393   -0.5790    7.2204 H   0  0  0  0  0  0  0  0  0  0  0  0
    3.8056   -0.8701    8.8208 H   0  0  0  0  0  0  0  0  0  0  0  0
    5.3788    1.2433    6.6454 H   0  0  0  0  0  0  0  0  0  0  0  0
    4.3406    3.6870    8.7969 H   0  0  0  0  0  0  0  0  0  0  0  0
    5.6942    2.8084    8.1604 H   0  0  0  0  0  0  0  0  0  0  0  0
    5.9413    5.0407    7.2908 H   0  0  0  0  0  0  0  0  0  0  0  0
    5.3608    4.1277    5.9256 H   0  0  0  0  0  0  0  0  0  0  0  0
    3.1864    6.8068    7.9720 H   0  0  0  0  0  0  0  0  0  0  0  0
    1.7179    8.6621    5.5821 H   0  0  0  0  0  0  0  0  0  0  0  0
    3.3983    8.7340    6.0993 H   0  0  0  0  0  0  0  0  0  0  0  0
    2.2034    7.9004    7.0801 H   0  0  0  0  0  0  0  0  0  0  0  0
    2.2941    7.6695    3.3159 H   0  0  0  0  0  0  0  0  0  0  0  0
    3.5645    6.4368    3.2131 H   0  0  0  0  0  0  0  0  0  0  0  0
    3.9302    8.0302    3.8242 H   0  0  0  0  0  0  0  0  0  0  0  0
    0.9874    6.1802    6.0358 H   0  0  0  0  0  0  0  0  0  0  0  0
    0.2157    6.2668    4.0433 H   0  0  0  0  0  0  0  0  0  0  0  0
    0.8215    5.0123    2.2069 H   0  0  0  0  0  0  0  0  0  0  0  0
   -1.1821    4.5437    4.9116 H   0  0  0  0  0  0  0  0  0  0  0  0
   -0.8499    4.3610    2.1943 H   0  0  0  0  0  0  0  0  0  0  0  0
    0.6483    4.5618    7.9428 H   0  0  0  0  0  0  0  0  0  0  0  0
    1.4940    6.0423    8.1714 H   0  0  0  0  0  0  0  0  0  0  0  0
    2.1577    4.5636    8.8264 H   0  0  0  0  0  0  0  0  0  0  0  0
    1.9363    2.8626    7.2607 H   0  0  0  0  0  0  0  0  0  0  0  0
    3.3459    4.1456    4.4356 H   0  0  0  0  0  0  0  0  0  0  0  0
    2.6347    3.2518    3.1737 H   0  0  0  0  0  0  0  0  0  0  0  0
    3.9250    2.6243    4.0567 H   0  0  0  0  0  0  0  0  0  0  0  0
    0.4776    3.7898    5.9363 H   0  0  0  0  0  0  0  0  0  0  0  0
   -0.4630    2.8236    7.4022 H   0  0  0  0  0  0  0  0  0  0  0  0
   -2.2431    2.4435    5.4112 H   0  0  0  0  0  0  0  0  0  0  0  0
  1  2  1  0
  1 42  1  0
  1 43  1  0
  1 44  1  0
  2 11  1  0
  2  3  2  3
  3  4  1  0
  3 45  1  0
  4 37  1  0
  4  5  1  0
  4 46  1  6
  5  6  1  0
  5 47  1  0
  5 48  1  0
  6  7  1  0
  6  8  1  0
  6 49  1  6
  7 50  1  0
  7 51  1  0
  7 52  1  0
  8 32  1  0
  8 39  1  0
  8  9  1  1
 10  9  1  6
 10 40  1  0
 10 11  1  0
 10 13  1  0
 11 12  2  0
 13 14  1  0
 13 15  1  0
 13 53  1  1
 14 54  1  0
 15 16  1  0
 16 17  1  0
 16 18  1  0
 16 19  1  0
 17 55  1  0
 17 56  1  0
 17 57  1  0
 18 58  1  0
 18 59  1  0
 18 60  1  0
 19 36  1  0
 19 20  1  6
 19 21  1  0
 20 61  1  0
 21 22  1  0
 21 62  1  0
 21 63  1  0
 22 23  1  0
 22 64  1  0
 22 65  1  0
 23 34  1  0
 23 24  1  1
 23 25  1  0
 24 66  1  0
 25 26  1  0
 26 27  1  0
 26 28  1  0
 26 29  1  0
 27 67  1  0
 27 68  1  0
 27 69  1  0
 28 70  1  0
 28 71  1  0
 28 72  1  0
 29 30  1  0
 29 34  1  0
 29 73  1  1
 30 31  1  0
 30 32  1  0
 30 74  1  6
 31 75  1  0
 32 33  1  0
 32 76  1  1
 33 77  1  0
 34 35  1  1
 34 36  1  0
 35 78  1  0
 35 79  1  0
 35 80  1  0
 36 37  1  0
 36 81  1  1
 37 38  1  6
 37 39  1  0
 38 82  1  0
 38 83  1  0
 38 84  1  0
 39 40  1  0
 39 85  1  1
 40 41  1  0
 40 86  1  1
 41 87  1  0
M  END
>  <i_m_ct_stereo_status>  (165) 
1

>  <s_m_source_file>  (165) 
/var/tmp/pbs.5076255.sched01/tmp276pg2sv/48_ir7zhrj.sdf

>  <i_m_source_file_index>  (165) 
25

>  <i_lp_mmshare_version>  (165) 
48012

>  <i_f3d_flags>  (165) 
0

>  <s_epik_input>  (165) 
W0NIM11bQ0BASF0xW0NIMl1bQ0BASF0oW0NAQF0yKFtDSDNdKVtDQEhdM1tDQEBdMTQ1KVxbQ0hdPUMoXFtDSDNdKUMoPU8pW0NAQF0oTzQpKFtDQEBIXTNbT0hdKVtDQEBIXShbT0hdKU9DKFtDSDNdKShbQ0gzXSlbQ0BAXTYoW09IXSlbQ0BIXTJbQ0BAXTcoW0NIM10pW0NAQF0oW09IXSkoW0NIMl1bQ0gyXTYpT0MoW0NIM10pKFtDSDNdKVtDQEhdN1tDQEBIXShbT0hdKVtDQEhdNVtPSF0=

>  <s_epik_cmdline>  (165) 
J2VwaWtfcHl0aG9uJywgJy1waHQnLCAnMi4wJywgJy1waCcsICc3LjAnLCAnLXRuJywgJzgnLCAnLW1hJywgJzIwMCcsICctaW1hZScsICc8aW5maWxlLm1hZT4nLCAnLW9tYWUnLCAnPG91dGZpbGUubWFlPic=

>  <r_lp_tautomer_probability>  (165) 
1

>  <r_epik_Ionization_Penalty>  (165) 
2.4025e-05

>  <r_epik_Ionization_Penalty_Charging>  (165) 
0

>  <r_epik_Ionization_Penalty_Neutral>  (165) 
2.4025e-05

>  <r_epik_State_Penalty>  (165) 
-0

>  <r_epik_Charging_Adjusted_Penalty>  (165) 
0

>  <i_epik_Tot_Q>  (165) 
0

>  <i_epik_Tot_abs_Q>  (165) 
0

>  <s_epik_Chemistry_Notes>  (165) 
This compound contains an acetal/aminal-like group ( X-CH(R)-Y where X, Y are N, S, or O) that may be acid/base labile, releasing an aldehyde.

>  <s_lp_Force_Field>  (165) 
OPLS3e

>  <r_lp_Energy>  (165) 
461.651

>  <b_lp_Chiralities_Consistent>  (165) 
1

>  <s_lp_Variant>  (165) 
46:0-1

>  <s_i_glide_gridfile>  (165) 
pfpi4k_grid

>  <i_i_glide_lignum>  (165) 
25

>  <i_i_glide_rotatable_bonds>  (165) 
6

>  <r_i_docking_score>  (165) 
-3.0551

>  <r_i_glide_ligand_efficiency>  (165) 
-0.0745147

>  <r_i_glide_ligand_efficiency_sa>  (165) 
-0.256943

>  <r_i_glide_ligand_efficiency_ln>  (165) 
-0.64815

>  <r_i_glide_gscore>  (165) 
-3.0551

>  <r_i_glide_lipo>  (165) 
-0.0108947

>  <r_i_glide_hbond>  (165) 
-0.0429125

>  <r_i_glide_metal>  (165) 
-0

>  <r_i_glide_rewards>  (165) 
0

>  <r_i_glide_evdw>  (165) 
-27.0398

>  <r_i_glide_ecoul>  (165) 
-10.6665

>  <r_i_glide_erotb>  (165) 
0

>  <r_i_glide_esite>  (165) 
-0.0493315

>  <r_i_glide_emodel>  (165) 
-45.887

>  <r_i_glide_energy>  (165) 
-37.7063

>  <r_i_glide_einternal>  (165) 
1.27979

>  <r_i_glide_intrahb_reward>  (165) 
-0

>  <i_i_glide_confnum>  (165) 
1

>  <i_i_glide_posenum>  (165) 
9

>  <r_i_glide_eff_state_penalty>  (165) 
0

>  <ligand_id>  (165) 
46

>  <original_smiles>  (165) 
CC1=CC2CC(C)C34OC5(C1=O)C(O)OC(C)(C)C1(O)CCC6(O)OC(C)(C)C(C(O)C3O)C6(C)C1C2(C)C4C5O

>  <smiles>  (165) 
[H]OC1([H])OC(C([H])([H])[H])(C([H])([H])[H])C2(O[H])C([H])([H])C([H])([H])C3(O[H])OC(C([H])([H])[H])(C([H])([H])[H])C4([H])C([H])(O[H])C([H])(O[H])C56OC17C(=O)C(C([H])([H])[H])=C([H])C([H])(C([H])([H])C5([H])C([H])([H])[H])C(C([H])([H])[H])(C6([H])C7([H])O[H])C2([H])C34C([H])([H])[H]

$$$$
46:0:2
     RDKit          3D

 87 93  0  0  1  0  0  0  0  0999 V2000
    0.8496   -3.0455    4.6075 C   0  0  0  0  0  0  0  0  0  0  0  0
    0.7296   -1.5360    4.7654 C   0  0  0  0  0  0  0  0  0  0  0  0
    1.7324   -0.6888    4.3597 C   0  0  0  0  0  0  0  0  0  0  0  0
    1.9402    0.8680    4.2142 C   0  0  1  0  0  0  0  0  0  0  0  0
    1.1650    1.1970    2.9071 C   0  0  0  0  0  0  0  0  0  0  0  0
   -0.1411    2.0206    3.1282 C   0  0  1  0  0  0  0  0  0  0  0  0
   -1.2947    1.3571    2.3574 C   0  0  0  0  0  0  0  0  0  0  0  0
   -0.5629    2.2709    4.6205 C   0  0  2  0  0  0  0  0  0  0  0  0
   -0.5364    0.8517    5.1109 O   0  0  0  0  0  0  0  0  0  0  0  0
   -0.2291    0.0741    6.3983 C   0  0  1  0  0  0  0  0  0  0  0  0
   -0.4949   -1.1108    5.5028 C   0  0  0  0  0  0  0  0  0  0  0  0
   -1.5895   -1.6743    5.4934 O   0  0  0  0  0  0  0  0  0  0  0  0
    1.0902   -0.1900    7.3585 C   0  0  1  0  0  0  0  0  0  0  0  0
    0.9474   -1.4403    7.9870 O   0  0  0  0  0  0  0  0  0  0  0  0
    2.3903   -0.0802    6.8083 O   0  0  0  0  0  0  0  0  0  0  0  0
    3.5459    0.4641    7.5122 C   0  0  0  0  0  0  0  0  0  0  0  0
    3.3933    0.5044    9.0606 C   0  0  0  0  0  0  0  0  0  0  0  0
    4.6767   -0.5588    7.2382 C   0  0  0  0  0  0  0  0  0  0  0  0
    3.8240    1.9006    6.8859 C   0  0  2  0  0  0  0  0  0  0  0  0
    4.5907    1.7091    5.7086 O   0  0  0  0  0  0  0  0  0  0  0  0
    4.7204    2.8657    7.6856 C   0  0  0  0  0  0  0  0  0  0  0  0
    4.7352    4.2516    7.0057 C   0  0  0  0  0  0  0  0  0  0  0  0
    3.4187    4.9983    7.2955 C   0  0  1  0  0  0  0  0  0  0  0  0
    3.5691    5.5377    8.5968 O   0  0  0  0  0  0  0  0  0  0  0  0
    3.3044    6.0347    6.3790 O   0  0  0  0  0  0  0  0  0  0  0  0
    1.9583    6.4955    6.2259 C   0  0  0  0  0  0  0  0  0  0  0  0
    1.6215    7.5119    7.3494 C   0  0  0  0  0  0  0  0  0  0  0  0
    1.9995    7.2892    4.9086 C   0  0  0  0  0  0  0  0  0  0  0  0
    1.0907    5.1779    6.2978 C   0  0  1  0  0  0  0  0  0  0  0  0
   -0.0733    4.9500    5.1164 C   0  0  1  0  0  0  0  0  0  0  0  0
    0.3161    5.2750    3.8012 O   0  0  0  0  0  0  0  0  0  0  0  0
   -1.1599    3.7379    4.9610 C   0  0  1  0  0  0  0  0  0  0  0  0
   -2.1223    4.0985    3.9888 O   0  0  0  0  0  0  0  0  0  0  0  0
    2.0954    4.1367    7.1170 C   0  0  2  0  0  0  0  0  0  0  0  0
    1.4759    3.9724    8.5640 C   0  0  0  0  0  0  0  0  0  0  0  0
    2.4672    2.6102    6.5735 C   0  0  1  0  0  0  0  0  0  0  0  0
    1.7484    2.1451    5.2599 C   0  0  1  0  0  0  0  0  0  0  0  0
    2.4068    3.2493    4.3168 C   0  0  0  0  0  0  0  0  0  0  0  0
    0.2530    2.2838    5.7655 C   0  0  2  0  0  0  0  0  0  0  0  0
   -0.6467    1.4187    6.7511 C   0  0  1  0  0  0  0  0  0  0  0  0
   -2.0699    1.5625    6.8728 O   0  0  0  0  0  0  0  0  0  0  0  0
    0.6152   -3.5592    5.5413 H   0  0  0  0  0  0  0  0  0  0  0  0
    1.8554   -3.3418    4.3124 H   0  0  0  0  0  0  0  0  0  0  0  0
    0.1648   -3.4031    3.8426 H   0  0  0  0  0  0  0  0  0  0  0  0
    2.5659   -1.2112    3.9146 H   0  0  0  0  0  0  0  0  0  0  0  0
    2.9910    0.8561    3.9383 H   0  0  0  0  0  0  0  0  0  0  0  0
    1.8156    1.7246    2.2055 H   0  0  0  0  0  0  0  0  0  0  0  0
    0.9337    0.2877    2.3451 H   0  0  0  0  0  0  0  0  0  0  0  0
   -0.0088    2.9780    2.6323 H   0  0  0  0  0  0  0  0  0  0  0  0
   -1.5096    0.3633    2.7459 H   0  0  0  0  0  0  0  0  0  0  0  0
   -1.0490    1.2604    1.2980 H   0  0  0  0  0  0  0  0  0  0  0  0
   -2.2116    1.9402    2.4245 H   0  0  0  0  0  0  0  0  0  0  0  0
    1.0681    0.4641    8.2160 H   0  0  0  0  0  0  0  0  0  0  0  0
    1.1161   -2.1053    7.3335 H   0  0  0  0  0  0  0  0  0  0  0  0
    4.3424    0.7371    9.5452 H   0  0  0  0  0  0  0  0  0  0  0  0
    3.0764   -0.4615    9.4580 H   0  0  0  0  0  0  0  0  0  0  0  0
    2.6829    1.2537    9.4040 H   0  0  0  0  0  0  0  0  0  0  0  0
    5.6407   -0.2195    7.6216 H   0  0  0  0  0  0  0  0  0  0  0  0
    4.7902   -0.7817    6.1765 H   0  0  0  0  0  0  0  0  0  0  0  0
    4.4605   -1.5079    7.7289 H   0  0  0  0  0  0  0  0  0  0  0  0
    5.3710    1.2220    5.9302 H   0  0  0  0  0  0  0  0  0  0  0  0
    4.4031    2.9710    8.7217 H   0  0  0  0  0  0  0  0  0  0  0  0
    5.7386    2.4783    7.7274 H   0  0  0  0  0  0  0  0  0  0  0  0
    5.5657    4.8523    7.3828 H   0  0  0  0  0  0  0  0  0  0  0  0
    4.8878    4.1781    5.9277 H   0  0  0  0  0  0  0  0  0  0  0  0
    4.3380    6.0818    8.5869 H   0  0  0  0  0  0  0  0  0  0  0  0
    0.6872    8.0346    7.1412 H   0  0  0  0  0  0  0  0  0  0  0  0
    2.4063    8.2671    7.4329 H   0  0  0  0  0  0  0  0  0  0  0  0
    1.5171    7.0510    8.3310 H   0  0  0  0  0  0  0  0  0  0  0  0
    1.0172    7.6672    4.6265 H   0  0  0  0  0  0  0  0  0  0  0  0
    2.3949    6.6968    4.0847 H   0  0  0  0  0  0  0  0  0  0  0  0
    2.6509    8.1594    5.0057 H   0  0  0  0  0  0  0  0  0  0  0  0
    0.3782    5.4287    7.0792 H   0  0  0  0  0  0  0  0  0  0  0  0
   -0.7111    5.8034    5.3259 H   0  0  0  0  0  0  0  0  0  0  0  0
    0.7274    4.5263    3.3914 H   0  0  0  0  0  0  0  0  0  0  0  0
   -1.7531    3.7439    5.8749 H   0  0  0  0  0  0  0  0  0  0  0  0
   -1.7048    4.0275    3.1363 H   0  0  0  0  0  0  0  0  0  0  0  0
    0.5452    3.4114    8.5769 H   0  0  0  0  0  0  0  0  0  0  0  0
    1.2336    4.9241    9.0354 H   0  0  0  0  0  0  0  0  0  0  0  0
    2.1632    3.4611    9.2369 H   0  0  0  0  0  0  0  0  0  0  0  0
    1.9128    2.1252    7.3481 H   0  0  0  0  0  0  0  0  0  0  0  0
    2.6776    4.1991    4.7491 H   0  0  0  0  0  0  0  0  0  0  0  0
    1.8827    3.5097    3.4114 H   0  0  0  0  0  0  0  0  0  0  0  0
    3.3722    2.9164    3.9411 H   0  0  0  0  0  0  0  0  0  0  0  0
    0.1513    3.0600    6.4875 H   0  0  0  0  0  0  0  0  0  0  0  0
   -0.4141    1.6635    7.7830 H   0  0  0  0  0  0  0  0  0  0  0  0
   -2.4164    1.5878    5.9885 H   0  0  0  0  0  0  0  0  0  0  0  0
  1  2  1  0
  1 42  1  0
  1 43  1  0
  1 44  1  0
  2 11  1  0
  2  3  2  3
  3  4  1  0
  3 45  1  0
  4 37  1  0
  4  5  1  0
  4 46  1  6
  5  6  1  0
  5 47  1  0
  5 48  1  0
  6  7  1  0
  6  8  1  0
  6 49  1  6
  7 50  1  0
  7 51  1  0
  7 52  1  0
  8 32  1  0
  8 39  1  0
  8  9  1  1
 10  9  1  6
 10 40  1  0
 10 11  1  0
 10 13  1  0
 11 12  2  0
 13 14  1  0
 13 15  1  0
 13 53  1  1
 14 54  1  0
 15 16  1  0
 16 17  1  0
 16 18  1  0
 16 19  1  0
 17 55  1  0
 17 56  1  0
 17 57  1  0
 18 58  1  0
 18 59  1  0
 18 60  1  0
 19 36  1  0
 19 20  1  6
 19 21  1  0
 20 61  1  0
 21 22  1  0
 21 62  1  0
 21 63  1  0
 22 23  1  0
 22 64  1  0
 22 65  1  0
 23 34  1  0
 23 24  1  1
 23 25  1  0
 24 66  1  0
 25 26  1  0
 26 27  1  0
 26 28  1  0
 26 29  1  0
 27 67  1  0
 27 68  1  0
 27 69  1  0
 28 70  1  0
 28 71  1  0
 28 72  1  0
 29 30  1  0
 29 34  1  0
 29 73  1  1
 30 31  1  0
 30 32  1  0
 30 74  1  1
 31 75  1  0
 32 33  1  0
 32 76  1  1
 33 77  1  0
 34 35  1  1
 34 36  1  0
 35 78  1  0
 35 79  1  0
 35 80  1  0
 36 37  1  0
 36 81  1  1
 37 38  1  6
 37 39  1  0
 38 82  1  0
 38 83  1  0
 38 84  1  0
 39 40  1  0
 39 85  1  1
 40 41  1  0
 40 86  1  1
 41 87  1  0
M  END
>  <i_m_ct_stereo_status>  (166) 
1

>  <s_m_source_file>  (166) 
/var/tmp/pbs.5076255.sched01/tmp276pg2sv/48_ir7zhrj.sdf

>  <i_m_source_file_index>  (166) 
25

>  <i_lp_mmshare_version>  (166) 
48012

>  <i_f3d_flags>  (166) 
0

>  <s_epik_input>  (166) 
W0NIM11bQ0BASF0xW0NIMl1bQ0BASF0oW0NAQF0yKFtDSDNdKVtDQEhdM1tDQEBdMTQ1KVxbQ0hdPUMoXFtDSDNdKUMoPU8pW0NAQF0oTzQpKFtDQEBIXTNbT0hdKVtDQEBIXShbT0hdKU9DKFtDSDNdKShbQ0gzXSlbQ0BAXTYoW09IXSlbQ0BIXTJbQ0BAXTcoW0NIM10pW0NAQF0oW09IXSkoW0NIMl1bQ0gyXTYpT0MoW0NIM10pKFtDSDNdKVtDQEhdN1tDQEBIXShbT0hdKVtDQEhdNVtPSF0=

>  <s_epik_cmdline>  (166) 
J2VwaWtfcHl0aG9uJywgJy1waHQnLCAnMi4wJywgJy1waCcsICc3LjAnLCAnLXRuJywgJzgnLCAnLW1hJywgJzIwMCcsICctaW1hZScsICc8aW5maWxlLm1hZT4nLCAnLW9tYWUnLCAnPG91dGZpbGUubWFlPic=

>  <r_lp_tautomer_probability>  (166) 
1

>  <r_epik_Ionization_Penalty>  (166) 
2.4025e-05

>  <r_epik_Ionization_Penalty_Charging>  (166) 
0

>  <r_epik_Ionization_Penalty_Neutral>  (166) 
2.4025e-05

>  <r_epik_State_Penalty>  (166) 
-0

>  <r_epik_Charging_Adjusted_Penalty>  (166) 
0

>  <i_epik_Tot_Q>  (166) 
0

>  <i_epik_Tot_abs_Q>  (166) 
0

>  <s_epik_Chemistry_Notes>  (166) 
This compound contains an acetal/aminal-like group ( X-CH(R)-Y where X, Y are N, S, or O) that may be acid/base labile, releasing an aldehyde.

>  <s_lp_Force_Field>  (166) 
OPLS3e

>  <r_lp_Energy>  (166) 
461.651

>  <b_lp_Chiralities_Consistent>  (166) 
1

>  <s_lp_Variant>  (166) 
46:0-1

>  <s_i_glide_gridfile>  (166) 
pfpi4k_grid

>  <i_i_glide_lignum>  (166) 
25

>  <i_i_glide_rotatable_bonds>  (166) 
6

>  <r_i_docking_score>  (166) 
-2.24846

>  <r_i_glide_ligand_efficiency>  (166) 
-0.0548405

>  <r_i_glide_ligand_efficiency_sa>  (166) 
-0.189102

>  <r_i_glide_ligand_efficiency_ln>  (166) 
-0.477019

>  <r_i_glide_gscore>  (166) 
-2.24846

>  <r_i_glide_lipo>  (166) 
-0.0177385

>  <r_i_glide_hbond>  (166) 
0

>  <r_i_glide_metal>  (166) 
-0

>  <r_i_glide_rewards>  (166) 
0

>  <r_i_glide_evdw>  (166) 
-28.7903

>  <r_i_glide_ecoul>  (166) 
-5.05142

>  <r_i_glide_erotb>  (166) 
0

>  <r_i_glide_esite>  (166) 
-0.0334944

>  <r_i_glide_emodel>  (166) 
-39.7859

>  <r_i_glide_energy>  (166) 
-33.8417

>  <r_i_glide_einternal>  (166) 
0.765018

>  <r_i_glide_intrahb_reward>  (166) 
-0

>  <i_i_glide_confnum>  (166) 
2

>  <i_i_glide_posenum>  (166) 
2

>  <r_i_glide_eff_state_penalty>  (166) 
0

>  <ligand_id>  (166) 
46

>  <original_smiles>  (166) 
CC1=CC2CC(C)C34OC5(C1=O)C(O)OC(C)(C)C1(O)CCC6(O)OC(C)(C)C(C(O)C3O)C6(C)C1C2(C)C4C5O

>  <smiles>  (166) 
[H]OC1([H])OC(C([H])([H])[H])(C([H])([H])[H])C2(O[H])C([H])([H])C([H])([H])C3(O[H])OC(C([H])([H])[H])(C([H])([H])[H])C4([H])C([H])(O[H])C([H])(O[H])C56OC17C(=O)C(C([H])([H])[H])=C([H])C([H])(C([H])([H])C5([H])C([H])([H])[H])C(C([H])([H])[H])(C6([H])C7([H])O[H])C2([H])C34C([H])([H])[H]

$$$$
46:1:0
     RDKit          3D

 87 93  0  0  1  0  0  0  0  0999 V2000
   -3.0544    2.8000    7.7333 C   0  0  0  0  0  0  0  0  0  0  0  0
   -1.6028    2.3930    7.4827 C   0  0  0  0  0  0  0  0  0  0  0  0
   -1.3781    1.1952    6.9182 C   0  0  0  0  0  0  0  0  0  0  0  0
   -0.9529    1.0199    5.5069 C   0  0  1  0  0  0  0  0  0  0  0  0
   -1.4307    2.2163    4.5928 C   0  0  0  0  0  0  0  0  0  0  0  0
   -0.3249    3.1606    3.9837 C   0  0  1  0  0  0  0  0  0  0  0  0
   -0.8779    4.5744    3.7385 C   0  0  0  0  0  0  0  0  0  0  0  0
    1.1291    3.0948    4.5910 C   0  0  2  0  0  0  0  0  0  0  0  0
    1.3055    3.9467    5.8573 O   0  0  0  0  0  0  0  0  0  0  0  0
    0.8976    3.2590    7.1451 C   0  0  2  0  0  0  0  0  0  0  0  0
   -0.6326    3.4561    7.2565 C   0  0  0  0  0  0  0  0  0  0  0  0
   -0.9954    4.6347    7.2454 O   0  0  0  0  0  0  0  0  0  0  0  0
    1.4998    2.9090    8.6057 C   0  0  1  0  0  0  0  0  0  0  0  0
    1.0652    3.8534    9.5694 O   0  0  0  0  0  0  0  0  0  0  0  0
    0.9984    1.5535    8.9389 O   0  0  0  0  0  0  0  0  0  0  0  0
    1.6245    0.1818    8.8030 C   0  0  0  0  0  0  0  0  0  0  0  0
    3.1110    0.3700    9.2470 C   0  0  0  0  0  0  0  0  0  0  0  0
    0.9601   -0.4855   10.0349 C   0  0  0  0  0  0  0  0  0  0  0  0
    1.3864   -0.8473    7.4475 C   0  0  2  0  0  0  0  0  0  0  0  0
    0.0791   -1.3941    7.5808 O   0  0  0  0  0  0  0  0  0  0  0  0
    2.2424   -2.1931    7.5049 C   0  0  0  0  0  0  0  0  0  0  0  0
    2.4000   -3.0114    6.1562 C   0  0  0  0  0  0  0  0  0  0  0  0
    3.1762   -2.1843    5.0500 C   0  0  1  0  0  0  0  0  0  0  0  0
    4.5268   -2.5751    5.1926 O   0  0  0  0  0  0  0  0  0  0  0  0
    2.7510   -2.4603    3.7419 O   0  0  0  0  0  0  0  0  0  0  0  0
    3.2449   -1.4698    2.7968 C   0  0  0  0  0  0  0  0  0  0  0  0
    4.6995   -1.8212    2.3657 C   0  0  0  0  0  0  0  0  0  0  0  0
    2.4072   -1.6738    1.5096 C   0  0  0  0  0  0  0  0  0  0  0  0
    3.1661   -0.0943    3.6012 C   0  0  1  0  0  0  0  0  0  0  0  0
    2.6851    1.3574    2.8499 C   0  0  1  0  0  0  0  0  0  0  0  0
    1.7734    1.1645    1.7912 O   0  0  0  0  0  0  0  0  0  0  0  0
    2.3326    2.8681    3.4974 C   0  0  1  0  0  0  0  0  0  0  0  0
    2.2337    3.8269    2.4626 O   0  0  0  0  0  0  0  0  0  0  0  0
    2.9386   -0.6356    5.1446 C   0  0  2  0  0  0  0  0  0  0  0  0
    4.1540   -0.0618    5.9638 C   0  0  0  0  0  0  0  0  0  0  0  0
    1.4334   -0.5029    5.8491 C   0  0  2  0  0  0  0  0  0  0  0  0
    0.4778    0.5745    5.1626 C   0  0  1  0  0  0  0  0  0  0  0  0
    0.1003   -0.0502    3.7539 C   0  0  0  0  0  0  0  0  0  0  0  0
    1.3733    1.8205    5.2626 C   0  0  2  0  0  0  0  0  0  0  0  0
    1.8748    2.2697    6.5395 C   0  0  1  0  0  0  0  0  0  0  0  0
    3.2325    2.8430    6.5451 O   0  0  0  0  0  0  0  0  0  0  0  0
   -3.2975    2.8973    8.7846 H   0  0  0  0  0  0  0  0  0  0  0  0
   -3.7450    2.0868    7.3035 H   0  0  0  0  0  0  0  0  0  0  0  0
   -3.2914    3.7204    7.2101 H   0  0  0  0  0  0  0  0  0  0  0  0
   -2.3204    0.6720    6.8685 H   0  0  0  0  0  0  0  0  0  0  0  0
   -1.6271    0.1966    5.2694 H   0  0  0  0  0  0  0  0  0  0  0  0
   -2.0055    1.8075    3.7504 H   0  0  0  0  0  0  0  0  0  0  0  0
   -2.1982    2.8106    5.0987 H   0  0  0  0  0  0  0  0  0  0  0  0
   -0.2095    2.7796    2.9780 H   0  0  0  0  0  0  0  0  0  0  0  0
   -1.0877    5.1109    4.6619 H   0  0  0  0  0  0  0  0  0  0  0  0
   -1.8056    4.5272    3.1643 H   0  0  0  0  0  0  0  0  0  0  0  0
   -0.1760    5.1693    3.1586 H   0  0  0  0  0  0  0  0  0  0  0  0
    2.5804    2.9635    8.7399 H   0  0  0  0  0  0  0  0  0  0  0  0
    0.1229    3.8877    9.5495 H   0  0  0  0  0  0  0  0  0  0  0  0
    3.6489   -0.5701    9.3660 H   0  0  0  0  0  0  0  0  0  0  0  0
    3.1725    0.8587   10.2192 H   0  0  0  0  0  0  0  0  0  0  0  0
    3.6932    1.0083    8.5882 H   0  0  0  0  0  0  0  0  0  0  0  0
    1.2957   -1.5130   10.1771 H   0  0  0  0  0  0  0  0  0  0  0  0
   -0.1253   -0.4935    9.9504 H   0  0  0  0  0  0  0  0  0  0  0  0
    1.1794    0.0485   10.9609 H   0  0  0  0  0  0  0  0  0  0  0  0
   -0.0035   -2.0815    6.9342 H   0  0  0  0  0  0  0  0  0  0  0  0
    3.2503   -2.0075    7.8552 H   0  0  0  0  0  0  0  0  0  0  0  0
    1.8492   -2.8642    8.2723 H   0  0  0  0  0  0  0  0  0  0  0  0
    2.9483   -3.9374    6.3516 H   0  0  0  0  0  0  0  0  0  0  0  0
    1.4423   -3.3536    5.7684 H   0  0  0  0  0  0  0  0  0  0  0  0
    5.0237   -2.0610    4.5775 H   0  0  0  0  0  0  0  0  0  0  0  0
    4.9985   -1.2629    1.4779 H   0  0  0  0  0  0  0  0  0  0  0  0
    4.7860   -2.8812    2.1198 H   0  0  0  0  0  0  0  0  0  0  0  0
    5.4550   -1.6043    3.1169 H   0  0  0  0  0  0  0  0  0  0  0  0
    2.7056   -0.9900    0.7133 H   0  0  0  0  0  0  0  0  0  0  0  0
    1.3311   -1.5770    1.6226 H   0  0  0  0  0  0  0  0  0  0  0  0
    2.5538   -2.6790    1.1130 H   0  0  0  0  0  0  0  0  0  0  0  0
    4.2196    0.1787    3.6318 H   0  0  0  0  0  0  0  0  0  0  0  0
    3.5660    1.5891    2.2579 H   0  0  0  0  0  0  0  0  0  0  0  0
    1.5253    2.0067    1.4457 H   0  0  0  0  0  0  0  0  0  0  0  0
    3.2507    3.1805    3.9981 H   0  0  0  0  0  0  0  0  0  0  0  0
    1.3863    3.7667    2.0204 H   0  0  0  0  0  0  0  0  0  0  0  0
    4.3068    0.9904    5.8264 H   0  0  0  0  0  0  0  0  0  0  0  0
    5.1298   -0.3916    5.6146 H   0  0  0  0  0  0  0  0  0  0  0  0
    4.1427   -0.3026    7.0144 H   0  0  0  0  0  0  0  0  0  0  0  0
    0.8920   -1.3512    5.4391 H   0  0  0  0  0  0  0  0  0  0  0  0
    0.8729   -0.6505    3.3281 H   0  0  0  0  0  0  0  0  0  0  0  0
   -0.2453    0.6482    2.9913 H   0  0  0  0  0  0  0  0  0  0  0  0
   -0.6942   -0.8006    3.8044 H   0  0  0  0  0  0  0  0  0  0  0  0
    2.3395    1.4923    5.0865 H   0  0  0  0  0  0  0  0  0  0  0  0
    2.1877    1.4081    7.0452 H   0  0  0  0  0  0  0  0  0  0  0  0
    3.8218    2.2402    6.1240 H   0  0  0  0  0  0  0  0  0  0  0  0
  1  2  1  0
  1 42  1  0
  1 43  1  0
  1 44  1  0
  2 11  1  0
  2  3  2  3
  3  4  1  0
  3 45  1  0
  4 37  1  0
  4  5  1  0
  4 46  1  6
  5  6  1  0
  5 47  1  0
  5 48  1  0
  6  7  1  0
  6  8  1  0
  6 49  1  6
  7 50  1  0
  7 51  1  0
  7 52  1  0
  8 32  1  0
  8 39  1  0
  8  9  1  1
 10  9  1  6
 10 40  1  0
 10 11  1  0
 10 13  1  0
 11 12  2  0
 13 14  1  0
 13 15  1  0
 13 53  1  6
 14 54  1  0
 15 16  1  0
 16 17  1  0
 16 18  1  0
 16 19  1  0
 17 55  1  0
 17 56  1  0
 17 57  1  0
 18 58  1  0
 18 59  1  0
 18 60  1  0
 19 36  1  0
 19 20  1  1
 19 21  1  0
 20 61  1  0
 21 22  1  0
 21 62  1  0
 21 63  1  0
 22 23  1  0
 22 64  1  0
 22 65  1  0
 23 34  1  0
 23 24  1  6
 23 25  1  0
 24 66  1  0
 25 26  1  0
 26 27  1  0
 26 28  1  0
 26 29  1  0
 27 67  1  0
 27 68  1  0
 27 69  1  0
 28 70  1  0
 28 71  1  0
 28 72  1  0
 29 30  1  0
 29 34  1  0
 29 73  1  1
 30 31  1  0
 30 32  1  0
 30 74  1  6
 31 75  1  0
 32 33  1  0
 32 76  1  1
 33 77  1  0
 34 35  1  1
 34 36  1  0
 35 78  1  0
 35 79  1  0
 35 80  1  0
 36 37  1  0
 36 81  1  6
 37 38  1  6
 37 39  1  0
 38 82  1  0
 38 83  1  0
 38 84  1  0
 39 40  1  0
 39 85  1  6
 40 41  1  0
 40 86  1  1
 41 87  1  0
M  END
>  <i_m_ct_stereo_status>  (167) 
1

>  <s_m_source_file>  (167) 
/var/tmp/pbs.5076255.sched01/tmp276pg2sv/48_ir7zhrj.sdf

>  <i_m_source_file_index>  (167) 
26

>  <i_lp_mmshare_version>  (167) 
48012

>  <i_f3d_flags>  (167) 
2

>  <s_epik_input>  (167) 
W0NIM11bQ0BASF0xW0NIMl1bQ0BASF0oW0NAQF0yKFtDSDNdKVtDQEhdM1tDQEBdMTQ1KVxbQ0hdPUMoXFtDSDNdKUMoPU8pW0NAQF0oTzQpKFtDQEBIXTNbT0hdKVtDQEBIXShbT0hdKU9DKFtDSDNdKShbQ0gzXSlbQ0BAXTYoW09IXSlbQ0BIXTJbQ0BAXTcoW0NIM10pW0NAQF0oW09IXSkoW0NIMl1bQ0gyXTYpT0MoW0NIM10pKFtDSDNdKVtDQEhdN1tDQEBIXShbT0hdKVtDQEhdNVtPSF0=

>  <s_epik_cmdline>  (167) 
J2VwaWtfcHl0aG9uJywgJy1waHQnLCAnMi4wJywgJy1waCcsICc3LjAnLCAnLXRuJywgJzgnLCAnLW1hJywgJzIwMCcsICctaW1hZScsICc8aW5maWxlLm1hZT4nLCAnLW9tYWUnLCAnPG91dGZpbGUubWFlPic=

>  <r_lp_tautomer_probability>  (167) 
1

>  <r_epik_Ionization_Penalty>  (167) 
2.4025e-05

>  <r_epik_Ionization_Penalty_Charging>  (167) 
0

>  <r_epik_Ionization_Penalty_Neutral>  (167) 
2.4025e-05

>  <r_epik_State_Penalty>  (167) 
-0

>  <r_epik_Charging_Adjusted_Penalty>  (167) 
0

>  <i_epik_Tot_Q>  (167) 
0

>  <i_epik_Tot_abs_Q>  (167) 
0

>  <s_epik_Chemistry_Notes>  (167) 
This compound contains an acetal/aminal-like group ( X-CH(R)-Y where X, Y are N, S, or O) that may be acid/base labile, releasing an aldehyde.

>  <s_lp_Force_Field>  (167) 
OPLS3e

>  <r_lp_Energy>  (167) 
452.832

>  <b_lp_Chiralities_Consistent>  (167) 
0

>  <s_lp_Variant>  (167) 
46:0-2

>  <s_i_glide_gridfile>  (167) 
pfpi4k_grid

>  <i_i_glide_lignum>  (167) 
26

>  <i_i_glide_rotatable_bonds>  (167) 
6

>  <r_i_docking_score>  (167) 
-1.58538

>  <r_i_glide_ligand_efficiency>  (167) 
-0.0386677

>  <r_i_glide_ligand_efficiency_sa>  (167) 
-0.133335

>  <r_i_glide_ligand_efficiency_ln>  (167) 
-0.336343

>  <r_i_glide_gscore>  (167) 
-1.58538

>  <r_i_glide_lipo>  (167) 
-0.193687

>  <r_i_glide_hbond>  (167) 
0

>  <r_i_glide_metal>  (167) 
-0

>  <r_i_glide_rewards>  (167) 
0

>  <r_i_glide_evdw>  (167) 
-27.4252

>  <r_i_glide_ecoul>  (167) 
-4.22024

>  <r_i_glide_erotb>  (167) 
0

>  <r_i_glide_esite>  (167) 
0

>  <r_i_glide_emodel>  (167) 
-29.6209

>  <r_i_glide_energy>  (167) 
-31.6455

>  <r_i_glide_einternal>  (167) 
1.1555

>  <r_i_glide_intrahb_reward>  (167) 
-0

>  <i_i_glide_confnum>  (167) 
1

>  <i_i_glide_posenum>  (167) 
1

>  <r_i_glide_eff_state_penalty>  (167) 
0

>  <ligand_id>  (167) 
46

>  <original_smiles>  (167) 
CC1=CC2CC(C)C34OC5(C1=O)C(O)OC(C)(C)C1(O)CCC6(O)OC(C)(C)C(C(O)C3O)C6(C)C1C2(C)C4C5O

>  <smiles>  (167) 
[H]OC1([H])OC(C([H])([H])[H])(C([H])([H])[H])C2(O[H])C([H])([H])C([H])([H])C3(O[H])OC(C([H])([H])[H])(C([H])([H])[H])C4([H])C([H])(O[H])C([H])(O[H])C56OC17C(=O)C(C([H])([H])[H])=C([H])C([H])(C([H])([H])C5([H])C([H])([H])[H])C(C([H])([H])[H])(C6([H])C7([H])O[H])C2([H])C34C([H])([H])[H]

$$$$
46:1:1
     RDKit          3D

 87 93  0  0  1  0  0  0  0  0999 V2000
   -3.0901    2.8907    7.7224 C   0  0  0  0  0  0  0  0  0  0  0  0
   -1.6383    2.4559    7.5012 C   0  0  0  0  0  0  0  0  0  0  0  0
   -1.4295    1.2596    6.9298 C   0  0  0  0  0  0  0  0  0  0  0  0
   -1.0211    1.0571    5.5185 C   0  0  1  0  0  0  0  0  0  0  0  0
   -1.4733    2.2613    4.6013 C   0  0  0  0  0  0  0  0  0  0  0  0
   -0.3463    3.1785    3.9948 C   0  0  1  0  0  0  0  0  0  0  0  0
   -0.8664    4.6043    3.7310 C   0  0  0  0  0  0  0  0  0  0  0  0
    1.1041    3.0819    4.6043 C   0  0  2  0  0  0  0  0  0  0  0  0
    1.3104    3.9373    5.8651 O   0  0  0  0  0  0  0  0  0  0  0  0
    0.8758    3.2712    7.1577 C   0  0  2  0  0  0  0  0  0  0  0  0
   -0.6494    3.5011    7.2675 C   0  0  0  0  0  0  0  0  0  0  0  0
   -0.9962    4.6859    7.2258 O   0  0  0  0  0  0  0  0  0  0  0  0
    1.4675    2.9131    8.6185 C   0  0  1  0  0  0  0  0  0  0  0  0
    1.0409    3.8739    9.5664 O   0  0  0  0  0  0  0  0  0  0  0  0
    0.9355    1.5716    8.9599 O   0  0  0  0  0  0  0  0  0  0  0  0
    1.5290    0.1848    8.8284 C   0  0  0  0  0  0  0  0  0  0  0  0
    3.0171    0.3450    9.2768 C   0  0  0  0  0  0  0  0  0  0  0  0
    0.8455   -0.4595   10.0622 C   0  0  0  0  0  0  0  0  0  0  0  0
    1.2707   -0.8461    7.4773 C   0  0  2  0  0  0  0  0  0  0  0  0
   -0.0483   -1.3661    7.6053 O   0  0  0  0  0  0  0  0  0  0  0  0
    2.0968   -2.2108    7.5459 C   0  0  0  0  0  0  0  0  0  0  0  0
    2.2439   -3.0400    6.2018 C   0  0  0  0  0  0  0  0  0  0  0  0
    3.0410   -2.2349    5.0935 C   0  0  1  0  0  0  0  0  0  0  0  0
    4.3805   -2.6584    5.2437 O   0  0  0  0  0  0  0  0  0  0  0  0
    2.6138   -2.5067    3.7861 O   0  0  0  0  0  0  0  0  0  0  0  0
    3.1321   -1.5314    2.8359 C   0  0  0  0  0  0  0  0  0  0  0  0
    4.5798   -1.9183    2.4111 C   0  0  0  0  0  0  0  0  0  0  0  0
    2.2933   -1.7244    1.5480 C   0  0  0  0  0  0  0  0  0  0  0  0
    3.0806   -0.1515    3.6321 C   0  0  1  0  0  0  0  0  0  0  0  0
    2.6371    1.3089    2.8707 C   0  0  1  0  0  0  0  0  0  0  0  0
    1.7239    1.1282    1.8116 O   0  0  0  0  0  0  0  0  0  0  0  0
    2.3092    2.8304    3.5114 C   0  0  1  0  0  0  0  0  0  0  0  0
    2.2076    3.7932    2.4804 O   0  0  0  0  0  0  0  0  0  0  0  0
    2.8351   -0.6792    5.1776 C   0  0  2  0  0  0  0  0  0  0  0  0
    4.0589   -0.1260    6.0004 C   0  0  0  0  0  0  0  0  0  0  0  0
    1.3302   -0.5116    5.8774 C   0  0  2  0  0  0  0  0  0  0  0  0
    0.4016    0.5834    5.1799 C   0  0  1  0  0  0  0  0  0  0  0  0
    0.0097   -0.0392    3.7764 C   0  0  0  0  0  0  0  0  0  0  0  0
    1.3180    1.8091    5.2832 C   0  0  2  0  0  0  0  0  0  0  0  0
    1.8294    2.2576    6.5556 C   0  0  1  0  0  0  0  0  0  0  0  0
    3.1991    2.8008    6.5501 O   0  0  0  0  0  0  0  0  0  0  0  0
   -3.3428    3.0024    8.7710 H   0  0  0  0  0  0  0  0  0  0  0  0
   -3.7889    2.1762    7.2970 H   0  0  0  0  0  0  0  0  0  0  0  0
   -3.3108    3.8145    7.1954 H   0  0  0  0  0  0  0  0  0  0  0  0
   -2.3808    0.7966    6.8475 H   0  0  0  0  0  0  0  0  0  0  0  0
   -1.7131    0.2371    5.2743 H   0  0  0  0  0  0  0  0  0  0  0  0
   -2.0486    1.8642    3.7572 H   0  0  0  0  0  0  0  0  0  0  0  0
   -2.2276    2.8751    5.1025 H   0  0  0  0  0  0  0  0  0  0  0  0
   -0.2345    2.7942    2.9880 H   0  0  0  0  0  0  0  0  0  0  0  0
   -1.0685    5.1535    4.6484 H   0  0  0  0  0  0  0  0  0  0  0  0
   -1.7932    4.5717    3.1529 H   0  0  0  0  0  0  0  0  0  0  0  0
   -0.1504    5.1811    3.1492 H   0  0  0  0  0  0  0  0  0  0  0  0
    2.5487    2.9474    8.7538 H   0  0  0  0  0  0  0  0  0  0  0  0
    1.4261    3.6594   10.4027 H   0  0  0  0  0  0  0  0  0  0  0  0
    3.5345   -0.6055    9.4013 H   0  0  0  0  0  0  0  0  0  0  0  0
    3.0878    0.8376   10.2475 H   0  0  0  0  0  0  0  0  0  0  0  0
    3.6146    0.9678    8.6158 H   0  0  0  0  0  0  0  0  0  0  0  0
    1.1572   -1.4933   10.2103 H   0  0  0  0  0  0  0  0  0  0  0  0
   -0.2394   -0.4442    9.9728 H   0  0  0  0  0  0  0  0  0  0  0  0
    1.0716    0.0737   10.9878 H   0  0  0  0  0  0  0  0  0  0  0  0
   -0.1513   -2.0348    6.9419 H   0  0  0  0  0  0  0  0  0  0  0  0
    3.1076   -2.0434    7.8976 H   0  0  0  0  0  0  0  0  0  0  0  0
    1.6889   -2.8695    8.3169 H   0  0  0  0  0  0  0  0  0  0  0  0
    2.7683   -3.9778    6.4069 H   0  0  0  0  0  0  0  0  0  0  0  0
    1.2812   -3.3628    5.8110 H   0  0  0  0  0  0  0  0  0  0  0  0
    4.3925   -3.5993    5.1620 H   0  0  0  0  0  0  0  0  0  0  0  0
    4.8973   -1.3709    1.5229 H   0  0  0  0  0  0  0  0  0  0  0  0
    4.6457   -2.9812    2.1723 H   0  0  0  0  0  0  0  0  0  0  0  0
    5.3322   -1.7160    3.1710 H   0  0  0  0  0  0  0  0  0  0  0  0
    2.6159   -1.0537    0.7487 H   0  0  0  0  0  0  0  0  0  0  0  0
    1.2191   -1.6030    1.6563 H   0  0  0  0  0  0  0  0  0  0  0  0
    2.4182   -2.7346    1.1569 H   0  0  0  0  0  0  0  0  0  0  0  0
    4.1395    0.0981    3.6669 H   0  0  0  0  0  0  0  0  0  0  0  0
    3.5278    1.5201    2.2812 H   0  0  0  0  0  0  0  0  0  0  0  0
    1.4932    1.9738    1.4579 H   0  0  0  0  0  0  0  0  0  0  0  0
    3.2347    3.1212    4.0095 H   0  0  0  0  0  0  0  0  0  0  0  0
    1.3758    3.7455    2.0398 H   0  0  0  0  0  0  0  0  0  0  0  0
    4.2306    0.9238    5.8606 H   0  0  0  0  0  0  0  0  0  0  0  0
    5.0276   -0.4782    5.6536 H   0  0  0  0  0  0  0  0  0  0  0  0
    4.0409   -0.3600    7.0514 H   0  0  0  0  0  0  0  0  0  0  0  0
    0.7744   -1.3515    5.4690 H   0  0  0  0  0  0  0  0  0  0  0  0
    0.7685   -0.6576    3.3570 H   0  0  0  0  0  0  0  0  0  0  0  0
   -0.3155    0.6619    3.0085 H   0  0  0  0  0  0  0  0  0  0  0  0
   -0.8031   -0.7704    3.8279 H   0  0  0  0  0  0  0  0  0  0  0  0
    2.2755    1.4568    5.1067 H   0  0  0  0  0  0  0  0  0  0  0  0
    2.1222    1.3940    7.0668 H   0  0  0  0  0  0  0  0  0  0  0  0
    3.1943    3.5797    6.0141 H   0  0  0  0  0  0  0  0  0  0  0  0
  1  2  1  0
  1 42  1  0
  1 43  1  0
  1 44  1  0
  2 11  1  0
  2  3  2  3
  3  4  1  0
  3 45  1  0
  4 37  1  0
  4  5  1  0
  4 46  1  6
  5  6  1  0
  5 47  1  0
  5 48  1  0
  6  7  1  0
  6  8  1  0
  6 49  1  6
  7 50  1  0
  7 51  1  0
  7 52  1  0
  8 32  1  0
  8 39  1  0
  8  9  1  1
 10  9  1  6
 10 40  1  0
 10 11  1  0
 10 13  1  0
 11 12  2  0
 13 14  1  0
 13 15  1  0
 13 53  1  6
 14 54  1  0
 15 16  1  0
 16 17  1  0
 16 18  1  0
 16 19  1  0
 17 55  1  0
 17 56  1  0
 17 57  1  0
 18 58  1  0
 18 59  1  0
 18 60  1  0
 19 36  1  0
 19 20  1  1
 19 21  1  0
 20 61  1  0
 21 22  1  0
 21 62  1  0
 21 63  1  0
 22 23  1  0
 22 64  1  0
 22 65  1  0
 23 34  1  0
 23 24  1  6
 23 25  1  0
 24 66  1  0
 25 26  1  0
 26 27  1  0
 26 28  1  0
 26 29  1  0
 27 67  1  0
 27 68  1  0
 27 69  1  0
 28 70  1  0
 28 71  1  0
 28 72  1  0
 29 30  1  0
 29 34  1  0
 29 73  1  1
 30 31  1  0
 30 32  1  0
 30 74  1  6
 31 75  1  0
 32 33  1  0
 32 76  1  1
 33 77  1  0
 34 35  1  1
 34 36  1  0
 35 78  1  0
 35 79  1  0
 35 80  1  0
 36 37  1  0
 36 81  1  6
 37 38  1  6
 37 39  1  0
 38 82  1  0
 38 83  1  0
 38 84  1  0
 39 40  1  0
 39 85  1  6
 40 41  1  0
 40 86  1  1
 41 87  1  0
M  END
>  <i_m_ct_stereo_status>  (168) 
1

>  <s_m_source_file>  (168) 
/var/tmp/pbs.5076255.sched01/tmp276pg2sv/48_ir7zhrj.sdf

>  <i_m_source_file_index>  (168) 
26

>  <i_lp_mmshare_version>  (168) 
48012

>  <i_f3d_flags>  (168) 
2

>  <s_epik_input>  (168) 
W0NIM11bQ0BASF0xW0NIMl1bQ0BASF0oW0NAQF0yKFtDSDNdKVtDQEhdM1tDQEBdMTQ1KVxbQ0hdPUMoXFtDSDNdKUMoPU8pW0NAQF0oTzQpKFtDQEBIXTNbT0hdKVtDQEBIXShbT0hdKU9DKFtDSDNdKShbQ0gzXSlbQ0BAXTYoW09IXSlbQ0BIXTJbQ0BAXTcoW0NIM10pW0NAQF0oW09IXSkoW0NIMl1bQ0gyXTYpT0MoW0NIM10pKFtDSDNdKVtDQEhdN1tDQEBIXShbT0hdKVtDQEhdNVtPSF0=

>  <s_epik_cmdline>  (168) 
J2VwaWtfcHl0aG9uJywgJy1waHQnLCAnMi4wJywgJy1waCcsICc3LjAnLCAnLXRuJywgJzgnLCAnLW1hJywgJzIwMCcsICctaW1hZScsICc8aW5maWxlLm1hZT4nLCAnLW9tYWUnLCAnPG91dGZpbGUubWFlPic=

>  <r_lp_tautomer_probability>  (168) 
1

>  <r_epik_Ionization_Penalty>  (168) 
2.4025e-05

>  <r_epik_Ionization_Penalty_Charging>  (168) 
0

>  <r_epik_Ionization_Penalty_Neutral>  (168) 
2.4025e-05

>  <r_epik_State_Penalty>  (168) 
-0

>  <r_epik_Charging_Adjusted_Penalty>  (168) 
0

>  <i_epik_Tot_Q>  (168) 
0

>  <i_epik_Tot_abs_Q>  (168) 
0

>  <s_epik_Chemistry_Notes>  (168) 
This compound contains an acetal/aminal-like group ( X-CH(R)-Y where X, Y are N, S, or O) that may be acid/base labile, releasing an aldehyde.

>  <s_lp_Force_Field>  (168) 
OPLS3e

>  <r_lp_Energy>  (168) 
452.832

>  <b_lp_Chiralities_Consistent>  (168) 
0

>  <s_lp_Variant>  (168) 
46:0-2

>  <s_i_glide_gridfile>  (168) 
pfpi4k_grid

>  <i_i_glide_lignum>  (168) 
26

>  <i_i_glide_rotatable_bonds>  (168) 
6

>  <r_i_docking_score>  (168) 
-1.36012

>  <r_i_glide_ligand_efficiency>  (168) 
-0.0331736

>  <r_i_glide_ligand_efficiency_sa>  (168) 
-0.11439

>  <r_i_glide_ligand_efficiency_ln>  (168) 
-0.288553

>  <r_i_glide_gscore>  (168) 
-1.36012

>  <r_i_glide_lipo>  (168) 
-0.17394

>  <r_i_glide_hbond>  (168) 
0

>  <r_i_glide_metal>  (168) 
-0

>  <r_i_glide_rewards>  (168) 
0

>  <r_i_glide_evdw>  (168) 
-27.4073

>  <r_i_glide_ecoul>  (168) 
-4.73741

>  <r_i_glide_erotb>  (168) 
0

>  <r_i_glide_esite>  (168) 
0

>  <r_i_glide_emodel>  (168) 
-29.1695

>  <r_i_glide_energy>  (168) 
-32.1447

>  <r_i_glide_einternal>  (168) 
1.05849

>  <r_i_glide_intrahb_reward>  (168) 
-0

>  <i_i_glide_confnum>  (168) 
1

>  <i_i_glide_posenum>  (168) 
37

>  <r_i_glide_eff_state_penalty>  (168) 
0

>  <ligand_id>  (168) 
46

>  <original_smiles>  (168) 
CC1=CC2CC(C)C34OC5(C1=O)C(O)OC(C)(C)C1(O)CCC6(O)OC(C)(C)C(C(O)C3O)C6(C)C1C2(C)C4C5O

>  <smiles>  (168) 
[H]OC1([H])OC(C([H])([H])[H])(C([H])([H])[H])C2(O[H])C([H])([H])C([H])([H])C3(O[H])OC(C([H])([H])[H])(C([H])([H])[H])C4([H])C([H])(O[H])C([H])(O[H])C56OC17C(=O)C(C([H])([H])[H])=C([H])C([H])(C([H])([H])C5([H])C([H])([H])[H])C(C([H])([H])[H])(C6([H])C7([H])O[H])C2([H])C34C([H])([H])[H]

$$$$
46:1:2
     RDKit          3D

 87 93  0  0  1  0  0  0  0  0999 V2000
   -1.1869   -3.9034    7.2569 C   0  0  0  0  0  0  0  0  0  0  0  0
    0.1634   -4.1662    6.5904 C   0  0  0  0  0  0  0  0  0  0  0  0
    0.2530   -4.0988    5.2653 C   0  0  0  0  0  0  0  0  0  0  0  0
    0.8569   -2.9491    4.5451 C   0  0  1  0  0  0  0  0  0  0  0  0
    0.8197   -1.6068    5.3853 C   0  0  0  0  0  0  0  0  0  0  0  0
    2.1983   -1.0310    5.8828 C   0  0  1  0  0  0  0  0  0  0  0  0
    2.0204   -0.2176    7.1770 C   0  0  0  0  0  0  0  0  0  0  0  0
    3.4705   -1.9645    5.8201 C   0  0  2  0  0  0  0  0  0  0  0  0
    3.6020   -2.8990    7.0355 O   0  0  0  0  0  0  0  0  0  0  0  0
    2.8187   -4.1963    6.9193 C   0  0  2  0  0  0  0  0  0  0  0  0
    1.3717   -3.8617    7.3621 C   0  0  0  0  0  0  0  0  0  0  0  0
    1.2723   -3.3719    8.4931 O   0  0  0  0  0  0  0  0  0  0  0  0
    3.0565   -5.7937    7.0266 C   0  0  1  0  0  0  0  0  0  0  0  0
    2.6648   -6.2659    8.3018 O   0  0  0  0  0  0  0  0  0  0  0  0
    2.2190   -6.4051    5.9660 O   0  0  0  0  0  0  0  0  0  0  0  0
    2.5460   -6.8635    4.5591 C   0  0  0  0  0  0  0  0  0  0  0  0
    3.9304   -7.5753    4.6798 C   0  0  0  0  0  0  0  0  0  0  0  0
    1.5375   -8.0392    4.4774 C   0  0  0  0  0  0  0  0  0  0  0  0
    2.3362   -5.8872    3.1576 C   0  0  2  0  0  0  0  0  0  0  0  0
    0.9336   -5.8492    2.9025 O   0  0  0  0  0  0  0  0  0  0  0  0
    2.8508   -6.5722    1.8085 C   0  0  0  0  0  0  0  0  0  0  0  0
    3.0746   -5.6329    0.5509 C   0  0  0  0  0  0  0  0  0  0  0  0
    4.1961   -4.5486    0.8127 C   0  0  1  0  0  0  0  0  0  0  0  0
    5.3755   -5.1373    0.3082 O   0  0  0  0  0  0  0  0  0  0  0  0
    3.9691   -3.3268    0.1610 O   0  0  0  0  0  0  0  0  0  0  0  0
    4.8310   -2.2669    0.6677 C   0  0  0  0  0  0  0  0  0  0  0  0
    6.2259   -2.3432   -0.0202 C   0  0  0  0  0  0  0  0  0  0  0  0
    4.2129   -0.9412    0.1423 C   0  0  0  0  0  0  0  0  0  0  0  0
    4.9091   -2.5578    2.2332 C   0  0  1  0  0  0  0  0  0  0  0  0
    4.9187   -1.2926    3.3790 C   0  0  1  0  0  0  0  0  0  0  0  0
    4.1969   -0.1589    2.9476 O   0  0  0  0  0  0  0  0  0  0  0  0
    4.7799   -1.3291    5.0576 C   0  0  1  0  0  0  0  0  0  0  0  0
    5.0517   -0.0474    5.6083 O   0  0  0  0  0  0  0  0  0  0  0  0
    4.2892   -4.0903    2.3119 C   0  0  2  0  0  0  0  0  0  0  0  0
    5.4292   -4.9580    2.9670 C   0  0  0  0  0  0  0  0  0  0  0  0
    2.7456   -4.3238    2.9027 C   0  0  2  0  0  0  0  0  0  0  0  0
    2.1921   -3.1165    3.7914 C   0  0  1  0  0  0  0  0  0  0  0  0
    1.9443   -1.9268    2.7698 C   0  0  0  0  0  0  0  0  0  0  0  0
    3.2991   -3.0420    4.8510 C   0  0  2  0  0  0  0  0  0  0  0  0
    3.6555   -4.1909    5.6500 C   0  0  1  0  0  0  0  0  0  0  0  0
    5.0819   -4.3390    5.9860 O   0  0  0  0  0  0  0  0  0  0  0  0
   -1.5855   -4.7783    7.7569 H   0  0  0  0  0  0  0  0  0  0  0  0
   -1.9191   -3.5750    6.5277 H   0  0  0  0  0  0  0  0  0  0  0  0
   -1.1115   -3.0821    7.9609 H   0  0  0  0  0  0  0  0  0  0  0  0
   -0.6940   -3.9445    4.8547 H   0  0  0  0  0  0  0  0  0  0  0  0
    0.0681   -2.8103    3.7846 H   0  0  0  0  0  0  0  0  0  0  0  0
    0.3379   -0.8239    4.7805 H   0  0  0  0  0  0  0  0  0  0  0  0
    0.1225   -1.7047    6.2211 H   0  0  0  0  0  0  0  0  0  0  0  0
    2.4105   -0.2563    5.1572 H   0  0  0  0  0  0  0  0  0  0  0  0
    1.7642   -0.8384    8.0335 H   0  0  0  0  0  0  0  0  0  0  0  0
    1.2226    0.5199    7.0612 H   0  0  0  0  0  0  0  0  0  0  0  0
    2.9292    0.3270    7.4180 H   0  0  0  0  0  0  0  0  0  0  0  0
    4.0798   -6.1644    6.9703 H   0  0  0  0  0  0  0  0  0  0  0  0
    2.9073   -7.1768    8.3685 H   0  0  0  0  0  0  0  0  0  0  0  0
    4.2184   -8.1116    3.7762 H   0  0  0  0  0  0  0  0  0  0  0  0
    3.9187   -8.3283    5.4684 H   0  0  0  0  0  0  0  0  0  0  0  0
    4.7466   -6.9114    4.9524 H   0  0  0  0  0  0  0  0  0  0  0  0
    1.6075   -8.5746    3.5303 H   0  0  0  0  0  0  0  0  0  0  0  0
    0.5094   -7.6990    4.5936 H   0  0  0  0  0  0  0  0  0  0  0  0
    1.6938   -8.7758    5.2678 H   0  0  0  0  0  0  0  0  0  0  0  0
    0.5091   -5.4483    3.6462 H   0  0  0  0  0  0  0  0  0  0  0  0
    3.7936   -7.0815    1.9681 H   0  0  0  0  0  0  0  0  0  0  0  0
    2.1874   -7.3925    1.5234 H   0  0  0  0  0  0  0  0  0  0  0  0
    3.3556   -6.2354   -0.3165 H   0  0  0  0  0  0  0  0  0  0  0  0
    2.1544   -5.1498    0.2413 H   0  0  0  0  0  0  0  0  0  0  0  0
    5.1985   -5.4103   -0.5764 H   0  0  0  0  0  0  0  0  0  0  0  0
    6.7982   -1.4301    0.1411 H   0  0  0  0  0  0  0  0  0  0  0  0
    6.1222   -2.4764   -1.0982 H   0  0  0  0  0  0  0  0  0  0  0  0
    6.8517   -3.1569    0.3420 H   0  0  0  0  0  0  0  0  0  0  0  0
    4.7959   -0.0716    0.4457 H   0  0  0  0  0  0  0  0  0  0  0  0
    3.1787   -0.7552    0.4194 H   0  0  0  0  0  0  0  0  0  0  0  0
    4.2060   -0.9362   -0.9485 H   0  0  0  0  0  0  0  0  0  0  0  0
    5.9718   -2.7617    2.3454 H   0  0  0  0  0  0  0  0  0  0  0  0
    5.9307   -0.8988    3.2618 H   0  0  0  0  0  0  0  0  0  0  0  0
    3.2798   -0.3850    2.9110 H   0  0  0  0  0  0  0  0  0  0  0  0
    5.6381   -1.9146    5.3923 H   0  0  0  0  0  0  0  0  0  0  0  0
    5.8736    0.2590    5.2599 H   0  0  0  0  0  0  0  0  0  0  0  0
    5.8245   -4.5388    3.8724 H   0  0  0  0  0  0  0  0  0  0  0  0
    6.3562   -4.9773    2.3985 H   0  0  0  0  0  0  0  0  0  0  0  0
    5.1765   -5.9939    3.1185 H   0  0  0  0  0  0  0  0  0  0  0  0
    2.1144   -4.0852    2.0500 H   0  0  0  0  0  0  0  0  0  0  0  0
    2.6301   -1.9196    1.9511 H   0  0  0  0  0  0  0  0  0  0  0  0
    1.9020   -0.9239    3.1931 H   0  0  0  0  0  0  0  0  0  0  0  0
    1.0035   -2.0241    2.2191 H   0  0  0  0  0  0  0  0  0  0  0  0
    4.1835   -3.2165    4.3425 H   0  0  0  0  0  0  0  0  0  0  0  0
    3.6700   -5.0005    4.9899 H   0  0  0  0  0  0  0  0  0  0  0  0
    5.3009   -3.6353    6.5764 H   0  0  0  0  0  0  0  0  0  0  0  0
  1  2  1  0
  1 42  1  0
  1 43  1  0
  1 44  1  0
  2 11  1  0
  2  3  2  3
  3  4  1  0
  3 45  1  0
  4 37  1  0
  4  5  1  0
  4 46  1  6
  5  6  1  0
  5 47  1  0
  5 48  1  0
  6  7  1  0
  6  8  1  0
  6 49  1  6
  7 50  1  0
  7 51  1  0
  7 52  1  0
  8 32  1  0
  8 39  1  0
  8  9  1  1
 10  9  1  1
 10 40  1  0
 10 11  1  0
 10 13  1  0
 11 12  2  0
 13 14  1  0
 13 15  1  0
 13 53  1  6
 14 54  1  0
 15 16  1  0
 16 17  1  0
 16 18  1  0
 16 19  1  0
 17 55  1  0
 17 56  1  0
 17 57  1  0
 18 58  1  0
 18 59  1  0
 18 60  1  0
 19 36  1  0
 19 20  1  6
 19 21  1  0
 20 61  1  0
 21 22  1  0
 21 62  1  0
 21 63  1  0
 22 23  1  0
 22 64  1  0
 22 65  1  0
 23 34  1  0
 23 24  1  6
 23 25  1  0
 24 66  1  0
 25 26  1  0
 26 27  1  0
 26 28  1  0
 26 29  1  0
 27 67  1  0
 27 68  1  0
 27 69  1  0
 28 70  1  0
 28 71  1  0
 28 72  1  0
 29 30  1  0
 29 34  1  0
 29 73  1  6
 30 31  1  0
 30 32  1  0
 30 74  1  1
 31 75  1  0
 32 33  1  0
 32 76  1  1
 33 77  1  0
 34 35  1  1
 34 36  1  0
 35 78  1  0
 35 79  1  0
 35 80  1  0
 36 37  1  0
 36 81  1  6
 37 38  1  6
 37 39  1  0
 38 82  1  0
 38 83  1  0
 38 84  1  0
 39 40  1  0
 39 85  1  6
 40 41  1  0
 40 86  1  6
 41 87  1  0
M  END
>  <i_m_ct_stereo_status>  (169) 
1

>  <s_m_source_file>  (169) 
/var/tmp/pbs.5076255.sched01/tmp276pg2sv/48_ir7zhrj.sdf

>  <i_m_source_file_index>  (169) 
26

>  <i_lp_mmshare_version>  (169) 
48012

>  <i_f3d_flags>  (169) 
2

>  <s_epik_input>  (169) 
W0NIM11bQ0BASF0xW0NIMl1bQ0BASF0oW0NAQF0yKFtDSDNdKVtDQEhdM1tDQEBdMTQ1KVxbQ0hdPUMoXFtDSDNdKUMoPU8pW0NAQF0oTzQpKFtDQEBIXTNbT0hdKVtDQEBIXShbT0hdKU9DKFtDSDNdKShbQ0gzXSlbQ0BAXTYoW09IXSlbQ0BIXTJbQ0BAXTcoW0NIM10pW0NAQF0oW09IXSkoW0NIMl1bQ0gyXTYpT0MoW0NIM10pKFtDSDNdKVtDQEhdN1tDQEBIXShbT0hdKVtDQEhdNVtPSF0=

>  <s_epik_cmdline>  (169) 
J2VwaWtfcHl0aG9uJywgJy1waHQnLCAnMi4wJywgJy1waCcsICc3LjAnLCAnLXRuJywgJzgnLCAnLW1hJywgJzIwMCcsICctaW1hZScsICc8aW5maWxlLm1hZT4nLCAnLW9tYWUnLCAnPG91dGZpbGUubWFlPic=

>  <r_lp_tautomer_probability>  (169) 
1

>  <r_epik_Ionization_Penalty>  (169) 
2.4025e-05

>  <r_epik_Ionization_Penalty_Charging>  (169) 
0

>  <r_epik_Ionization_Penalty_Neutral>  (169) 
2.4025e-05

>  <r_epik_State_Penalty>  (169) 
-0

>  <r_epik_Charging_Adjusted_Penalty>  (169) 
0

>  <i_epik_Tot_Q>  (169) 
0

>  <i_epik_Tot_abs_Q>  (169) 
0

>  <s_epik_Chemistry_Notes>  (169) 
This compound contains an acetal/aminal-like group ( X-CH(R)-Y where X, Y are N, S, or O) that may be acid/base labile, releasing an aldehyde.

>  <s_lp_Force_Field>  (169) 
OPLS3e

>  <r_lp_Energy>  (169) 
452.832

>  <b_lp_Chiralities_Consistent>  (169) 
0

>  <s_lp_Variant>  (169) 
46:0-2

>  <s_i_glide_gridfile>  (169) 
pfpi4k_grid

>  <i_i_glide_lignum>  (169) 
26

>  <i_i_glide_rotatable_bonds>  (169) 
6

>  <r_i_docking_score>  (169) 
-1.26436

>  <r_i_glide_ligand_efficiency>  (169) 
-0.0308381

>  <r_i_glide_ligand_efficiency_sa>  (169) 
-0.106336

>  <r_i_glide_ligand_efficiency_ln>  (169) 
-0.268239

>  <r_i_glide_gscore>  (169) 
-1.26436

>  <r_i_glide_lipo>  (169) 
-0.215463

>  <r_i_glide_hbond>  (169) 
0

>  <r_i_glide_metal>  (169) 
-0

>  <r_i_glide_rewards>  (169) 
-0.0385112

>  <r_i_glide_evdw>  (169) 
-27.5589

>  <r_i_glide_ecoul>  (169) 
-2.81075

>  <r_i_glide_erotb>  (169) 
0

>  <r_i_glide_esite>  (169) 
-0.000237635

>  <r_i_glide_emodel>  (169) 
-27.5119

>  <r_i_glide_energy>  (169) 
-30.3696

>  <r_i_glide_einternal>  (169) 
0.750811

>  <r_i_glide_intrahb_reward>  (169) 
-0

>  <i_i_glide_confnum>  (169) 
1

>  <i_i_glide_posenum>  (169) 
19

>  <r_i_glide_eff_state_penalty>  (169) 
0

>  <ligand_id>  (169) 
46

>  <original_smiles>  (169) 
CC1=CC2CC(C)C34OC5(C1=O)C(O)OC(C)(C)C1(O)CCC6(O)OC(C)(C)C(C(O)C3O)C6(C)C1C2(C)C4C5O

>  <smiles>  (169) 
[H]OC1([H])OC(C([H])([H])[H])(C([H])([H])[H])C2(O[H])C([H])([H])C([H])([H])C3(O[H])OC(C([H])([H])[H])(C([H])([H])[H])C4([H])C([H])(O[H])C([H])(O[H])C56OC17C(=O)C(C([H])([H])[H])=C([H])C([H])(C([H])([H])C5([H])C([H])([H])[H])C(C([H])([H])[H])(C6([H])C7([H])O[H])C2([H])C34C([H])([H])[H]

$$$$
46:2:0
     RDKit          3D

 87 93  0  0  1  0  0  0  0  0999 V2000
   -3.4323    3.2492    2.7106 C   0  0  0  0  0  0  0  0  0  0  0  0
   -2.1994    3.0403    3.6136 C   0  0  0  0  0  0  0  0  0  0  0  0
   -2.0818    1.8702    4.3450 C   0  0  0  0  0  0  0  0  0  0  0  0
   -1.1227    1.0541    5.3944 C   0  0  1  0  0  0  0  0  0  0  0  0
   -0.4014    0.0469    4.5506 C   0  0  0  0  0  0  0  0  0  0  0  0
    0.4783    0.8141    3.5825 C   0  0  1  0  0  0  0  0  0  0  0  0
   -0.0211    0.9273    2.1238 C   0  0  0  0  0  0  0  0  0  0  0  0
    1.0241    2.1291    4.2307 C   0  0  2  0  0  0  0  0  0  0  0  0
    0.6841    3.2561    3.4969 O   0  0  0  0  0  0  0  0  0  0  0  0
    0.0467    4.2748    4.2594 C   0  0  2  0  0  0  0  0  0  0  0  0
   -1.2920    4.2994    3.5036 C   0  0  0  0  0  0  0  0  0  0  0  0
   -1.6254    5.3060    2.8775 O   0  0  0  0  0  0  0  0  0  0  0  0
    1.2483    5.3177    4.5989 C   0  0  1  0  0  0  0  0  0  0  0  0
    0.8734    6.6067    4.1585 O   0  0  0  0  0  0  0  0  0  0  0  0
    1.6563    5.4033    6.0175 O   0  0  0  0  0  0  0  0  0  0  0  0
    2.4292    4.5984    7.0391 C   0  0  0  0  0  0  0  0  0  0  0  0
    3.8641    4.5064    6.4879 C   0  0  0  0  0  0  0  0  0  0  0  0
    2.5427    5.8033    8.0168 C   0  0  0  0  0  0  0  0  0  0  0  0
    1.8893    3.2416    7.9337 C   0  0  2  0  0  0  0  0  0  0  0  0
    0.8707    3.8069    8.7302 O   0  0  0  0  0  0  0  0  0  0  0  0
    2.8697    2.8938    9.1341 C   0  0  0  0  0  0  0  0  0  0  0  0
    3.2307    1.3829    9.3639 C   0  0  0  0  0  0  0  0  0  0  0  0
    3.4901    0.7744    7.9801 C   0  0  1  0  0  0  0  0  0  0  0  0
    4.3978    1.6845    7.3697 O   0  0  0  0  0  0  0  0  0  0  0  0
    4.0762   -0.4937    7.9718 O   0  0  0  0  0  0  0  0  0  0  0  0
    4.0205   -0.9364    6.5916 C   0  0  0  0  0  0  0  0  0  0  0  0
    5.4785   -0.8231    6.0591 C   0  0  0  0  0  0  0  0  0  0  0  0
    3.6956   -2.4522    6.5138 C   0  0  0  0  0  0  0  0  0  0  0  0
    2.8693   -0.0430    5.9099 C   0  0  2  0  0  0  0  0  0  0  0  0
    3.3855    0.8662    4.7188 C   0  0  1  0  0  0  0  0  0  0  0  0
    3.7355   -0.0427    3.6843 O   0  0  0  0  0  0  0  0  0  0  0  0
    2.5816    2.0738    4.1231 C   0  0  1  0  0  0  0  0  0  0  0  0
    2.9544    2.1900    2.7573 O   0  0  0  0  0  0  0  0  0  0  0  0
    2.1788    0.5474    7.1967 C   0  0  1  0  0  0  0  0  0  0  0  0
    1.3792   -0.6270    7.8916 C   0  0  0  0  0  0  0  0  0  0  0  0
    1.2090    1.7956    7.3719 C   0  0  2  0  0  0  0  0  0  0  0  0
   -0.2237    1.8021    6.5491 C   0  0  2  0  0  0  0  0  0  0  0  0
   -1.3668    2.1422    7.5788 C   0  0  0  0  0  0  0  0  0  0  0  0
    0.3784    2.7068    5.5814 C   0  0  2  0  0  0  0  0  0  0  0  0
   -0.4894    3.9147    5.5929 C   0  0  1  0  0  0  0  0  0  0  0  0
   -0.5660    4.8410    6.6652 O   0  0  0  0  0  0  0  0  0  0  0  0
   -3.1185    3.2963    1.6786 H   0  0  0  0  0  0  0  0  0  0  0  0
   -3.9867    4.1635    2.8812 H   0  0  0  0  0  0  0  0  0  0  0  0
   -4.1539    2.4498    2.8076 H   0  0  0  0  0  0  0  0  0  0  0  0
   -2.8946    1.2218    4.0938 H   0  0  0  0  0  0  0  0  0  0  0  0
   -1.8408    0.4418    5.9405 H   0  0  0  0  0  0  0  0  0  0  0  0
    0.1383   -0.6669    5.1569 H   0  0  0  0  0  0  0  0  0  0  0  0
   -1.1285   -0.5380    3.9993 H   0  0  0  0  0  0  0  0  0  0  0  0
    1.3015    0.1238    3.4317 H   0  0  0  0  0  0  0  0  0  0  0  0
   -0.9127    1.5341    1.9748 H   0  0  0  0  0  0  0  0  0  0  0  0
   -0.2322   -0.0649    1.7340 H   0  0  0  0  0  0  0  0  0  0  0  0
    0.7476    1.3357    1.4695 H   0  0  0  0  0  0  0  0  0  0  0  0
    2.1602    5.0531    4.0527 H   0  0  0  0  0  0  0  0  0  0  0  0
    0.8555    6.6244    3.2053 H   0  0  0  0  0  0  0  0  0  0  0  0
    4.6036    4.6081    7.2831 H   0  0  0  0  0  0  0  0  0  0  0  0
    4.0627    5.3151    5.7767 H   0  0  0  0  0  0  0  0  0  0  0  0
    4.1092    3.5833    5.9957 H   0  0  0  0  0  0  0  0  0  0  0  0
    3.1151    5.5832    8.9160 H   0  0  0  0  0  0  0  0  0  0  0  0
    1.5774    6.1888    8.3427 H   0  0  0  0  0  0  0  0  0  0  0  0
    3.0445    6.6497    7.5449 H   0  0  0  0  0  0  0  0  0  0  0  0
    0.1545    4.0574    8.1550 H   0  0  0  0  0  0  0  0  0  0  0  0
    3.8007    3.4279    8.9940 H   0  0  0  0  0  0  0  0  0  0  0  0
    2.5168    3.2773   10.0879 H   0  0  0  0  0  0  0  0  0  0  0  0
    4.1503    1.3150    9.9525 H   0  0  0  0  0  0  0  0  0  0  0  0
    2.4556    0.8417    9.9115 H   0  0  0  0  0  0  0  0  0  0  0  0
    4.5112    1.3920    6.4894 H   0  0  0  0  0  0  0  0  0  0  0  0
    5.5692   -1.2013    5.0404 H   0  0  0  0  0  0  0  0  0  0  0  0
    6.1345   -1.4351    6.6779 H   0  0  0  0  0  0  0  0  0  0  0  0
    5.8934    0.1867    6.0781 H   0  0  0  0  0  0  0  0  0  0  0  0
    4.0235   -2.8678    5.5617 H   0  0  0  0  0  0  0  0  0  0  0  0
    2.6367   -2.6882    6.5827 H   0  0  0  0  0  0  0  0  0  0  0  0
    4.2132   -2.9982    7.3036 H   0  0  0  0  0  0  0  0  0  0  0  0
    2.1795   -0.7382    5.4560 H   0  0  0  0  0  0  0  0  0  0  0  0
    4.3436    1.3056    4.9594 H   0  0  0  0  0  0  0  0  0  0  0  0
    2.9515   -0.2886    3.2146 H   0  0  0  0  0  0  0  0  0  0  0  0
    2.9546    2.9965    4.5282 H   0  0  0  0  0  0  0  0  0  0  0  0
    3.8743    2.4555    2.6824 H   0  0  0  0  0  0  0  0  0  0  0  0
    0.5706   -0.9797    7.2618 H   0  0  0  0  0  0  0  0  0  0  0  0
    0.9294   -0.3670    8.8509 H   0  0  0  0  0  0  0  0  0  0  0  0
    1.9733   -1.4916    8.1570 H   0  0  0  0  0  0  0  0  0  0  0  0
    0.7856    1.5515    8.3467 H   0  0  0  0  0  0  0  0  0  0  0  0
   -1.2385    3.0156    8.2128 H   0  0  0  0  0  0  0  0  0  0  0  0
   -1.5017    1.3014    8.2604 H   0  0  0  0  0  0  0  0  0  0  0  0
   -2.3417    2.2974    7.1015 H   0  0  0  0  0  0  0  0  0  0  0  0
    1.3281    3.1140    5.7592 H   0  0  0  0  0  0  0  0  0  0  0  0
   -1.5436    3.7300    5.7318 H   0  0  0  0  0  0  0  0  0  0  0  0
    0.2385    5.3628    6.5866 H   0  0  0  0  0  0  0  0  0  0  0  0
  1  2  1  0
  1 42  1  0
  1 43  1  0
  1 44  1  0
  2 11  1  0
  2  3  2  3
  3  4  1  0
  3 45  1  0
  4 37  1  0
  4  5  1  0
  4 46  1  1
  5  6  1  0
  5 47  1  0
  5 48  1  0
  6  7  1  0
  6  8  1  0
  6 49  1  6
  7 50  1  0
  7 51  1  0
  7 52  1  0
  8 32  1  0
  8 39  1  0
  8  9  1  6
 10  9  1  6
 10 40  1  0
 10 11  1  0
 10 13  1  0
 11 12  2  0
 13 14  1  0
 13 15  1  0
 13 53  1  6
 14 54  1  0
 15 16  1  0
 16 17  1  0
 16 18  1  0
 16 19  1  0
 17 55  1  0
 17 56  1  0
 17 57  1  0
 18 58  1  0
 18 59  1  0
 18 60  1  0
 19 36  1  0
 19 20  1  1
 19 21  1  0
 20 61  1  0
 21 22  1  0
 21 62  1  0
 21 63  1  0
 22 23  1  0
 22 64  1  0
 22 65  1  0
 23 34  1  0
 23 24  1  6
 23 25  1  0
 24 66  1  0
 25 26  1  0
 26 27  1  0
 26 28  1  0
 26 29  1  0
 27 67  1  0
 27 68  1  0
 27 69  1  0
 28 70  1  0
 28 71  1  0
 28 72  1  0
 29 30  1  0
 29 34  1  0
 29 73  1  6
 30 31  1  0
 30 32  1  0
 30 74  1  1
 31 75  1  0
 32 33  1  0
 32 76  1  1
 33 77  1  0
 34 35  1  1
 34 36  1  0
 35 78  1  0
 35 79  1  0
 35 80  1  0
 36 37  1  0
 36 81  1  1
 37 38  1  1
 37 39  1  0
 38 82  1  0
 38 83  1  0
 38 84  1  0
 39 40  1  0
 39 85  1  1
 40 41  1  0
 40 86  1  6
 41 87  1  0
M  END
>  <i_m_ct_stereo_status>  (170) 
1

>  <s_m_source_file>  (170) 
/var/tmp/pbs.5076255.sched01/tmp276pg2sv/48_ir7zhrj.sdf

>  <i_m_source_file_index>  (170) 
27

>  <i_lp_mmshare_version>  (170) 
48012

>  <i_f3d_flags>  (170) 
2

>  <s_epik_input>  (170) 
W0NIM11bQ0BASF0xW0NIMl1bQ0BASF0oW0NAQF0yKFtDSDNdKVtDQEhdM1tDQEBdMTQ1KVxbQ0hdPUMoXFtDSDNdKUMoPU8pW0NAQF0oTzQpKFtDQEBIXTNbT0hdKVtDQEBIXShbT0hdKU9DKFtDSDNdKShbQ0gzXSlbQ0BAXTYoW09IXSlbQ0BIXTJbQ0BAXTcoW0NIM10pW0NAQF0oW09IXSkoW0NIMl1bQ0gyXTYpT0MoW0NIM10pKFtDSDNdKVtDQEhdN1tDQEBIXShbT0hdKVtDQEhdNVtPSF0=

>  <s_epik_cmdline>  (170) 
J2VwaWtfcHl0aG9uJywgJy1waHQnLCAnMi4wJywgJy1waCcsICc3LjAnLCAnLXRuJywgJzgnLCAnLW1hJywgJzIwMCcsICctaW1hZScsICc8aW5maWxlLm1hZT4nLCAnLW9tYWUnLCAnPG91dGZpbGUubWFlPic=

>  <r_lp_tautomer_probability>  (170) 
1

>  <r_epik_Ionization_Penalty>  (170) 
2.4025e-05

>  <r_epik_Ionization_Penalty_Charging>  (170) 
0

>  <r_epik_Ionization_Penalty_Neutral>  (170) 
2.4025e-05

>  <r_epik_State_Penalty>  (170) 
-0

>  <r_epik_Charging_Adjusted_Penalty>  (170) 
0

>  <i_epik_Tot_Q>  (170) 
0

>  <i_epik_Tot_abs_Q>  (170) 
0

>  <s_epik_Chemistry_Notes>  (170) 
This compound contains an acetal/aminal-like group ( X-CH(R)-Y where X, Y are N, S, or O) that may be acid/base labile, releasing an aldehyde.

>  <s_lp_Force_Field>  (170) 
OPLS3e

>  <r_lp_Energy>  (170) 
422.667

>  <b_lp_Chiralities_Consistent>  (170) 
0

>  <s_lp_Variant>  (170) 
46:0-3

>  <s_i_glide_gridfile>  (170) 
pfpi4k_grid

>  <i_i_glide_lignum>  (170) 
27

>  <i_i_glide_rotatable_bonds>  (170) 
6

>  <r_i_docking_score>  (170) 
-3.17032

>  <r_i_glide_ligand_efficiency>  (170) 
-0.0773248

>  <r_i_glide_ligand_efficiency_sa>  (170) 
-0.266633

>  <r_i_glide_ligand_efficiency_ln>  (170) 
-0.672593

>  <r_i_glide_gscore>  (170) 
-3.17032

>  <r_i_glide_lipo>  (170) 
-0.0217673

>  <r_i_glide_hbond>  (170) 
-0.16

>  <r_i_glide_metal>  (170) 
-0

>  <r_i_glide_rewards>  (170) 
-0.5

>  <r_i_glide_evdw>  (170) 
-20.629

>  <r_i_glide_ecoul>  (170) 
-8.88944

>  <r_i_glide_erotb>  (170) 
0

>  <r_i_glide_esite>  (170) 
-0.123684

>  <r_i_glide_emodel>  (170) 
-38.4884

>  <r_i_glide_energy>  (170) 
-29.5185

>  <r_i_glide_einternal>  (170) 
2.5599

>  <r_i_glide_intrahb_reward>  (170) 
-0.5

>  <i_i_glide_confnum>  (170) 
2

>  <i_i_glide_posenum>  (170) 
7

>  <r_i_glide_eff_state_penalty>  (170) 
0

>  <ligand_id>  (170) 
46

>  <original_smiles>  (170) 
CC1=CC2CC(C)C34OC5(C1=O)C(O)OC(C)(C)C1(O)CCC6(O)OC(C)(C)C(C(O)C3O)C6(C)C1C2(C)C4C5O

>  <smiles>  (170) 
[H]OC1([H])OC(C([H])([H])[H])(C([H])([H])[H])C2(O[H])C([H])([H])C([H])([H])C3(O[H])OC(C([H])([H])[H])(C([H])([H])[H])C4([H])C([H])(O[H])C([H])(O[H])C56OC17C(=O)C(C([H])([H])[H])=C([H])C([H])(C([H])([H])C5([H])C([H])([H])[H])C(C([H])([H])[H])(C6([H])C7([H])O[H])C2([H])C34C([H])([H])[H]

$$$$
46:2:1
     RDKit          3D

 87 93  0  0  1  0  0  0  0  0999 V2000
   -3.4082    3.2623    2.7154 C   0  0  0  0  0  0  0  0  0  0  0  0
   -2.1696    3.0553    3.5744 C   0  0  0  0  0  0  0  0  0  0  0  0
   -2.0684    1.8468    4.3005 C   0  0  0  0  0  0  0  0  0  0  0  0
   -1.1079    0.9993    5.3140 C   0  0  1  0  0  0  0  0  0  0  0  0
   -0.4253   -0.0106    4.4366 C   0  0  0  0  0  0  0  0  0  0  0  0
    0.4693    0.7455    3.4756 C   0  0  1  0  0  0  0  0  0  0  0  0
   -0.0639    0.8995    2.0360 C   0  0  0  0  0  0  0  0  0  0  0  0
    1.0550    2.0374    4.1331 C   0  0  2  0  0  0  0  0  0  0  0  0
    0.7297    3.1851    3.4043 O   0  0  0  0  0  0  0  0  0  0  0  0
    0.1295    4.2185    4.1856 C   0  0  2  0  0  0  0  0  0  0  0  0
   -1.2378    4.2982    3.4726 C   0  0  0  0  0  0  0  0  0  0  0  0
   -1.5605    5.3284    2.8818 O   0  0  0  0  0  0  0  0  0  0  0  0
    1.3478    5.2245    4.5543 C   0  0  1  0  0  0  0  0  0  0  0  0
    1.0356    6.5243    4.1197 O   0  0  0  0  0  0  0  0  0  0  0  0
    1.7502    5.2527    5.9874 O   0  0  0  0  0  0  0  0  0  0  0  0
    2.5499    4.4232    6.9705 C   0  0  0  0  0  0  0  0  0  0  0  0
    3.9736    4.3024    6.3869 C   0  0  0  0  0  0  0  0  0  0  0  0
    2.7157    5.6116    7.9637 C   0  0  0  0  0  0  0  0  0  0  0  0
    1.9870    3.0630    7.8534 C   0  0  2  0  0  0  0  0  0  0  0  0
    1.0038    3.6653    8.6689 O   0  0  0  0  0  0  0  0  0  0  0  0
    2.9956    2.6659    9.0193 C   0  0  0  0  0  0  0  0  0  0  0  0
    3.3302    1.1471    9.2146 C   0  0  0  0  0  0  0  0  0  0  0  0
    3.5543    0.5567    7.8240 C   0  0  1  0  0  0  0  0  0  0  0  0
    4.4614    1.4377    7.2071 O   0  0  0  0  0  0  0  0  0  0  0  0
    4.0939   -0.7259    7.7676 O   0  0  0  0  0  0  0  0  0  0  0  0
    4.0095   -1.1484    6.3791 C   0  0  0  0  0  0  0  0  0  0  0  0
    5.4586   -1.0550    5.8313 C   0  0  0  0  0  0  0  0  0  0  0  0
    3.6460   -2.6538    6.2865 C   0  0  0  0  0  0  0  0  0  0  0  0
    2.8728   -0.2084    5.7465 C   0  0  2  0  0  0  0  0  0  0  0  0
    3.3979    0.7062    4.5730 C   0  0  1  0  0  0  0  0  0  0  0  0
    3.6844   -0.1958    3.5069 O   0  0  0  0  0  0  0  0  0  0  0  0
    2.6138    1.9418    3.9991 C   0  0  1  0  0  0  0  0  0  0  0  0
    2.9940    2.0655    2.6323 O   0  0  0  0  0  0  0  0  0  0  0  0
    2.2231    0.3723    7.0580 C   0  0  1  0  0  0  0  0  0  0  0  0
    1.3993   -0.8005    7.7353 C   0  0  0  0  0  0  0  0  0  0  0  0
    1.2712    1.6324    7.2709 C   0  0  2  0  0  0  0  0  0  0  0  0
   -0.1650    1.7164    6.4621 C   0  0  2  0  0  0  0  0  0  0  0  0
   -1.2918    2.0537    7.5213 C   0  0  0  0  0  0  0  0  0  0  0  0
    0.4458    2.6201    5.4972 C   0  0  2  0  0  0  0  0  0  0  0  0
   -0.4003    3.8470    5.5183 C   0  0  1  0  0  0  0  0  0  0  0  0
   -0.5481    4.7961    6.5664 O   0  0  0  0  0  0  0  0  0  0  0  0
   -3.1251    3.3345    1.6827 H   0  0  0  0  0  0  0  0  0  0  0  0
   -3.9560    4.1638    2.9318 H   0  0  0  0  0  0  0  0  0  0  0  0
   -4.1507    2.4781    2.7958 H   0  0  0  0  0  0  0  0  0  0  0  0
   -2.9157    1.2373    4.0660 H   0  0  0  0  0  0  0  0  0  0  0  0
   -1.8198    0.3809    5.8641 H   0  0  0  0  0  0  0  0  0  0  0  0
    0.1093   -0.7450    5.0293 H   0  0  0  0  0  0  0  0  0  0  0  0
   -1.1671   -0.5811    3.8842 H   0  0  0  0  0  0  0  0  0  0  0  0
    1.2657    0.0349    3.2981 H   0  0  0  0  0  0  0  0  0  0  0  0
   -0.9418    1.5312    1.9227 H   0  0  0  0  0  0  0  0  0  0  0  0
   -0.3147   -0.0776    1.6330 H   0  0  0  0  0  0  0  0  0  0  0  0
    0.7028    1.2944    1.3689 H   0  0  0  0  0  0  0  0  0  0  0  0
    2.2436    4.9398    4.0030 H   0  0  0  0  0  0  0  0  0  0  0  0
    0.9517    6.5142    3.1716 H   0  0  0  0  0  0  0  0  0  0  0  0
    4.7327    4.3721    7.1665 H   0  0  0  0  0  0  0  0  0  0  0  0
    4.1816    5.1113    5.6842 H   0  0  0  0  0  0  0  0  0  0  0  0
    4.1855    3.3803    5.8774 H   0  0  0  0  0  0  0  0  0  0  0  0
    3.2940    5.3572    8.8505 H   0  0  0  0  0  0  0  0  0  0  0  0
    1.7605    6.0125    8.3093 H   0  0  0  0  0  0  0  0  0  0  0  0
    3.2286    6.4520    7.4965 H   0  0  0  0  0  0  0  0  0  0  0  0
    0.7150    3.0377    9.3145 H   0  0  0  0  0  0  0  0  0  0  0  0
    3.9386    3.1823    8.8688 H   0  0  0  0  0  0  0  0  0  0  0  0
    2.6936    3.0383    9.9989 H   0  0  0  0  0  0  0  0  0  0  0  0
    4.2473    1.0361    9.7938 H   0  0  0  0  0  0  0  0  0  0  0  0
    2.5498    0.6063    9.7536 H   0  0  0  0  0  0  0  0  0  0  0  0
    5.2385    1.4641    7.7488 H   0  0  0  0  0  0  0  0  0  0  0  0
    5.5265   -1.4162    4.8037 H   0  0  0  0  0  0  0  0  0  0  0  0
    6.1174   -1.6892    6.4279 H   0  0  0  0  0  0  0  0  0  0  0  0
    5.8917   -0.0578    5.8584 H   0  0  0  0  0  0  0  0  0  0  0  0
    3.9480   -3.0635    5.3236 H   0  0  0  0  0  0  0  0  0  0  0  0
    2.5804   -2.8637    6.3622 H   0  0  0  0  0  0  0  0  0  0  0  0
    4.1564   -3.2275    7.0575 H   0  0  0  0  0  0  0  0  0  0  0  0
    2.1503   -0.8698    5.2784 H   0  0  0  0  0  0  0  0  0  0  0  0
    4.3708    1.1206    4.8062 H   0  0  0  0  0  0  0  0  0  0  0  0
    3.8263    0.3451    2.7381 H   0  0  0  0  0  0  0  0  0  0  0  0
    3.0105    2.8511    4.4059 H   0  0  0  0  0  0  0  0  0  0  0  0
    3.8841    2.4422    2.5825 H   0  0  0  0  0  0  0  0  0  0  0  0
    0.5731   -1.1211    7.1102 H   0  0  0  0  0  0  0  0  0  0  0  0
    0.9687   -0.5569    8.7055 H   0  0  0  0  0  0  0  0  0  0  0  0
    1.9735   -1.6879    7.9731 H   0  0  0  0  0  0  0  0  0  0  0  0
    0.8556    1.3828    8.2390 H   0  0  0  0  0  0  0  0  0  0  0  0
   -1.1206    2.9148    8.1545 H   0  0  0  0  0  0  0  0  0  0  0  0
   -1.4324    1.1999    8.1851 H   0  0  0  0  0  0  0  0  0  0  0  0
   -2.2698    2.2296    7.0700 H   0  0  0  0  0  0  0  0  0  0  0  0
    1.4041    2.9939    5.6758 H   0  0  0  0  0  0  0  0  0  0  0  0
   -1.4525    3.6518    5.6871 H   0  0  0  0  0  0  0  0  0  0  0  0
    0.3288    5.1235    6.7493 H   0  0  0  0  0  0  0  0  0  0  0  0
  1  2  1  0
  1 42  1  0
  1 43  1  0
  1 44  1  0
  2 11  1  0
  2  3  2  3
  3  4  1  0
  3 45  1  0
  4 37  1  0
  4  5  1  0
  4 46  1  1
  5  6  1  0
  5 47  1  0
  5 48  1  0
  6  7  1  0
  6  8  1  0
  6 49  1  6
  7 50  1  0
  7 51  1  0
  7 52  1  0
  8 32  1  0
  8 39  1  0
  8  9  1  6
 10  9  1  6
 10 40  1  0
 10 11  1  0
 10 13  1  0
 11 12  2  0
 13 14  1  0
 13 15  1  0
 13 53  1  6
 14 54  1  0
 15 16  1  0
 16 17  1  0
 16 18  1  0
 16 19  1  0
 17 55  1  0
 17 56  1  0
 17 57  1  0
 18 58  1  0
 18 59  1  0
 18 60  1  0
 19 36  1  0
 19 20  1  1
 19 21  1  0
 20 61  1  0
 21 22  1  0
 21 62  1  0
 21 63  1  0
 22 23  1  0
 22 64  1  0
 22 65  1  0
 23 34  1  0
 23 24  1  6
 23 25  1  0
 24 66  1  0
 25 26  1  0
 26 27  1  0
 26 28  1  0
 26 29  1  0
 27 67  1  0
 27 68  1  0
 27 69  1  0
 28 70  1  0
 28 71  1  0
 28 72  1  0
 29 30  1  0
 29 34  1  0
 29 73  1  6
 30 31  1  0
 30 32  1  0
 30 74  1  1
 31 75  1  0
 32 33  1  0
 32 76  1  1
 33 77  1  0
 34 35  1  1
 34 36  1  0
 35 78  1  0
 35 79  1  0
 35 80  1  0
 36 37  1  0
 36 81  1  1
 37 38  1  1
 37 39  1  0
 38 82  1  0
 38 83  1  0
 38 84  1  0
 39 40  1  0
 39 85  1  1
 40 41  1  0
 40 86  1  6
 41 87  1  0
M  END
>  <i_m_ct_stereo_status>  (171) 
1

>  <s_m_source_file>  (171) 
/var/tmp/pbs.5076255.sched01/tmp276pg2sv/48_ir7zhrj.sdf

>  <i_m_source_file_index>  (171) 
27

>  <i_lp_mmshare_version>  (171) 
48012

>  <i_f3d_flags>  (171) 
2

>  <s_epik_input>  (171) 
W0NIM11bQ0BASF0xW0NIMl1bQ0BASF0oW0NAQF0yKFtDSDNdKVtDQEhdM1tDQEBdMTQ1KVxbQ0hdPUMoXFtDSDNdKUMoPU8pW0NAQF0oTzQpKFtDQEBIXTNbT0hdKVtDQEBIXShbT0hdKU9DKFtDSDNdKShbQ0gzXSlbQ0BAXTYoW09IXSlbQ0BIXTJbQ0BAXTcoW0NIM10pW0NAQF0oW09IXSkoW0NIMl1bQ0gyXTYpT0MoW0NIM10pKFtDSDNdKVtDQEhdN1tDQEBIXShbT0hdKVtDQEhdNVtPSF0=

>  <s_epik_cmdline>  (171) 
J2VwaWtfcHl0aG9uJywgJy1waHQnLCAnMi4wJywgJy1waCcsICc3LjAnLCAnLXRuJywgJzgnLCAnLW1hJywgJzIwMCcsICctaW1hZScsICc8aW5maWxlLm1hZT4nLCAnLW9tYWUnLCAnPG91dGZpbGUubWFlPic=

>  <r_lp_tautomer_probability>  (171) 
1

>  <r_epik_Ionization_Penalty>  (171) 
2.4025e-05

>  <r_epik_Ionization_Penalty_Charging>  (171) 
0

>  <r_epik_Ionization_Penalty_Neutral>  (171) 
2.4025e-05

>  <r_epik_State_Penalty>  (171) 
-0

>  <r_epik_Charging_Adjusted_Penalty>  (171) 
0

>  <i_epik_Tot_Q>  (171) 
0

>  <i_epik_Tot_abs_Q>  (171) 
0

>  <s_epik_Chemistry_Notes>  (171) 
This compound contains an acetal/aminal-like group ( X-CH(R)-Y where X, Y are N, S, or O) that may be acid/base labile, releasing an aldehyde.

>  <s_lp_Force_Field>  (171) 
OPLS3e

>  <r_lp_Energy>  (171) 
422.667

>  <b_lp_Chiralities_Consistent>  (171) 
0

>  <s_lp_Variant>  (171) 
46:0-3

>  <s_i_glide_gridfile>  (171) 
pfpi4k_grid

>  <i_i_glide_lignum>  (171) 
27

>  <i_i_glide_rotatable_bonds>  (171) 
6

>  <r_i_docking_score>  (171) 
-3.15872

>  <r_i_glide_ligand_efficiency>  (171) 
-0.0770418

>  <r_i_glide_ligand_efficiency_sa>  (171) 
-0.265657

>  <r_i_glide_ligand_efficiency_ln>  (171) 
-0.670132

>  <r_i_glide_gscore>  (171) 
-3.15872

>  <r_i_glide_lipo>  (171) 
-0.0220408

>  <r_i_glide_hbond>  (171) 
-0.16

>  <r_i_glide_metal>  (171) 
-0

>  <r_i_glide_rewards>  (171) 
-0.5

>  <r_i_glide_evdw>  (171) 
-19.7397

>  <r_i_glide_ecoul>  (171) 
-9.11046

>  <r_i_glide_erotb>  (171) 
0

>  <r_i_glide_esite>  (171) 
-0.12312

>  <r_i_glide_emodel>  (171) 
-37.7067

>  <r_i_glide_energy>  (171) 
-28.8502

>  <r_i_glide_einternal>  (171) 
2.84527

>  <r_i_glide_intrahb_reward>  (171) 
-0.5

>  <i_i_glide_confnum>  (171) 
2

>  <i_i_glide_posenum>  (171) 
14

>  <r_i_glide_eff_state_penalty>  (171) 
0

>  <ligand_id>  (171) 
46

>  <original_smiles>  (171) 
CC1=CC2CC(C)C34OC5(C1=O)C(O)OC(C)(C)C1(O)CCC6(O)OC(C)(C)C(C(O)C3O)C6(C)C1C2(C)C4C5O

>  <smiles>  (171) 
[H]OC1([H])OC(C([H])([H])[H])(C([H])([H])[H])C2(O[H])C([H])([H])C([H])([H])C3(O[H])OC(C([H])([H])[H])(C([H])([H])[H])C4([H])C([H])(O[H])C([H])(O[H])C56OC17C(=O)C(C([H])([H])[H])=C([H])C([H])(C([H])([H])C5([H])C([H])([H])[H])C(C([H])([H])[H])(C6([H])C7([H])O[H])C2([H])C34C([H])([H])[H]

$$$$
46:2:2
     RDKit          3D

 87 93  0  0  1  0  0  0  0  0999 V2000
   -2.8598    2.8134    7.0893 C   0  0  0  0  0  0  0  0  0  0  0  0
   -1.5113    2.1993    6.7231 C   0  0  0  0  0  0  0  0  0  0  0  0
   -1.5076    0.8794    6.2100 C   0  0  0  0  0  0  0  0  0  0  0  0
   -0.5149   -0.2787    5.6307 C   0  0  1  0  0  0  0  0  0  0  0  0
   -0.6388   -0.1691    4.1379 C   0  0  0  0  0  0  0  0  0  0  0  0
   -0.0618    1.1625    3.7102 C   0  0  1  0  0  0  0  0  0  0  0  0
   -1.0913    2.2559    3.3461 C   0  0  0  0  0  0  0  0  0  0  0  0
    1.1218    1.5955    4.6399 C   0  0  2  0  0  0  0  0  0  0  0  0
    0.8967    2.8380    5.2438 O   0  0  0  0  0  0  0  0  0  0  0  0
    1.0784    2.8237    6.6602 C   0  0  2  0  0  0  0  0  0  0  0  0
   -0.3644    3.2201    7.0532 C   0  0  0  0  0  0  0  0  0  0  0  0
   -0.5634    4.3004    7.6054 O   0  0  0  0  0  0  0  0  0  0  0  0
    2.5885    3.3717    6.9016 C   0  0  1  0  0  0  0  0  0  0  0  0
    2.5496    4.5036    7.7339 O   0  0  0  0  0  0  0  0  0  0  0  0
    3.5603    2.3861    7.4357 O   0  0  0  0  0  0  0  0  0  0  0  0
    4.3817    1.2052    6.9545 C   0  0  0  0  0  0  0  0  0  0  0  0
    5.3028    1.7450    5.8426 C   0  0  0  0  0  0  0  0  0  0  0  0
    5.3277    1.2490    8.1939 C   0  0  0  0  0  0  0  0  0  0  0  0
    3.8465   -0.4099    6.7415 C   0  0  2  0  0  0  0  0  0  0  0  0
    3.5301   -0.7555    8.0710 O   0  0  0  0  0  0  0  0  0  0  0  0
    5.0694   -1.4119    6.5478 C   0  0  0  0  0  0  0  0  0  0  0  0
    4.9570   -2.4980    5.4233 C   0  0  0  0  0  0  0  0  0  0  0  0
    4.3642   -1.8094    4.1926 C   0  0  1  0  0  0  0  0  0  0  0  0
    5.1530   -0.6522    4.0196 O   0  0  0  0  0  0  0  0  0  0  0  0
    4.3962   -2.5268    3.0006 O   0  0  0  0  0  0  0  0  0  0  0  0
    3.5983   -1.7681    2.0501 C   0  0  0  0  0  0  0  0  0  0  0  0
    4.6200   -1.1010    1.0832 C   0  0  0  0  0  0  0  0  0  0  0  0
    2.7762   -2.7283    1.1528 C   0  0  0  0  0  0  0  0  0  0  0  0
    2.6544   -0.8412    2.9650 C   0  0  2  0  0  0  0  0  0  0  0  0
    2.8653    0.7072    2.7344 C   0  0  1  0  0  0  0  0  0  0  0  0
    2.3730    0.9411    1.4250 O   0  0  0  0  0  0  0  0  0  0  0  0
    2.3543    1.8359    3.7068 C   0  0  1  0  0  0  0  0  0  0  0  0
    2.1877    3.0468    2.9752 O   0  0  0  0  0  0  0  0  0  0  0  0
    2.8535   -1.5335    4.3636 C   0  0  1  0  0  0  0  0  0  0  0  0
    2.0760   -2.9141    4.3221 C   0  0  0  0  0  0  0  0  0  0  0  0
    2.5364   -0.9976    5.8302 C   0  0  2  0  0  0  0  0  0  0  0  0
    1.0015   -0.5349    6.2197 C   0  0  2  0  0  0  0  0  0  0  0  0
    0.6138   -1.2657    7.5659 C   0  0  0  0  0  0  0  0  0  0  0  0
    1.3918    0.8552    6.0347 C   0  0  2  0  0  0  0  0  0  0  0  0
    1.0886    1.5080    7.3352 C   0  0  1  0  0  0  0  0  0  0  0  0
    1.7199    1.2669    8.5930 O   0  0  0  0  0  0  0  0  0  0  0  0
   -3.0153    3.7244    6.5111 H   0  0  0  0  0  0  0  0  0  0  0  0
   -2.9051    3.0738    8.1496 H   0  0  0  0  0  0  0  0  0  0  0  0
   -3.6964    2.1472    6.8847 H   0  0  0  0  0  0  0  0  0  0  0  0
   -2.5108    0.4926    6.1145 H   0  0  0  0  0  0  0  0  0  0  0  0
   -1.0679   -1.1969    5.8409 H   0  0  0  0  0  0  0  0  0  0  0  0
   -0.1605   -1.0127    3.6612 H   0  0  0  0  0  0  0  0  0  0  0  0
   -1.6830   -0.2326    3.8418 H   0  0  0  0  0  0  0  0  0  0  0  0
    0.3180    0.9348    2.7222 H   0  0  0  0  0  0  0  0  0  0  0  0
   -1.6613    2.6366    4.1882 H   0  0  0  0  0  0  0  0  0  0  0  0
   -1.8080    1.8762    2.6165 H   0  0  0  0  0  0  0  0  0  0  0  0
   -0.5980    3.1118    2.8850 H   0  0  0  0  0  0  0  0  0  0  0  0
    3.0103    3.7238    5.9578 H   0  0  0  0  0  0  0  0  0  0  0  0
    3.3863    4.9348    7.6716 H   0  0  0  0  0  0  0  0  0  0  0  0
    6.2981    1.3066    5.8943 H   0  0  0  0  0  0  0  0  0  0  0  0
    5.4345    2.8238    5.9389 H   0  0  0  0  0  0  0  0  0  0  0  0
    4.9609    1.5579    4.8415 H   0  0  0  0  0  0  0  0  0  0  0  0
    6.1110    0.4963    8.1657 H   0  0  0  0  0  0  0  0  0  0  0  0
    4.7923    1.1235    9.1343 H   0  0  0  0  0  0  0  0  0  0  0  0
    5.8325    2.2106    8.2725 H   0  0  0  0  0  0  0  0  0  0  0  0
    2.8706   -0.1347    8.3740 H   0  0  0  0  0  0  0  0  0  0  0  0
    5.9712   -0.8394    6.3453 H   0  0  0  0  0  0  0  0  0  0  0  0
    5.3343   -1.9370    7.4662 H   0  0  0  0  0  0  0  0  0  0  0  0
    5.9453   -2.8853    5.1742 H   0  0  0  0  0  0  0  0  0  0  0  0
    4.3534   -3.3528    5.7260 H   0  0  0  0  0  0  0  0  0  0  0  0
    6.0409   -0.9355    3.8653 H   0  0  0  0  0  0  0  0  0  0  0  0
    4.1254   -0.5571    0.2776 H   0  0  0  0  0  0  0  0  0  0  0  0
    5.2290   -1.8718    0.6088 H   0  0  0  0  0  0  0  0  0  0  0  0
    5.3148   -0.4153    1.5636 H   0  0  0  0  0  0  0  0  0  0  0  0
    2.4915   -2.2368    0.2232 H   0  0  0  0  0  0  0  0  0  0  0  0
    1.8398   -3.0593    1.5965 H   0  0  0  0  0  0  0  0  0  0  0  0
    3.3540   -3.6113    0.8806 H   0  0  0  0  0  0  0  0  0  0  0  0
    1.6355   -1.0344    2.6492 H   0  0  0  0  0  0  0  0  0  0  0  0
    3.9214    0.9266    2.6437 H   0  0  0  0  0  0  0  0  0  0  0  0
    1.4724    0.6514    1.3577 H   0  0  0  0  0  0  0  0  0  0  0  0
    3.1673    2.1432    4.3312 H   0  0  0  0  0  0  0  0  0  0  0  0
    1.5087    2.9316    2.3228 H   0  0  0  0  0  0  0  0  0  0  0  0
    1.0052   -2.7662    4.2115 H   0  0  0  0  0  0  0  0  0  0  0  0
    2.2012   -3.5397    5.2061 H   0  0  0  0  0  0  0  0  0  0  0  0
    2.3808   -3.5928    3.5345 H   0  0  0  0  0  0  0  0  0  0  0  0
    2.5269   -1.9427    6.3637 H   0  0  0  0  0  0  0  0  0  0  0  0
    1.2958   -1.1811    8.4009 H   0  0  0  0  0  0  0  0  0  0  0  0
    0.5015   -2.3347    7.3799 H   0  0  0  0  0  0  0  0  0  0  0  0
   -0.3412   -0.9335    7.9717 H   0  0  0  0  0  0  0  0  0  0  0  0
    2.3996    1.1003    5.8970 H   0  0  0  0  0  0  0  0  0  0  0  0
    0.2030    1.1266    7.8227 H   0  0  0  0  0  0  0  0  0  0  0  0
    1.3602    1.8779    9.2222 H   0  0  0  0  0  0  0  0  0  0  0  0
  1  2  1  0
  1 42  1  0
  1 43  1  0
  1 44  1  0
  2 11  1  0
  2  3  2  3
  3  4  1  0
  3 45  1  0
  4 37  1  0
  4  5  1  0
  4 46  1  1
  5  6  1  0
  5 47  1  0
  5 48  1  0
  6  7  1  0
  6  8  1  0
  6 49  1  6
  7 50  1  0
  7 51  1  0
  7 52  1  0
  8 32  1  0
  8 39  1  0
  8  9  1  1
 10  9  1  6
 10 40  1  0
 10 11  1  0
 10 13  1  0
 11 12  2  0
 13 14  1  0
 13 15  1  0
 13 53  1  6
 14 54  1  0
 15 16  1  0
 16 17  1  0
 16 18  1  0
 16 19  1  0
 17 55  1  0
 17 56  1  0
 17 57  1  0
 18 58  1  0
 18 59  1  0
 18 60  1  0
 19 36  1  0
 19 20  1  1
 19 21  1  0
 20 61  1  0
 21 22  1  0
 21 62  1  0
 21 63  1  0
 22 23  1  0
 22 64  1  0
 22 65  1  0
 23 34  1  0
 23 24  1  6
 23 25  1  0
 24 66  1  0
 25 26  1  0
 26 27  1  0
 26 28  1  0
 26 29  1  0
 27 67  1  0
 27 68  1  0
 27 69  1  0
 28 70  1  0
 28 71  1  0
 28 72  1  0
 29 30  1  0
 29 34  1  0
 29 73  1  6
 30 31  1  0
 30 32  1  0
 30 74  1  6
 31 75  1  0
 32 33  1  0
 32 76  1  1
 33 77  1  0
 34 35  1  6
 34 36  1  0
 35 78  1  0
 35 79  1  0
 35 80  1  0
 36 37  1  0
 36 81  1  1
 37 38  1  1
 37 39  1  0
 38 82  1  0
 38 83  1  0
 38 84  1  0
 39 40  1  0
 39 85  1  1
 40 41  1  0
 40 86  1  1
 41 87  1  0
M  END
>  <i_m_ct_stereo_status>  (172) 
1

>  <s_m_source_file>  (172) 
/var/tmp/pbs.5076255.sched01/tmp276pg2sv/48_ir7zhrj.sdf

>  <i_m_source_file_index>  (172) 
27

>  <i_lp_mmshare_version>  (172) 
48012

>  <i_f3d_flags>  (172) 
2

>  <s_epik_input>  (172) 
W0NIM11bQ0BASF0xW0NIMl1bQ0BASF0oW0NAQF0yKFtDSDNdKVtDQEhdM1tDQEBdMTQ1KVxbQ0hdPUMoXFtDSDNdKUMoPU8pW0NAQF0oTzQpKFtDQEBIXTNbT0hdKVtDQEBIXShbT0hdKU9DKFtDSDNdKShbQ0gzXSlbQ0BAXTYoW09IXSlbQ0BIXTJbQ0BAXTcoW0NIM10pW0NAQF0oW09IXSkoW0NIMl1bQ0gyXTYpT0MoW0NIM10pKFtDSDNdKVtDQEhdN1tDQEBIXShbT0hdKVtDQEhdNVtPSF0=

>  <s_epik_cmdline>  (172) 
J2VwaWtfcHl0aG9uJywgJy1waHQnLCAnMi4wJywgJy1waCcsICc3LjAnLCAnLXRuJywgJzgnLCAnLW1hJywgJzIwMCcsICctaW1hZScsICc8aW5maWxlLm1hZT4nLCAnLW9tYWUnLCAnPG91dGZpbGUubWFlPic=

>  <r_lp_tautomer_probability>  (172) 
1

>  <r_epik_Ionization_Penalty>  (172) 
2.4025e-05

>  <r_epik_Ionization_Penalty_Charging>  (172) 
0

>  <r_epik_Ionization_Penalty_Neutral>  (172) 
2.4025e-05

>  <r_epik_State_Penalty>  (172) 
-0

>  <r_epik_Charging_Adjusted_Penalty>  (172) 
0

>  <i_epik_Tot_Q>  (172) 
0

>  <i_epik_Tot_abs_Q>  (172) 
0

>  <s_epik_Chemistry_Notes>  (172) 
This compound contains an acetal/aminal-like group ( X-CH(R)-Y where X, Y are N, S, or O) that may be acid/base labile, releasing an aldehyde.

>  <s_lp_Force_Field>  (172) 
OPLS3e

>  <r_lp_Energy>  (172) 
422.667

>  <b_lp_Chiralities_Consistent>  (172) 
0

>  <s_lp_Variant>  (172) 
46:0-3

>  <s_i_glide_gridfile>  (172) 
pfpi4k_grid

>  <i_i_glide_lignum>  (172) 
27

>  <i_i_glide_rotatable_bonds>  (172) 
6

>  <r_i_docking_score>  (172) 
-2.52476

>  <r_i_glide_ligand_efficiency>  (172) 
-0.0615796

>  <r_i_glide_ligand_efficiency_sa>  (172) 
-0.21234

>  <r_i_glide_ligand_efficiency_ln>  (172) 
-0.535637

>  <r_i_glide_gscore>  (172) 
-2.52476

>  <r_i_glide_lipo>  (172) 
-0.310548

>  <r_i_glide_hbond>  (172) 
0

>  <r_i_glide_metal>  (172) 
-0

>  <r_i_glide_rewards>  (172) 
-0.51901

>  <r_i_glide_evdw>  (172) 
-29.0145

>  <r_i_glide_ecoul>  (172) 
-1.62987

>  <r_i_glide_erotb>  (172) 
0

>  <r_i_glide_esite>  (172) 
0

>  <r_i_glide_emodel>  (172) 
-39.7252

>  <r_i_glide_energy>  (172) 
-30.6443

>  <r_i_glide_einternal>  (172) 
0.871228

>  <r_i_glide_intrahb_reward>  (172) 
-0.5

>  <i_i_glide_confnum>  (172) 
2

>  <i_i_glide_posenum>  (172) 
1

>  <r_i_glide_eff_state_penalty>  (172) 
0

>  <ligand_id>  (172) 
46

>  <original_smiles>  (172) 
CC1=CC2CC(C)C34OC5(C1=O)C(O)OC(C)(C)C1(O)CCC6(O)OC(C)(C)C(C(O)C3O)C6(C)C1C2(C)C4C5O

>  <smiles>  (172) 
[H]OC1([H])OC(C([H])([H])[H])(C([H])([H])[H])C2(O[H])C([H])([H])C([H])([H])C3(O[H])OC(C([H])([H])[H])(C([H])([H])[H])C4([H])C([H])(O[H])C([H])(O[H])C56OC17C(=O)C(C([H])([H])[H])=C([H])C([H])(C([H])([H])C5([H])C([H])([H])[H])C(C([H])([H])[H])(C6([H])C7([H])O[H])C2([H])C34C([H])([H])[H]

$$$$
47:0:0
     RDKit          3D

 48 51  0  0  1  0  0  0  0  0999 V2000
    2.4482   -3.4070   -3.6983 C   0  0  0  0  0  0  0  0  0  0  0  0
    3.6518   -2.9401   -2.8446 C   0  0  0  0  0  0  0  0  0  0  0  0
    4.8791   -3.3350   -3.6475 C   0  0  0  0  0  0  0  0  0  0  0  0
    3.4820   -1.4113   -2.7679 C   0  0  0  0  0  0  0  0  0  0  0  0
    4.5232   -0.7087   -1.9213 C   0  0  0  0  0  0  0  0  0  0  0  0
    4.6258   -1.2622   -0.4891 C   0  0  1  0  0  0  0  0  0  0  0  0
    3.5065   -0.8170    0.2291 O   0  0  0  0  0  0  0  0  0  0  0  0
    4.8253   -2.8182   -0.4205 C   0  0  2  0  0  0  0  0  0  0  0  0
    6.2793   -3.1190   -0.8773 C   0  0  0  0  0  0  0  0  0  0  0  0
    3.7865   -3.5297   -1.3914 C   0  0  1  0  0  0  0  0  0  0  0  0
    2.4176   -3.7093   -0.7227 C   0  0  0  0  0  0  0  0  0  0  0  0
    2.5321   -4.5317    0.5498 C   0  0  0  0  0  0  0  0  0  0  0  0
    3.3608   -3.7818    1.5677 C   0  0  2  0  0  0  0  0  0  0  0  0
    2.7180   -2.8374    2.6373 C   0  0  0  0  0  0  0  0  0  0  0  0
    3.7010   -3.4370    3.6648 C   0  0  2  0  0  0  0  0  0  0  0  0
    5.1390   -2.9574    3.5826 C   0  0  0  0  0  0  0  0  0  0  0  0
    5.5591   -2.6496    2.1194 C   0  0  0  0  0  0  0  0  0  0  0  0
    4.7579   -3.4379    1.0377 C   0  0  2  0  0  0  0  0  0  0  0  0
    3.5566   -4.7076    2.8031 C   0  0  0  0  0  0  0  0  0  0  0  0
    3.5072   -5.9078    3.0074 O   0  0  0  0  0  0  0  0  0  0  0  0
    2.5069   -2.9453   -4.6844 H   0  0  0  0  0  0  0  0  0  0  0  0
    1.5004   -3.0313   -3.2964 H   0  0  0  0  0  0  0  0  0  0  0  0
    2.3637   -4.4714   -3.9095 H   0  0  0  0  0  0  0  0  0  0  0  0
    5.6655   -2.6113   -3.5408 H   0  0  0  0  0  0  0  0  0  0  0  0
    4.6572   -3.3925   -4.7231 H   0  0  0  0  0  0  0  0  0  0  0  0
    5.2968   -4.2961   -3.3574 H   0  0  0  0  0  0  0  0  0  0  0  0
    3.4760   -0.9799   -3.7710 H   0  0  0  0  0  0  0  0  0  0  0  0
    2.5024   -1.1791   -2.3452 H   0  0  0  0  0  0  0  0  0  0  0  0
    5.4875   -0.7419   -2.4049 H   0  0  0  0  0  0  0  0  0  0  0  0
    4.2376    0.3312   -1.9184 H   0  0  0  0  0  0  0  0  0  0  0  0
    5.4943   -0.7814   -0.0357 H   0  0  0  0  0  0  0  0  0  0  0  0
    2.7026   -1.0522   -0.2482 H   0  0  0  0  0  0  0  0  0  0  0  0
    6.3878   -4.1735   -1.1056 H   0  0  0  0  0  0  0  0  0  0  0  0
    7.0178   -2.8839   -0.1129 H   0  0  0  0  0  0  0  0  0  0  0  0
    6.6077   -2.5486   -1.7295 H   0  0  0  0  0  0  0  0  0  0  0  0
    4.1601   -4.5474   -1.5148 H   0  0  0  0  0  0  0  0  0  0  0  0
    1.9882   -2.7412   -0.4879 H   0  0  0  0  0  0  0  0  0  0  0  0
    1.7130   -4.2149   -1.3810 H   0  0  0  0  0  0  0  0  0  0  0  0
    1.5563   -4.7157    0.9819 H   0  0  0  0  0  0  0  0  0  0  0  0
    2.9569   -5.5119    0.3289 H   0  0  0  0  0  0  0  0  0  0  0  0
    2.8499   -1.7634    2.4848 H   0  0  0  0  0  0  0  0  0  0  0  0
    1.6673   -3.0639    2.8659 H   0  0  0  0  0  0  0  0  0  0  0  0
    3.2668   -3.5004    4.6648 H   0  0  0  0  0  0  0  0  0  0  0  0
    5.2932   -2.0805    4.1999 H   0  0  0  0  0  0  0  0  0  0  0  0
    5.7884   -3.7337    3.9992 H   0  0  0  0  0  0  0  0  0  0  0  0
    5.4155   -1.5740    1.9827 H   0  0  0  0  0  0  0  0  0  0  0  0
    6.6284   -2.8421    2.0269 H   0  0  0  0  0  0  0  0  0  0  0  0
    5.2933   -4.3877    0.9611 H   0  0  0  0  0  0  0  0  0  0  0  0
  1  2  1  0
  1 21  1  0
  1 22  1  0
  1 23  1  0
  2 10  1  0
  2  3  1  0
  2  4  1  0
  3 24  1  0
  3 25  1  0
  3 26  1  0
  4  5  1  0
  4 27  1  0
  4 28  1  0
  5  6  1  0
  5 29  1  0
  5 30  1  0
  6  7  1  0
  6  8  1  0
  6 31  1  1
  7 32  1  0
  8 18  1  0
  8  9  1  6
  8 10  1  0
  9 33  1  0
  9 34  1  0
  9 35  1  0
 10 11  1  0
 10 36  1  6
 11 12  1  0
 11 37  1  0
 11 38  1  0
 13 12  1  6
 12 39  1  0
 12 40  1  0
 13 18  1  0
 13 19  1  0
 13 14  1  0
 14 15  1  0
 14 41  1  0
 14 42  1  0
 15 16  1  0
 15 19  1  0
 15 43  1  1
 16 17  1  0
 16 44  1  0
 16 45  1  0
 17 18  1  0
 17 46  1  0
 17 47  1  0
 18 48  1  6
 19 20  2  0
M  END
>  <i_m_ct_stereo_status>  (173) 
1

>  <s_m_source_file>  (173) 
/var/tmp/pbs.5076255.sched01/tmp276pg2sv/48_ir7zhrj.sdf

>  <i_m_source_file_index>  (173) 
28

>  <i_lp_mmshare_version>  (173) 
48012

>  <i_f3d_flags>  (173) 
0

>  <s_epik_input>  (173) 
W09IXVtDQEBIXTFbQ0gyXVtDSDJdQyhbQ0gzXSkoW0NIM10pW0NASF0oW0NIMl1bQ0gyXTIpW0NAXTEoW0NIM10pW0NASF0oW0NAXTIzNClbQ0gyXVtDSDJdW0NAQEhdKFtDSDJdMylDND1P

>  <s_epik_cmdline>  (173) 
J2VwaWtfcHl0aG9uJywgJy1waHQnLCAnMi4wJywgJy1waCcsICc3LjAnLCAnLXRuJywgJzgnLCAnLW1hJywgJzIwMCcsICctaW1hZScsICc8aW5maWxlLm1hZT4nLCAnLW9tYWUnLCAnPG91dGZpbGUubWFlPic=

>  <r_lp_tautomer_probability>  (173) 
1

>  <r_epik_Ionization_Penalty>  (173) 
1.85909e-06

>  <r_epik_Ionization_Penalty_Charging>  (173) 
0

>  <r_epik_Ionization_Penalty_Neutral>  (173) 
1.85909e-06

>  <r_epik_State_Penalty>  (173) 
-0

>  <r_epik_Charging_Adjusted_Penalty>  (173) 
0

>  <i_epik_Tot_Q>  (173) 
0

>  <i_epik_Tot_abs_Q>  (173) 
0

>  <s_lp_Force_Field>  (173) 
OPLS3e

>  <r_lp_Energy>  (173) 
55.1063

>  <b_lp_Chiralities_Consistent>  (173) 
1

>  <s_lp_Variant>  (173) 
47:0-1

>  <s_i_glide_gridfile>  (173) 
pfpi4k_grid

>  <i_i_glide_lignum>  (173) 
28

>  <i_i_glide_rotatable_bonds>  (173) 
1

>  <r_i_docking_score>  (173) 
-3.54454

>  <r_i_glide_ligand_efficiency>  (173) 
-0.177227

>  <r_i_glide_ligand_efficiency_sa>  (173) 
-0.481069

>  <r_i_glide_ligand_efficiency_ln>  (173) 
-0.887083

>  <r_i_glide_gscore>  (173) 
-3.54454

>  <r_i_glide_lipo>  (173) 
-0.649504

>  <r_i_glide_hbond>  (173) 
-0.151374

>  <r_i_glide_metal>  (173) 
-0

>  <r_i_glide_rewards>  (173) 
-1.52445

>  <r_i_glide_evdw>  (173) 
-18.382

>  <r_i_glide_ecoul>  (173) 
-2.00077

>  <r_i_glide_erotb>  (173) 
0

>  <r_i_glide_esite>  (173) 
0

>  <r_i_glide_emodel>  (173) 
-24.6714

>  <r_i_glide_energy>  (173) 
-20.3828

>  <r_i_glide_einternal>  (173) 
0.0800661

>  <r_i_glide_intrahb_reward>  (173) 
-0

>  <i_i_glide_confnum>  (173) 
1

>  <i_i_glide_posenum>  (173) 
2

>  <r_i_glide_eff_state_penalty>  (173) 
0

>  <ligand_id>  (173) 
47

>  <original_smiles>  (173) 
CC1(C)CCC(O)C2(C)C1CCC13CC(CCC12)C3=O

>  <smiles>  (173) 
[H]OC1([H])C([H])([H])C([H])([H])C(C([H])([H])[H])(C([H])([H])[H])C2([H])C([H])([H])C([H])([H])C34C(=O)C([H])(C([H])([H])C([H])([H])C3([H])C12C([H])([H])[H])C4([H])[H]

$$$$
47:0:1
     RDKit          3D

 48 51  0  0  1  0  0  0  0  0999 V2000
    4.5377   -0.8611   -2.4536 C   0  0  0  0  0  0  0  0  0  0  0  0
    4.5409   -2.1871   -1.6603 C   0  0  0  0  0  0  0  0  0  0  0  0
    3.8386   -3.1920   -2.6069 C   0  0  0  0  0  0  0  0  0  0  0  0
    6.0110   -2.5895   -1.4247 C   0  0  0  0  0  0  0  0  0  0  0  0
    6.1582   -3.8403   -0.5482 C   0  0  0  0  0  0  0  0  0  0  0  0
    5.4349   -3.7363    0.8078 C   0  0  1  0  0  0  0  0  0  0  0  0
    6.2075   -2.8870    1.6188 O   0  0  0  0  0  0  0  0  0  0  0  0
    3.9338   -3.2855    0.7152 C   0  0  2  0  0  0  0  0  0  0  0  0
    3.1270   -4.4890    0.1570 C   0  0  0  0  0  0  0  0  0  0  0  0
    3.8121   -2.0424   -0.2650 C   0  0  1  0  0  0  0  0  0  0  0  0
    4.1956   -0.7239    0.4564 C   0  0  0  0  0  0  0  0  0  0  0  0
    3.2993   -0.4515    1.6522 C   0  0  0  0  0  0  0  0  0  0  0  0
    3.4538   -1.5452    2.6933 C   0  0  2  0  0  0  0  0  0  0  0  0
    4.4561   -1.3595    3.8682 C   0  0  0  0  0  0  0  0  0  0  0  0
    3.4080   -2.0156    4.7900 C   0  0  2  0  0  0  0  0  0  0  0  0
    3.2713   -3.5355    4.6892 C   0  0  0  0  0  0  0  0  0  0  0  0
    3.5325   -4.0427    3.2442 C   0  0  0  0  0  0  0  0  0  0  0  0
    3.2538   -2.9778    2.1223 C   0  0  2  0  0  0  0  0  0  0  0  0
    2.4006   -1.3661    3.8223 C   0  0  0  0  0  0  0  0  0  0  0  0
    1.2820   -0.8664    3.9235 O   0  0  0  0  0  0  0  0  0  0  0  0
    4.9055   -1.0009   -3.4719 H   0  0  0  0  0  0  0  0  0  0  0  0
    5.2014   -0.1252   -2.0067 H   0  0  0  0  0  0  0  0  0  0  0  0
    3.5349   -0.4339   -2.5234 H   0  0  0  0  0  0  0  0  0  0  0  0
    4.2167   -4.2062   -2.4996 H   0  0  0  0  0  0  0  0  0  0  0  0
    3.9947   -2.9607   -3.6611 H   0  0  0  0  0  0  0  0  0  0  0  0
    2.7595   -3.2162   -2.4462 H   0  0  0  0  0  0  0  0  0  0  0  0
    6.5135   -2.7490   -2.3816 H   0  0  0  0  0  0  0  0  0  0  0  0
    6.5430   -1.7713   -0.9395 H   0  0  0  0  0  0  0  0  0  0  0  0
    5.7897   -4.7052   -1.0926 H   0  0  0  0  0  0  0  0  0  0  0  0
    7.2167   -4.0404   -0.3848 H   0  0  0  0  0  0  0  0  0  0  0  0
    5.4831   -4.7283    1.2603 H   0  0  0  0  0  0  0  0  0  0  0  0
    6.1360   -2.0116    1.2717 H   0  0  0  0  0  0  0  0  0  0  0  0
    2.1470   -4.1815   -0.2067 H   0  0  0  0  0  0  0  0  0  0  0  0
    2.9643   -5.2598    0.9103 H   0  0  0  0  0  0  0  0  0  0  0  0
    3.6314   -5.0061   -0.6490 H   0  0  0  0  0  0  0  0  0  0  0  0
    2.7506   -1.9335   -0.4943 H   0  0  0  0  0  0  0  0  0  0  0  0
    5.2366   -0.7071    0.7676 H   0  0  0  0  0  0  0  0  0  0  0  0
    4.0878    0.1389   -0.1917 H   0  0  0  0  0  0  0  0  0  0  0  0
    3.5660    0.5148    2.0811 H   0  0  0  0  0  0  0  0  0  0  0  0
    2.2609   -0.3668    1.3264 H   0  0  0  0  0  0  0  0  0  0  0  0
    5.3852   -1.9226    3.7951 H   0  0  0  0  0  0  0  0  0  0  0  0
    4.6586   -0.3158    4.1165 H   0  0  0  0  0  0  0  0  0  0  0  0
    3.4002   -1.6049    5.8020 H   0  0  0  0  0  0  0  0  0  0  0  0
    3.9775   -4.0162    5.3673 H   0  0  0  0  0  0  0  0  0  0  0  0
    2.2828   -3.8506    5.0296 H   0  0  0  0  0  0  0  0  0  0  0  0
    4.5793   -4.3335    3.2162 H   0  0  0  0  0  0  0  0  0  0  0  0
    2.9536   -4.9527    3.0823 H   0  0  0  0  0  0  0  0  0  0  0  0
    2.1826   -3.0601    1.9306 H   0  0  0  0  0  0  0  0  0  0  0  0
  1  2  1  0
  1 21  1  0
  1 22  1  0
  1 23  1  0
  2 10  1  0
  2  3  1  0
  2  4  1  0
  3 24  1  0
  3 25  1  0
  3 26  1  0
  4  5  1  0
  4 27  1  0
  4 28  1  0
  5  6  1  0
  5 29  1  0
  5 30  1  0
  6  7  1  0
  6  8  1  0
  6 31  1  1
  7 32  1  0
  8 18  1  0
  8  9  1  6
  8 10  1  0
  9 33  1  0
  9 34  1  0
  9 35  1  0
 10 11  1  0
 10 36  1  6
 11 12  1  0
 11 37  1  0
 11 38  1  0
 13 12  1  6
 12 39  1  0
 12 40  1  0
 13 18  1  0
 13 19  1  0
 13 14  1  0
 14 15  1  0
 14 41  1  0
 14 42  1  0
 15 16  1  0
 15 19  1  0
 15 43  1  1
 16 17  1  0
 16 44  1  0
 16 45  1  0
 17 18  1  0
 17 46  1  0
 17 47  1  0
 18 48  1  6
 19 20  2  0
M  END
>  <i_m_ct_stereo_status>  (174) 
1

>  <s_m_source_file>  (174) 
/var/tmp/pbs.5076255.sched01/tmp276pg2sv/48_ir7zhrj.sdf

>  <i_m_source_file_index>  (174) 
28

>  <i_lp_mmshare_version>  (174) 
48012

>  <i_f3d_flags>  (174) 
0

>  <s_epik_input>  (174) 
W09IXVtDQEBIXTFbQ0gyXVtDSDJdQyhbQ0gzXSkoW0NIM10pW0NASF0oW0NIMl1bQ0gyXTIpW0NAXTEoW0NIM10pW0NASF0oW0NAXTIzNClbQ0gyXVtDSDJdW0NAQEhdKFtDSDJdMylDND1P

>  <s_epik_cmdline>  (174) 
J2VwaWtfcHl0aG9uJywgJy1waHQnLCAnMi4wJywgJy1waCcsICc3LjAnLCAnLXRuJywgJzgnLCAnLW1hJywgJzIwMCcsICctaW1hZScsICc8aW5maWxlLm1hZT4nLCAnLW9tYWUnLCAnPG91dGZpbGUubWFlPic=

>  <r_lp_tautomer_probability>  (174) 
1

>  <r_epik_Ionization_Penalty>  (174) 
1.85909e-06

>  <r_epik_Ionization_Penalty_Charging>  (174) 
0

>  <r_epik_Ionization_Penalty_Neutral>  (174) 
1.85909e-06

>  <r_epik_State_Penalty>  (174) 
-0

>  <r_epik_Charging_Adjusted_Penalty>  (174) 
0

>  <i_epik_Tot_Q>  (174) 
0

>  <i_epik_Tot_abs_Q>  (174) 
0

>  <s_lp_Force_Field>  (174) 
OPLS3e

>  <r_lp_Energy>  (174) 
55.1063

>  <b_lp_Chiralities_Consistent>  (174) 
1

>  <s_lp_Variant>  (174) 
47:0-1

>  <s_i_glide_gridfile>  (174) 
pfpi4k_grid

>  <i_i_glide_lignum>  (174) 
28

>  <i_i_glide_rotatable_bonds>  (174) 
1

>  <r_i_docking_score>  (174) 
-2.85032

>  <r_i_glide_ligand_efficiency>  (174) 
-0.142516

>  <r_i_glide_ligand_efficiency_sa>  (174) 
-0.386848

>  <r_i_glide_ligand_efficiency_ln>  (174) 
-0.713341

>  <r_i_glide_gscore>  (174) 
-2.85032

>  <r_i_glide_lipo>  (174) 
-0.203548

>  <r_i_glide_hbond>  (174) 
0

>  <r_i_glide_metal>  (174) 
-0

>  <r_i_glide_rewards>  (174) 
-1.52445

>  <r_i_glide_evdw>  (174) 
-21.3821

>  <r_i_glide_ecoul>  (174) 
-0.354745

>  <r_i_glide_erotb>  (174) 
0

>  <r_i_glide_esite>  (174) 
0

>  <r_i_glide_emodel>  (174) 
-25.4456

>  <r_i_glide_energy>  (174) 
-21.7369

>  <r_i_glide_einternal>  (174) 
0.0376377

>  <r_i_glide_intrahb_reward>  (174) 
-0

>  <i_i_glide_confnum>  (174) 
1

>  <i_i_glide_posenum>  (174) 
6

>  <r_i_glide_eff_state_penalty>  (174) 
0

>  <ligand_id>  (174) 
47

>  <original_smiles>  (174) 
CC1(C)CCC(O)C2(C)C1CCC13CC(CCC12)C3=O

>  <smiles>  (174) 
[H]OC1([H])C([H])([H])C([H])([H])C(C([H])([H])[H])(C([H])([H])[H])C2([H])C([H])([H])C([H])([H])C34C(=O)C([H])(C([H])([H])C([H])([H])C3([H])C12C([H])([H])[H])C4([H])[H]

$$$$
47:0:2
     RDKit          3D

 48 51  0  0  1  0  0  0  0  0999 V2000
    5.0929   -1.0804   -1.4888 C   0  0  0  0  0  0  0  0  0  0  0  0
    4.8051   -2.3028   -0.5856 C   0  0  0  0  0  0  0  0  0  0  0  0
    4.3847   -3.4273   -1.5721 C   0  0  0  0  0  0  0  0  0  0  0  0
    6.1190   -2.6723    0.1364 C   0  0  0  0  0  0  0  0  0  0  0  0
    5.9523   -3.8086    1.1561 C   0  0  0  0  0  0  0  0  0  0  0  0
    4.8547   -3.5284    2.2039 C   0  0  1  0  0  0  0  0  0  0  0  0
    5.3833   -2.5837    3.1032 O   0  0  0  0  0  0  0  0  0  0  0  0
    3.4697   -3.0923    1.6034 C   0  0  2  0  0  0  0  0  0  0  0  0
    2.8284   -4.3612    0.9728 C   0  0  0  0  0  0  0  0  0  0  0  0
    3.6893   -1.9838    0.4867 C   0  0  1  0  0  0  0  0  0  0  0  0
    3.8749   -0.5750    1.1172 C   0  0  0  0  0  0  0  0  0  0  0  0
    2.6755   -0.1642    1.9523 C   0  0  0  0  0  0  0  0  0  0  0  0
    2.4686   -1.1201    3.1144 C   0  0  2  0  0  0  0  0  0  0  0  0
    3.0737   -0.7877    4.5097 C   0  0  0  0  0  0  0  0  0  0  0  0
    1.7710   -1.3252    5.1381 C   0  0  2  0  0  0  0  0  0  0  0  0
    1.6115   -2.8451    5.1805 C   0  0  0  0  0  0  0  0  0  0  0  0
    2.2820   -3.5287    3.9565 C   0  0  0  0  0  0  0  0  0  0  0  0
    2.4028   -2.6119    2.6873 C   0  0  2  0  0  0  0  0  0  0  0  0
    1.1321   -0.7972    3.8422 C   0  0  0  0  0  0  0  0  0  0  0  0
    0.0623   -0.2676    3.5469 O   0  0  0  0  0  0  0  0  0  0  0  0
    5.7545   -1.3437   -2.3180 H   0  0  0  0  0  0  0  0  0  0  0  0
    5.6046   -0.2855   -0.9465 H   0  0  0  0  0  0  0  0  0  0  0  0
    4.1757   -0.6708   -1.9176 H   0  0  0  0  0  0  0  0  0  0  0  0
    4.6651   -4.4223   -1.2371 H   0  0  0  0  0  0  0  0  0  0  0  0
    4.8678   -3.3266   -2.5450 H   0  0  0  0  0  0  0  0  0  0  0  0
    3.3095   -3.4211   -1.7549 H   0  0  0  0  0  0  0  0  0  0  0  0
    6.8820   -2.9471   -0.5946 H   0  0  0  0  0  0  0  0  0  0  0  0
    6.5125   -1.7965    0.6578 H   0  0  0  0  0  0  0  0  0  0  0  0
    5.7402   -4.7411    0.6371 H   0  0  0  0  0  0  0  0  0  0  0  0
    6.9029   -3.9834    1.6584 H   0  0  0  0  0  0  0  0  0  0  0  0
    4.7223   -4.4516    2.7691 H   0  0  0  0  0  0  0  0  0  0  0  0
    5.5030   -1.7708    2.6367 H   0  0  0  0  0  0  0  0  0  0  0  0
    2.0223   -4.1020    0.2885 H   0  0  0  0  0  0  0  0  0  0  0  0
    2.4121   -5.0274    1.7266 H   0  0  0  0  0  0  0  0  0  0  0  0
    3.5320   -4.9783    0.4295 H   0  0  0  0  0  0  0  0  0  0  0  0
    2.7525   -1.9072   -0.0675 H   0  0  0  0  0  0  0  0  0  0  0  0
    4.7756   -0.5171    1.7223 H   0  0  0  0  0  0  0  0  0  0  0  0
    3.9747    0.2013    0.3657 H   0  0  0  0  0  0  0  0  0  0  0  0
    2.8388    0.8475    2.3234 H   0  0  0  0  0  0  0  0  0  0  0  0
    1.7866   -0.1232    1.3195 H   0  0  0  0  0  0  0  0  0  0  0  0
    3.9605   -1.3532    4.7935 H   0  0  0  0  0  0  0  0  0  0  0  0
    3.2260    0.2793    4.6827 H   0  0  0  0  0  0  0  0  0  0  0  0
    1.4725   -0.7912    6.0429 H   0  0  0  0  0  0  0  0  0  0  0  0
    2.0561   -3.2383    6.0953 H   0  0  0  0  0  0  0  0  0  0  0  0
    0.5548   -3.1149    5.2325 H   0  0  0  0  0  0  0  0  0  0  0  0
    3.2774   -3.8175    4.2879 H   0  0  0  0  0  0  0  0  0  0  0  0
    1.7466   -4.4516    3.7352 H   0  0  0  0  0  0  0  0  0  0  0  0
    1.4378   -2.7167    2.1879 H   0  0  0  0  0  0  0  0  0  0  0  0
  1  2  1  0
  1 21  1  0
  1 22  1  0
  1 23  1  0
  2 10  1  0
  2  3  1  0
  2  4  1  0
  3 24  1  0
  3 25  1  0
  3 26  1  0
  4  5  1  0
  4 27  1  0
  4 28  1  0
  5  6  1  0
  5 29  1  0
  5 30  1  0
  6  7  1  0
  6  8  1  0
  6 31  1  1
  7 32  1  0
  8 18  1  0
  8  9  1  6
  8 10  1  0
  9 33  1  0
  9 34  1  0
  9 35  1  0
 10 11  1  0
 10 36  1  6
 11 12  1  0
 11 37  1  0
 11 38  1  0
 13 12  1  6
 12 39  1  0
 12 40  1  0
 13 18  1  0
 13 19  1  0
 13 14  1  0
 14 15  1  0
 14 41  1  0
 14 42  1  0
 15 16  1  0
 15 19  1  0
 15 43  1  1
 16 17  1  0
 16 44  1  0
 16 45  1  0
 17 18  1  0
 17 46  1  0
 17 47  1  0
 18 48  1  6
 19 20  2  0
M  END
>  <i_m_ct_stereo_status>  (175) 
1

>  <s_m_source_file>  (175) 
/var/tmp/pbs.5076255.sched01/tmp276pg2sv/48_ir7zhrj.sdf

>  <i_m_source_file_index>  (175) 
28

>  <i_lp_mmshare_version>  (175) 
48012

>  <i_f3d_flags>  (175) 
0

>  <s_epik_input>  (175) 
W09IXVtDQEBIXTFbQ0gyXVtDSDJdQyhbQ0gzXSkoW0NIM10pW0NASF0oW0NIMl1bQ0gyXTIpW0NAXTEoW0NIM10pW0NASF0oW0NAXTIzNClbQ0gyXVtDSDJdW0NAQEhdKFtDSDJdMylDND1P

>  <s_epik_cmdline>  (175) 
J2VwaWtfcHl0aG9uJywgJy1waHQnLCAnMi4wJywgJy1waCcsICc3LjAnLCAnLXRuJywgJzgnLCAnLW1hJywgJzIwMCcsICctaW1hZScsICc8aW5maWxlLm1hZT4nLCAnLW9tYWUnLCAnPG91dGZpbGUubWFlPic=

>  <r_lp_tautomer_probability>  (175) 
1

>  <r_epik_Ionization_Penalty>  (175) 
1.85909e-06

>  <r_epik_Ionization_Penalty_Charging>  (175) 
0

>  <r_epik_Ionization_Penalty_Neutral>  (175) 
1.85909e-06

>  <r_epik_State_Penalty>  (175) 
-0

>  <r_epik_Charging_Adjusted_Penalty>  (175) 
0

>  <i_epik_Tot_Q>  (175) 
0

>  <i_epik_Tot_abs_Q>  (175) 
0

>  <s_lp_Force_Field>  (175) 
OPLS3e

>  <r_lp_Energy>  (175) 
55.1063

>  <b_lp_Chiralities_Consistent>  (175) 
1

>  <s_lp_Variant>  (175) 
47:0-1

>  <s_i_glide_gridfile>  (175) 
pfpi4k_grid

>  <i_i_glide_lignum>  (175) 
28

>  <i_i_glide_rotatable_bonds>  (175) 
1

>  <r_i_docking_score>  (175) 
-2.75088

>  <r_i_glide_ligand_efficiency>  (175) 
-0.137544

>  <r_i_glide_ligand_efficiency_sa>  (175) 
-0.373353

>  <r_i_glide_ligand_efficiency_ln>  (175) 
-0.688456

>  <r_i_glide_gscore>  (175) 
-2.75088

>  <r_i_glide_lipo>  (175) 
-0.17913

>  <r_i_glide_hbond>  (175) 
0

>  <r_i_glide_metal>  (175) 
-0

>  <r_i_glide_rewards>  (175) 
-1.52445

>  <r_i_glide_evdw>  (175) 
-20.2292

>  <r_i_glide_ecoul>  (175) 
-0.200919

>  <r_i_glide_erotb>  (175) 
0

>  <r_i_glide_esite>  (175) 
-0.00570471

>  <r_i_glide_emodel>  (175) 
-24.0651

>  <r_i_glide_energy>  (175) 
-20.4301

>  <r_i_glide_einternal>  (175) 
0.00441946

>  <r_i_glide_intrahb_reward>  (175) 
-0

>  <i_i_glide_confnum>  (175) 
1

>  <i_i_glide_posenum>  (175) 
31

>  <r_i_glide_eff_state_penalty>  (175) 
0

>  <ligand_id>  (175) 
47

>  <original_smiles>  (175) 
CC1(C)CCC(O)C2(C)C1CCC13CC(CCC12)C3=O

>  <smiles>  (175) 
[H]OC1([H])C([H])([H])C([H])([H])C(C([H])([H])[H])(C([H])([H])[H])C2([H])C([H])([H])C([H])([H])C34C(=O)C([H])(C([H])([H])C([H])([H])C3([H])C12C([H])([H])[H])C4([H])[H]

$$$$
48:0:0
     RDKit          3D

 69 74  0  0  1  0  0  0  0  0999 V2000
    3.1924   -9.3766    2.1667 C   0  0  0  0  0  0  0  0  0  0  0  0
    2.3696   -8.3053    1.4877 C   0  0  0  0  0  0  0  0  0  0  0  0
    2.7944   -7.0289    1.2873 C   0  0  0  0  0  0  0  0  0  0  0  0
    2.1027   -5.9220    0.6544 C   0  0  0  0  0  0  0  0  0  0  0  0
    0.9966   -5.9210    0.1160 O   0  0  0  0  0  0  0  0  0  0  0  0
    3.1255   -4.8573    0.8924 C   0  0  1  0  0  0  0  0  0  0  0  0
    2.6120   -3.4373    0.6592 C   0  0  0  0  0  0  0  0  0  0  0  0
    2.2212   -2.6690    1.7130 C   0  0  0  0  0  0  0  0  0  0  0  0
    2.3750   -3.1283    3.1819 C   0  0  1  0  0  0  0  0  0  0  0  0
    1.2761   -2.7904    4.1892 C   0  0  1  0  0  0  0  0  0  0  0  0
    1.2487   -4.0076    5.1720 C   0  0  0  0  0  0  0  0  0  0  0  0
    2.3754   -5.0432    4.7717 C   0  0  1  0  0  0  0  0  0  0  0  0
    3.6347   -4.8599    5.4433 O   0  0  0  0  0  0  0  0  0  0  0  0
    3.7549   -4.6660    6.8593 C   0  0  0  0  0  0  0  0  0  0  0  0
    5.2447   -4.3661    7.0820 C   0  0  0  0  0  0  0  0  0  0  0  0
    3.3322   -5.8821    7.6970 C   0  0  0  0  0  0  0  0  0  0  0  0
    1.9685   -6.5317    4.8672 C   0  0  0  0  0  0  0  0  0  0  0  0
    2.7635   -7.3694    5.2772 O   0  0  0  0  0  0  0  0  0  0  0  0
    0.7219   -6.8081    4.4198 O   0  0  0  0  0  0  0  0  0  0  0  0
    0.2497   -8.1480    4.4769 C   0  0  0  0  0  0  0  0  0  0  0  0
    2.5402   -4.6382    3.2837 C   0  0  2  0  0  0  0  0  0  0  0  0
    3.7341   -4.9986    2.3338 C   0  0  2  0  0  0  0  0  0  0  0  0
    4.9862   -4.1888    2.8362 C   0  0  0  0  0  0  0  0  0  0  0  0
    4.7671   -2.6741    3.0633 C   0  0  0  0  0  0  0  0  0  0  0  0
    3.5296   -2.5008    3.8117 N   0  0  0  0  0  0  0  0  0  0  0  0
    3.1099   -1.1695    4.2034 C   0  0  0  0  0  0  0  0  0  0  0  0
    1.7227   -1.4522    4.8123 C   0  0  1  0  0  0  0  0  0  0  0  0
    0.7478   -0.2980    4.5612 C   0  0  0  0  0  0  0  0  0  0  0  0
   -0.4181   -0.4545    5.3667 O   0  0  0  0  0  0  0  0  0  0  0  0
   -1.2294    0.5908    5.6556 C   0  0  0  0  0  0  0  0  0  0  0  0
   -0.9378    1.8964    4.9138 C   0  0  0  0  0  0  0  0  0  0  0  0
   -2.1597    0.5193    6.4584 O   0  0  0  0  0  0  0  0  0  0  0  0
    4.0829   -6.3505    1.6444 C   0  0  2  0  0  0  0  0  0  0  0  0
    4.4249   -5.4698    0.3792 C   0  0  0  0  0  0  0  0  0  0  0  0
    2.6526   -9.7936    3.0185 H   0  0  0  0  0  0  0  0  0  0  0  0
    4.1425   -9.0006    2.5428 H   0  0  0  0  0  0  0  0  0  0  0  0
    3.4078  -10.1966    1.4773 H   0  0  0  0  0  0  0  0  0  0  0  0
    1.3973   -8.6032    1.1447 H   0  0  0  0  0  0  0  0  0  0  0  0
    2.5225   -3.0853   -0.3621 H   0  0  0  0  0  0  0  0  0  0  0  0
    1.8194   -1.6837    1.5342 H   0  0  0  0  0  0  0  0  0  0  0  0
    0.3079   -2.6967    3.6961 H   0  0  0  0  0  0  0  0  0  0  0  0
    1.3032   -3.6952    6.2084 H   0  0  0  0  0  0  0  0  0  0  0  0
    0.2600   -4.4600    5.0850 H   0  0  0  0  0  0  0  0  0  0  0  0
    3.1994   -3.7855    7.1854 H   0  0  0  0  0  0  0  0  0  0  0  0
    5.4649   -4.2294    8.1414 H   0  0  0  0  0  0  0  0  0  0  0  0
    5.5525   -3.4606    6.5555 H   0  0  0  0  0  0  0  0  0  0  0  0
    5.8691   -5.1835    6.7181 H   0  0  0  0  0  0  0  0  0  0  0  0
    3.5034   -5.7119    8.7504 H   0  0  0  0  0  0  0  0  0  0  0  0
    3.8942   -6.7753    7.3961 H   0  0  0  0  0  0  0  0  0  0  0  0
    2.2691   -6.1047    7.5633 H   0  0  0  0  0  0  0  0  0  0  0  0
   -0.7316   -8.2502    4.0013 H   0  0  0  0  0  0  0  0  0  0  0  0
    0.1799   -8.4690    5.5160 H   0  0  0  0  0  0  0  0  0  0  0  0
    0.9478   -8.8148    3.9750 H   0  0  0  0  0  0  0  0  0  0  0  0
    1.5998   -4.9997    2.8595 H   0  0  0  0  0  0  0  0  0  0  0  0
    5.3261   -4.6382    3.7636 H   0  0  0  0  0  0  0  0  0  0  0  0
    5.8680   -4.2868    2.2035 H   0  0  0  0  0  0  0  0  0  0  0  0
    5.5875   -2.2748    3.6580 H   0  0  0  0  0  0  0  0  0  0  0  0
    4.7350   -2.1279    2.1229 H   0  0  0  0  0  0  0  0  0  0  0  0
    3.7965   -0.7341    4.9224 H   0  0  0  0  0  0  0  0  0  0  0  0
    3.0471   -0.5130    3.3395 H   0  0  0  0  0  0  0  0  0  0  0  0
    1.8564   -1.5653    5.8870 H   0  0  0  0  0  0  0  0  0  0  0  0
    1.2506    0.6223    4.8481 H   0  0  0  0  0  0  0  0  0  0  0  0
    0.4769   -0.2384    3.5033 H   0  0  0  0  0  0  0  0  0  0  0  0
   -1.2296    1.8058    3.8664 H   0  0  0  0  0  0  0  0  0  0  0  0
    0.1209    2.1473    4.9595 H   0  0  0  0  0  0  0  0  0  0  0  0
   -1.5196    2.7125    5.3381 H   0  0  0  0  0  0  0  0  0  0  0  0
    4.8978   -6.9488    2.0579 H   0  0  0  0  0  0  0  0  0  0  0  0
    4.3389   -6.0044   -0.5800 H   0  0  0  0  0  0  0  0  0  0  0  0
    5.3118   -4.8574    0.3624 H   0  0  0  0  0  0  0  0  0  0  0  0
  1  2  1  0
  1 35  1  0
  1 36  1  0
  1 37  1  0
  2  3  2  3
  2 38  1  0
  3 33  1  0
  3  4  1  0
  4  5  2  0
  4  6  1  0
  6 22  1  0
  6 34  1  0
  6  7  1  6
  7  8  2  0
  7 39  1  0
  9  8  1  6
  8 40  1  0
  9 21  1  0
  9 25  1  0
  9 10  1  0
 10 27  1  0
 10 11  1  0
 10 41  1  6
 11 12  1  0
 11 42  1  0
 11 43  1  0
 12 13  1  1
 12 17  1  0
 12 21  1  0
 13 14  1  0
 14 15  1  0
 14 16  1  0
 14 44  1  0
 15 45  1  0
 15 46  1  0
 15 47  1  0
 16 48  1  0
 16 49  1  0
 16 50  1  0
 17 18  2  0
 17 19  1  0
 19 20  1  0
 20 51  1  0
 20 52  1  0
 20 53  1  0
 21 22  1  0
 21 54  1  6
 22 23  1  6
 22 33  1  0
 23 24  1  0
 23 55  1  0
 23 56  1  0
 24 25  1  0
 24 57  1  0
 24 58  1  0
 25 26  1  0
 26 27  1  0
 26 59  1  0
 26 60  1  0
 27 28  1  0
 27 61  1  1
 28 29  1  0
 28 62  1  0
 28 63  1  0
 29 30  1  0
 30 31  1  0
 30 32  2  0
 31 64  1  0
 31 65  1  0
 31 66  1  0
 33 34  1  0
 33 67  1  1
 34 68  1  0
 34 69  1  0
M  END
>  <i_m_ct_stereo_status>  (176) 
1

>  <s_m_source_file>  (176) 
/var/tmp/pbs.5076255.sched01/tmp276pg2sv/48_ir7zhrj.sdf

>  <i_m_source_file_index>  (176) 
29

>  <i_lp_mmshare_version>  (176) 
48012

>  <i_f3d_flags>  (176) 
1

>  <s_epik_input>  (176) 
W0NIM10vW0NIXT1DKC9DMT1PKVtDQEBIXShbQ0gyXTIpW0NAQF0zKFtDQF0xMjQpW0NAQEhdNVtDQEBdNihbQ0hdPVtDSF00KVtDQEBIXShbQ0gyXVtDQEBdNShPW0NIXShbQ0gzXSlbQ0gzXSlDKD1PKU9bQ0gzXSlbQ0BASF0oW0NIMl1ONltDSDJdW0NIMl0zKVtDSDJdT0MoPU8pW0NIM10=

>  <s_epik_cmdline>  (176) 
J2VwaWtfcHl0aG9uJywgJy1waHQnLCAnMi4wJywgJy1waCcsICc3LjAnLCAnLXRuJywgJzgnLCAnLW1hJywgJzIwMCcsICctaW1hZScsICc8aW5maWxlLm1hZT4nLCAnLW9tYWUnLCAnPG91dGZpbGUubWFlPic=

>  <r_epik_Ionization_Penalty>  (176) 
0.375726

>  <r_epik_Ionization_Penalty_Charging>  (176) 
0

>  <r_epik_Ionization_Penalty_Neutral>  (176) 
0.375726

>  <r_epik_State_Penalty>  (176) 
0.373459

>  <r_epik_Charging_Adjusted_Penalty>  (176) 
0.373459

>  <i_epik_Tot_Q>  (176) 
0

>  <i_epik_Tot_abs_Q>  (176) 
0

>  <s_epik_Chemistry_Notes>  (176) 
This compound has an ester and may undergo hydrolysis at high or low pH.

>  <s_lp_Force_Field>  (176) 
OPLS3e

>  <r_lp_Energy>  (176) 
92.8445

>  <b_lp_Chiralities_Consistent>  (176) 
1

>  <s_lp_Variant>  (176) 
48:0-1

>  <s_i_glide_gridfile>  (176) 
pfpi4k_grid

>  <i_i_glide_lignum>  (176) 
29

>  <i_i_glide_rotatable_bonds>  (176) 
7

>  <r_i_docking_score>  (176) 
-3.38494

>  <r_i_glide_ligand_efficiency>  (176) 
-0.099557

>  <r_i_glide_ligand_efficiency_sa>  (176) 
-0.322526

>  <r_i_glide_ligand_efficiency_ln>  (176) 
-0.747827

>  <r_i_glide_gscore>  (176) 
-3.38494

>  <r_i_glide_lipo>  (176) 
-0.22192

>  <r_i_glide_hbond>  (176) 
-0.529432

>  <r_i_glide_metal>  (176) 
-0

>  <r_i_glide_rewards>  (176) 
-0.207478

>  <r_i_glide_evdw>  (176) 
-24.9534

>  <r_i_glide_ecoul>  (176) 
-9.74063

>  <r_i_glide_erotb>  (176) 
0.36642

>  <r_i_glide_esite>  (176) 
-0.083759

>  <r_i_glide_emodel>  (176) 
-38.779

>  <r_i_glide_energy>  (176) 
-34.6941

>  <r_i_glide_einternal>  (176) 
6.95244

>  <r_i_glide_intrahb_reward>  (176) 
-0

>  <i_i_glide_confnum>  (176) 
2

>  <i_i_glide_posenum>  (176) 
23

>  <r_i_glide_eff_state_penalty>  (176) 
0

>  <ligand_id>  (176) 
48

>  <original_smiles>  (176) 
CC=C1C(=O)C23C=CC45C6CC(OC(C)C)(C(=O)OC)C4C2(CCN5CC6COC(C)=O)C1C3

>  <smiles>  (176) 
[H]C(=C1C(=O)C23C([H])=C([H])C45N6C([H])([H])C([H])([H])C2(C1([H])C3([H])[H])C4([H])C(OC([H])(C([H])([H])[H])C([H])([H])[H])(C(=O)OC([H])([H])[H])C([H])([H])C5([H])C([H])(C([H])([H])OC(=O)C([H])([H])[H])C6([H])[H])C([H])([H])[H]

$$$$
48:0:1
     RDKit          3D

 69 74  0  0  1  0  0  0  0  0999 V2000
    4.7241   -8.3848    1.0166 C   0  0  0  0  0  0  0  0  0  0  0  0
    5.2494   -6.9838    1.2554 C   0  0  0  0  0  0  0  0  0  0  0  0
    5.3933   -6.4315    2.4805 C   0  0  0  0  0  0  0  0  0  0  0  0
    5.8078   -5.0924    2.8038 C   0  0  0  0  0  0  0  0  0  0  0  0
    6.1643   -4.2037    2.0273 O   0  0  0  0  0  0  0  0  0  0  0  0
    5.6233   -5.1749    4.3126 C   0  0  1  0  0  0  0  0  0  0  0  0
    5.6636   -3.8281    5.0451 C   0  0  0  0  0  0  0  0  0  0  0  0
    4.5211   -3.1931    5.4040 C   0  0  0  0  0  0  0  0  0  0  0  0
    3.1289   -3.8248    5.2019 C   0  0  1  0  0  0  0  0  0  0  0  0
    1.9741   -2.9297    4.7784 C   0  0  1  0  0  0  0  0  0  0  0  0
    1.0871   -3.8742    3.8935 C   0  0  0  0  0  0  0  0  0  0  0  0
    1.6852   -5.3289    3.8401 C   0  0  1  0  0  0  0  0  0  0  0  0
    1.1890   -6.2138    4.8554 O   0  0  0  0  0  0  0  0  0  0  0  0
   -0.2056   -6.4145    5.0369 C   0  0  0  0  0  0  0  0  0  0  0  0
   -0.5888   -5.7227    6.3315 C   0  0  0  0  0  0  0  0  0  0  0  0
   -0.4595   -7.9294    5.0839 C   0  0  0  0  0  0  0  0  0  0  0  0
    1.5152   -5.9784    2.4453 C   0  0  0  0  0  0  0  0  0  0  0  0
    2.4326   -6.0615    1.6352 O   0  0  0  0  0  0  0  0  0  0  0  0
    0.2824   -6.3980    2.1867 O   0  0  0  0  0  0  0  0  0  0  0  0
    0.0766   -7.3220    1.1434 C   0  0  0  0  0  0  0  0  0  0  0  0
    3.1609   -4.9677    4.1855 C   0  0  2  0  0  0  0  0  0  0  0  0
    4.2982   -5.9298    4.6662 C   0  0  2  0  0  0  0  0  0  0  0  0
    3.8866   -6.3949    6.1186 C   0  0  0  0  0  0  0  0  0  0  0  0
    3.5101   -5.2701    7.1156 C   0  0  0  0  0  0  0  0  0  0  0  0
    2.5965   -4.3513    6.4531 N   0  0  0  0  0  0  0  0  0  0  0  0
    2.0725   -3.2212    7.2021 C   0  0  0  0  0  0  0  0  0  0  0  0
    1.3303   -2.4429    6.0992 C   0  0  1  0  0  0  0  0  0  0  0  0
    1.3515   -0.9167    6.3034 C   0  0  0  0  0  0  0  0  0  0  0  0
    0.6721   -0.2319    5.2544 O   0  0  0  0  0  0  0  0  0  0  0  0
   -0.6681   -0.1089    5.2486 C   0  0  0  0  0  0  0  0  0  0  0  0
   -1.1638    0.7032    4.0606 C   0  0  0  0  0  0  0  0  0  0  0  0
   -1.4462   -0.5725    6.0823 O   0  0  0  0  0  0  0  0  0  0  0  0
    5.1231   -6.9751    3.8552 C   0  0  2  0  0  0  0  0  0  0  0  0
    6.3238   -6.4624    4.7333 C   0  0  0  0  0  0  0  0  0  0  0  0
    3.8277   -8.3471    0.3955 H   0  0  0  0  0  0  0  0  0  0  0  0
    4.4390   -8.8835    1.9388 H   0  0  0  0  0  0  0  0  0  0  0  0
    5.4700   -9.0054    0.5143 H   0  0  0  0  0  0  0  0  0  0  0  0
    5.4680   -6.3921    0.3786 H   0  0  0  0  0  0  0  0  0  0  0  0
    6.6271   -3.4089    5.2758 H   0  0  0  0  0  0  0  0  0  0  0  0
    4.5619   -2.2372    5.8895 H   0  0  0  0  0  0  0  0  0  0  0  0
    2.3356   -2.0870    4.1844 H   0  0  0  0  0  0  0  0  0  0  0  0
    0.0442   -3.8417    4.1836 H   0  0  0  0  0  0  0  0  0  0  0  0
    1.1048   -3.4518    2.8885 H   0  0  0  0  0  0  0  0  0  0  0  0
   -0.8227   -5.9841    4.2501 H   0  0  0  0  0  0  0  0  0  0  0  0
   -1.6479   -5.8460    6.5288 H   0  0  0  0  0  0  0  0  0  0  0  0
   -0.4438   -4.6582    6.2477 H   0  0  0  0  0  0  0  0  0  0  0  0
   -0.0030   -6.0844    7.1729 H   0  0  0  0  0  0  0  0  0  0  0  0
   -1.5183   -8.1317    5.2415 H   0  0  0  0  0  0  0  0  0  0  0  0
    0.0865   -8.3984    5.9074 H   0  0  0  0  0  0  0  0  0  0  0  0
   -0.1765   -8.4284    4.1530 H   0  0  0  0  0  0  0  0  0  0  0  0
   -0.9740   -7.6134    1.1074 H   0  0  0  0  0  0  0  0  0  0  0  0
    0.6661   -8.2248    1.3115 H   0  0  0  0  0  0  0  0  0  0  0  0
    0.3574   -6.9038    0.1762 H   0  0  0  0  0  0  0  0  0  0  0  0
    3.4684   -4.4537    3.2855 H   0  0  0  0  0  0  0  0  0  0  0  0
    3.0400   -7.0728    6.0269 H   0  0  0  0  0  0  0  0  0  0  0  0
    4.6134   -7.0344    6.6184 H   0  0  0  0  0  0  0  0  0  0  0  0
    3.0063   -5.7106    7.9771 H   0  0  0  0  0  0  0  0  0  0  0  0
    4.4013   -4.7563    7.4778 H   0  0  0  0  0  0  0  0  0  0  0  0
    1.4053   -3.5518    7.9989 H   0  0  0  0  0  0  0  0  0  0  0  0
    2.8846   -2.6298    7.6263 H   0  0  0  0  0  0  0  0  0  0  0  0
    0.2847   -2.7250    6.1199 H   0  0  0  0  0  0  0  0  0  0  0  0
    0.9053   -0.6596    7.2668 H   0  0  0  0  0  0  0  0  0  0  0  0
    2.3809   -0.5595    6.3270 H   0  0  0  0  0  0  0  0  0  0  0  0
   -1.0792    0.1329    3.1347 H   0  0  0  0  0  0  0  0  0  0  0  0
   -0.5798    1.6176    3.9482 H   0  0  0  0  0  0  0  0  0  0  0  0
   -2.2075    0.9825    4.1978 H   0  0  0  0  0  0  0  0  0  0  0  0
    4.8549   -8.0313    3.9765 H   0  0  0  0  0  0  0  0  0  0  0  0
    7.2912   -6.6210    4.2581 H   0  0  0  0  0  0  0  0  0  0  0  0
    6.3897   -6.7147    5.7828 H   0  0  0  0  0  0  0  0  0  0  0  0
  1  2  1  0
  1 35  1  0
  1 36  1  0
  1 37  1  0
  2  3  2  3
  2 38  1  0
  3 33  1  0
  3  4  1  0
  4  5  2  0
  4  6  1  0
  6 22  1  0
  6 34  1  0
  6  7  1  1
  7  8  2  0
  7 39  1  0
  9  8  1  1
  8 40  1  0
  9 21  1  0
  9 25  1  0
  9 10  1  0
 10 27  1  0
 10 11  1  0
 10 41  1  6
 11 12  1  0
 11 42  1  0
 11 43  1  0
 12 13  1  1
 12 17  1  0
 12 21  1  0
 13 14  1  0
 14 15  1  0
 14 16  1  0
 14 44  1  0
 15 45  1  0
 15 46  1  0
 15 47  1  0
 16 48  1  0
 16 49  1  0
 16 50  1  0
 17 18  2  0
 17 19  1  0
 19 20  1  0
 20 51  1  0
 20 52  1  0
 20 53  1  0
 21 22  1  0
 21 54  1  6
 22 23  1  1
 22 33  1  0
 23 24  1  0
 23 55  1  0
 23 56  1  0
 24 25  1  0
 24 57  1  0
 24 58  1  0
 25 26  1  0
 26 27  1  0
 26 59  1  0
 26 60  1  0
 27 28  1  0
 27 61  1  6
 28 29  1  0
 28 62  1  0
 28 63  1  0
 29 30  1  0
 30 31  1  0
 30 32  2  0
 31 64  1  0
 31 65  1  0
 31 66  1  0
 33 34  1  0
 33 67  1  6
 34 68  1  0
 34 69  1  0
M  END
>  <i_m_ct_stereo_status>  (177) 
1

>  <s_m_source_file>  (177) 
/var/tmp/pbs.5076255.sched01/tmp276pg2sv/48_ir7zhrj.sdf

>  <i_m_source_file_index>  (177) 
29

>  <i_lp_mmshare_version>  (177) 
48012

>  <i_f3d_flags>  (177) 
1

>  <s_epik_input>  (177) 
W0NIM10vW0NIXT1DKC9DMT1PKVtDQEBIXShbQ0gyXTIpW0NAQF0zKFtDQF0xMjQpW0NAQEhdNVtDQEBdNihbQ0hdPVtDSF00KVtDQEBIXShbQ0gyXVtDQEBdNShPW0NIXShbQ0gzXSlbQ0gzXSlDKD1PKU9bQ0gzXSlbQ0BASF0oW0NIMl1ONltDSDJdW0NIMl0zKVtDSDJdT0MoPU8pW0NIM10=

>  <s_epik_cmdline>  (177) 
J2VwaWtfcHl0aG9uJywgJy1waHQnLCAnMi4wJywgJy1waCcsICc3LjAnLCAnLXRuJywgJzgnLCAnLW1hJywgJzIwMCcsICctaW1hZScsICc8aW5maWxlLm1hZT4nLCAnLW9tYWUnLCAnPG91dGZpbGUubWFlPic=

>  <r_epik_Ionization_Penalty>  (177) 
0.375726

>  <r_epik_Ionization_Penalty_Charging>  (177) 
0

>  <r_epik_Ionization_Penalty_Neutral>  (177) 
0.375726

>  <r_epik_State_Penalty>  (177) 
0.373459

>  <r_epik_Charging_Adjusted_Penalty>  (177) 
0.373459

>  <i_epik_Tot_Q>  (177) 
0

>  <i_epik_Tot_abs_Q>  (177) 
0

>  <s_epik_Chemistry_Notes>  (177) 
This compound has an ester and may undergo hydrolysis at high or low pH.

>  <s_lp_Force_Field>  (177) 
OPLS3e

>  <r_lp_Energy>  (177) 
92.8445

>  <b_lp_Chiralities_Consistent>  (177) 
1

>  <s_lp_Variant>  (177) 
48:0-1

>  <s_i_glide_gridfile>  (177) 
pfpi4k_grid

>  <i_i_glide_lignum>  (177) 
29

>  <i_i_glide_rotatable_bonds>  (177) 
7

>  <r_i_docking_score>  (177) 
-1.98019

>  <r_i_glide_ligand_efficiency>  (177) 
-0.058241

>  <r_i_glide_ligand_efficiency_sa>  (177) 
-0.188678

>  <r_i_glide_ligand_efficiency_ln>  (177) 
-0.43748

>  <r_i_glide_gscore>  (177) 
-1.98019

>  <r_i_glide_lipo>  (177) 
-0.158598

>  <r_i_glide_hbond>  (177) 
-0.25471

>  <r_i_glide_metal>  (177) 
-0

>  <r_i_glide_rewards>  (177) 
-0.228732

>  <r_i_glide_evdw>  (177) 
-21.5111

>  <r_i_glide_ecoul>  (177) 
-3.77888

>  <r_i_glide_erotb>  (177) 
0.36642

>  <r_i_glide_esite>  (177) 
-0.0621853

>  <r_i_glide_emodel>  (177) 
-27.6925

>  <r_i_glide_energy>  (177) 
-25.29

>  <r_i_glide_einternal>  (177) 
2.88782

>  <r_i_glide_intrahb_reward>  (177) 
-0

>  <i_i_glide_confnum>  (177) 
1

>  <i_i_glide_posenum>  (177) 
5

>  <r_i_glide_eff_state_penalty>  (177) 
0

>  <ligand_id>  (177) 
48

>  <original_smiles>  (177) 
CC=C1C(=O)C23C=CC45C6CC(OC(C)C)(C(=O)OC)C4C2(CCN5CC6COC(C)=O)C1C3

>  <smiles>  (177) 
[H]C(=C1C(=O)C23C([H])=C([H])C45N6C([H])([H])C([H])([H])C2(C1([H])C3([H])[H])C4([H])C(OC([H])(C([H])([H])[H])C([H])([H])[H])(C(=O)OC([H])([H])[H])C([H])([H])C5([H])C([H])(C([H])([H])OC(=O)C([H])([H])[H])C6([H])[H])C([H])([H])[H]

$$$$
48:0:2
     RDKit          3D

 69 74  0  0  1  0  0  0  0  0999 V2000
   -2.6660    1.8500    7.1035 C   0  0  0  0  0  0  0  0  0  0  0  0
   -2.1685    0.5015    6.5141 C   0  0  0  0  0  0  0  0  0  0  0  0
   -0.9448    0.0185    6.5287 C   0  0  0  0  0  0  0  0  0  0  0  0
   -0.4894   -1.2927    6.0458 C   0  0  0  0  0  0  0  0  0  0  0  0
   -1.1681   -2.2227    5.5805 O   0  0  0  0  0  0  0  0  0  0  0  0
    0.9814   -1.1098    6.3410 C   0  0  1  0  0  0  0  0  0  0  0  0
    1.9023   -2.1478    5.6867 C   0  0  0  0  0  0  0  0  0  0  0  0
    2.5443   -1.8464    4.5271 C   0  0  0  0  0  0  0  0  0  0  0  0
    2.5178   -0.4318    3.8856 C   0  0  1  0  0  0  0  0  0  0  0  0
    2.4533   -0.3185    2.3639 C   0  0  1  0  0  0  0  0  0  0  0  0
    1.5904    0.9588    2.1065 C   0  0  0  0  0  0  0  0  0  0  0  0
    1.1762    1.6369    3.4823 C   0  0  1  0  0  0  0  0  0  0  0  0
    2.0651    2.6582    3.9605 O   0  0  0  0  0  0  0  0  0  0  0  0
    2.1562    3.9552    3.3535 C   0  0  0  0  0  0  0  0  0  0  0  0
    3.2611    4.6544    4.1533 C   0  0  0  0  0  0  0  0  0  0  0  0
    0.9048    4.8629    3.4617 C   0  0  0  0  0  0  0  0  0  0  0  0
   -0.2646    2.1121    3.5261 C   0  0  0  0  0  0  0  0  0  0  0  0
   -1.0711    1.9896    2.6090 O   0  0  0  0  0  0  0  0  0  0  0  0
   -0.5535    2.7428    4.6841 O   0  0  0  0  0  0  0  0  0  0  0  0
   -1.7436    3.4503    4.7993 C   0  0  0  0  0  0  0  0  0  0  0  0
    1.3284    0.3746    4.3894 C   0  0  2  0  0  0  0  0  0  0  0  0
    1.4395    0.3491    5.9637 C   0  0  2  0  0  0  0  0  0  0  0  0
    2.8266    0.9657    6.3401 C   0  0  0  0  0  0  0  0  0  0  0  0
    4.0456    0.3928    5.5857 C   0  0  0  0  0  0  0  0  0  0  0  0
    3.7364    0.3083    4.1701 N   0  0  0  0  0  0  0  0  0  0  0  0
    4.7300   -0.1654    3.2263 C   0  0  0  0  0  0  0  0  0  0  0  0
    3.9263   -0.2172    1.9141 C   0  0  1  0  0  0  0  0  0  0  0  0
    4.3821   -1.3634    0.9891 C   0  0  0  0  0  0  0  0  0  0  0  0
    3.8293   -1.2029   -0.3147 O   0  0  0  0  0  0  0  0  0  0  0  0
    4.6056   -1.2548   -1.4146 C   0  0  0  0  0  0  0  0  0  0  0  0
    3.8122   -1.0577   -2.7038 C   0  0  0  0  0  0  0  0  0  0  0  0
    5.8277   -1.4197   -1.4418 O   0  0  0  0  0  0  0  0  0  0  0  0
    0.3474    0.5606    7.0478 C   0  0  2  0  0  0  0  0  0  0  0  0
    1.0245   -0.6458    7.7938 C   0  0  0  0  0  0  0  0  0  0  0  0
   -3.1930    2.3739    6.3808 H   0  0  0  0  0  0  0  0  0  0  0  0
   -1.7924    2.4254    7.4134 H   0  0  0  0  0  0  0  0  0  0  0  0
   -3.2447    1.7318    8.0277 H   0  0  0  0  0  0  0  0  0  0  0  0
   -2.8626   -0.1333    6.0080 H   0  0  0  0  0  0  0  0  0  0  0  0
    1.9633   -3.1168    6.1499 H   0  0  0  0  0  0  0  0  0  0  0  0
    3.1589   -2.5882    4.0414 H   0  0  0  0  0  0  0  0  0  0  0  0
    1.9611   -1.1774    1.9050 H   0  0  0  0  0  0  0  0  0  0  0  0
    2.0653    1.6879    1.4670 H   0  0  0  0  0  0  0  0  0  0  0  0
    0.7081    0.6351    1.5597 H   0  0  0  0  0  0  0  0  0  0  0  0
    2.4777    3.8461    2.3098 H   0  0  0  0  0  0  0  0  0  0  0  0
    3.4132    5.6712    3.7989 H   0  0  0  0  0  0  0  0  0  0  0  0
    4.2095    4.1227    4.0876 H   0  0  0  0  0  0  0  0  0  0  0  0
    3.0088    4.7162    5.2131 H   0  0  0  0  0  0  0  0  0  0  0  0
    1.0940    5.8593    3.0546 H   0  0  0  0  0  0  0  0  0  0  0  0
    0.5908    4.9519    4.5112 H   0  0  0  0  0  0  0  0  0  0  0  0
    0.0772    4.4110    2.9290 H   0  0  0  0  0  0  0  0  0  0  0  0
   -1.7584    3.9058    5.7950 H   0  0  0  0  0  0  0  0  0  0  0  0
   -2.6174    2.8095    4.7413 H   0  0  0  0  0  0  0  0  0  0  0  0
   -1.7470    4.2843    4.0932 H   0  0  0  0  0  0  0  0  0  0  0  0
    0.4887   -0.2289    4.0714 H   0  0  0  0  0  0  0  0  0  0  0  0
    2.7785    2.0347    6.1577 H   0  0  0  0  0  0  0  0  0  0  0  0
    3.0647    0.9328    7.4028 H   0  0  0  0  0  0  0  0  0  0  0  0
    4.8952    1.0555    5.7110 H   0  0  0  0  0  0  0  0  0  0  0  0
    4.3260   -0.5794    5.9782 H   0  0  0  0  0  0  0  0  0  0  0  0
    5.5663    0.5302    3.1820 H   0  0  0  0  0  0  0  0  0  0  0  0
    5.0974   -1.1462    3.5170 H   0  0  0  0  0  0  0  0  0  0  0  0
    4.0950    0.7228    1.3888 H   0  0  0  0  0  0  0  0  0  0  0  0
    5.4685   -1.3941    0.9588 H   0  0  0  0  0  0  0  0  0  0  0  0
    4.0522   -2.3203    1.3899 H   0  0  0  0  0  0  0  0  0  0  0  0
    3.5032   -0.0171   -2.7981 H   0  0  0  0  0  0  0  0  0  0  0  0
    2.9185   -1.6824   -2.7111 H   0  0  0  0  0  0  0  0  0  0  0  0
    4.4226   -1.3143   -3.5719 H   0  0  0  0  0  0  0  0  0  0  0  0
    0.3009    1.5222    7.5686 H   0  0  0  0  0  0  0  0  0  0  0  0
    0.3352   -1.1736    8.4671 H   0  0  0  0  0  0  0  0  0  0  0  0
    1.9780   -0.4916    8.2903 H   0  0  0  0  0  0  0  0  0  0  0  0
  1  2  1  0
  1 35  1  0
  1 36  1  0
  1 37  1  0
  2  3  2  3
  2 38  1  0
  3 33  1  0
  3  4  1  0
  4  5  2  0
  4  6  1  0
  6 22  1  0
  6 34  1  0
  6  7  1  1
  7  8  2  0
  7 39  1  0
  9  8  1  6
  8 40  1  0
  9 21  1  0
  9 25  1  0
  9 10  1  0
 10 27  1  0
 10 11  1  0
 10 41  1  6
 11 12  1  0
 11 42  1  0
 11 43  1  0
 12 13  1  1
 12 17  1  0
 12 21  1  0
 13 14  1  0
 14 15  1  0
 14 16  1  0
 14 44  1  0
 15 45  1  0
 15 46  1  0
 15 47  1  0
 16 48  1  0
 16 49  1  0
 16 50  1  0
 17 18  2  0
 17 19  1  0
 19 20  1  0
 20 51  1  0
 20 52  1  0
 20 53  1  0
 21 22  1  0
 21 54  1  1
 22 23  1  1
 22 33  1  0
 23 24  1  0
 23 55  1  0
 23 56  1  0
 24 25  1  0
 24 57  1  0
 24 58  1  0
 25 26  1  0
 26 27  1  0
 26 59  1  0
 26 60  1  0
 27 28  1  0
 27 61  1  6
 28 29  1  0
 28 62  1  0
 28 63  1  0
 29 30  1  0
 30 31  1  0
 30 32  2  0
 31 64  1  0
 31 65  1  0
 31 66  1  0
 33 34  1  0
 33 67  1  1
 34 68  1  0
 34 69  1  0
M  END
>  <i_m_ct_stereo_status>  (178) 
1

>  <s_m_source_file>  (178) 
/var/tmp/pbs.5076255.sched01/tmp276pg2sv/48_ir7zhrj.sdf

>  <i_m_source_file_index>  (178) 
29

>  <i_lp_mmshare_version>  (178) 
48012

>  <i_f3d_flags>  (178) 
1

>  <s_epik_input>  (178) 
W0NIM10vW0NIXT1DKC9DMT1PKVtDQEBIXShbQ0gyXTIpW0NAQF0zKFtDQF0xMjQpW0NAQEhdNVtDQEBdNihbQ0hdPVtDSF00KVtDQEBIXShbQ0gyXVtDQEBdNShPW0NIXShbQ0gzXSlbQ0gzXSlDKD1PKU9bQ0gzXSlbQ0BASF0oW0NIMl1ONltDSDJdW0NIMl0zKVtDSDJdT0MoPU8pW0NIM10=

>  <s_epik_cmdline>  (178) 
J2VwaWtfcHl0aG9uJywgJy1waHQnLCAnMi4wJywgJy1waCcsICc3LjAnLCAnLXRuJywgJzgnLCAnLW1hJywgJzIwMCcsICctaW1hZScsICc8aW5maWxlLm1hZT4nLCAnLW9tYWUnLCAnPG91dGZpbGUubWFlPic=

>  <r_epik_Ionization_Penalty>  (178) 
0.375726

>  <r_epik_Ionization_Penalty_Charging>  (178) 
0

>  <r_epik_Ionization_Penalty_Neutral>  (178) 
0.375726

>  <r_epik_State_Penalty>  (178) 
0.373459

>  <r_epik_Charging_Adjusted_Penalty>  (178) 
0.373459

>  <i_epik_Tot_Q>  (178) 
0

>  <i_epik_Tot_abs_Q>  (178) 
0

>  <s_epik_Chemistry_Notes>  (178) 
This compound has an ester and may undergo hydrolysis at high or low pH.

>  <s_lp_Force_Field>  (178) 
OPLS3e

>  <r_lp_Energy>  (178) 
92.8445

>  <b_lp_Chiralities_Consistent>  (178) 
1

>  <s_lp_Variant>  (178) 
48:0-1

>  <s_i_glide_gridfile>  (178) 
pfpi4k_grid

>  <i_i_glide_lignum>  (178) 
29

>  <i_i_glide_rotatable_bonds>  (178) 
7

>  <r_i_docking_score>  (178) 
-1.82628

>  <r_i_glide_ligand_efficiency>  (178) 
-0.0537142

>  <r_i_glide_ligand_efficiency_sa>  (178) 
-0.174013

>  <r_i_glide_ligand_efficiency_ln>  (178) 
-0.403477

>  <r_i_glide_gscore>  (178) 
-1.82628

>  <r_i_glide_lipo>  (178) 
-0.129589

>  <r_i_glide_hbond>  (178) 
-0.0804046

>  <r_i_glide_metal>  (178) 
-0

>  <r_i_glide_rewards>  (178) 
-0.207478

>  <r_i_glide_evdw>  (178) 
-32.3148

>  <r_i_glide_ecoul>  (178) 
-0.165658

>  <r_i_glide_erotb>  (178) 
0.36642

>  <r_i_glide_esite>  (178) 
-0.134643

>  <r_i_glide_emodel>  (178) 
-32.2157

>  <r_i_glide_energy>  (178) 
-32.4804

>  <r_i_glide_einternal>  (178) 
3.85737

>  <r_i_glide_intrahb_reward>  (178) 
-0

>  <i_i_glide_confnum>  (178) 
3

>  <i_i_glide_posenum>  (178) 
11

>  <r_i_glide_eff_state_penalty>  (178) 
0

>  <ligand_id>  (178) 
48

>  <original_smiles>  (178) 
CC=C1C(=O)C23C=CC45C6CC(OC(C)C)(C(=O)OC)C4C2(CCN5CC6COC(C)=O)C1C3

>  <smiles>  (178) 
[H]C(=C1C(=O)C23C([H])=C([H])C45N6C([H])([H])C([H])([H])C2(C1([H])C3([H])[H])C4([H])C(OC([H])(C([H])([H])[H])C([H])([H])[H])(C(=O)OC([H])([H])[H])C([H])([H])C5([H])C([H])(C([H])([H])OC(=O)C([H])([H])[H])C6([H])[H])C([H])([H])[H]

$$$$
48:1:0
     RDKit          3D

 69 74  0  0  1  0  0  0  0  0999 V2000
    1.6926   -8.8584    2.0480 C   0  0  0  0  0  0  0  0  0  0  0  0
    2.8110   -7.9680    2.5317 C   0  0  0  0  0  0  0  0  0  0  0  0
    3.0399   -6.6805    2.2578 C   0  0  0  0  0  0  0  0  0  0  0  0
    2.3322   -5.7370    1.3884 C   0  0  0  0  0  0  0  0  0  0  0  0
    1.3195   -5.9290    0.6935 O   0  0  0  0  0  0  0  0  0  0  0  0
    3.1544   -4.5167    1.7170 C   0  0  1  0  0  0  0  0  0  0  0  0
    2.5404   -3.1904    1.2239 C   0  0  0  0  0  0  0  0  0  0  0  0
    1.8494   -2.4023    2.0901 C   0  0  0  0  0  0  0  0  0  0  0  0
    1.7657   -2.7035    3.6112 C   0  0  1  0  0  0  0  0  0  0  0  0
    0.4486   -2.4203    4.3339 C   0  0  1  0  0  0  0  0  0  0  0  0
    0.3932   -3.4979    5.4651 C   0  0  0  0  0  0  0  0  0  0  0  0
    1.6718   -4.4342    5.4035 C   0  0  1  0  0  0  0  0  0  0  0  0
    2.7343   -4.0540    6.2817 O   0  0  0  0  0  0  0  0  0  0  0  0
    2.5682   -4.0493    7.7025 C   0  0  0  0  0  0  0  0  0  0  0  0
    3.8366   -3.3931    8.2625 C   0  0  0  0  0  0  0  0  0  0  0  0
    2.3740   -5.4596    8.3100 C   0  0  0  0  0  0  0  0  0  0  0  0
    1.3590   -5.9378    5.5563 C   0  0  0  0  0  0  0  0  0  0  0  0
    0.2214   -6.3669    5.7907 O   0  0  0  0  0  0  0  0  0  0  0  0
    2.4555   -6.7035    5.4274 O   0  0  0  0  0  0  0  0  0  0  0  0
    2.3809   -8.0988    5.6728 C   0  0  0  0  0  0  0  0  0  0  0  0
    2.0629   -4.1690    3.9182 C   0  0  2  0  0  0  0  0  0  0  0  0
    3.4676   -4.4338    3.2603 C   0  0  2  0  0  0  0  0  0  0  0  0
    4.4785   -3.4229    3.8965 C   0  0  0  0  0  0  0  0  0  0  0  0
    4.0463   -1.9351    3.9118 C   0  0  0  0  0  0  0  0  0  0  0  0
    2.6712   -1.8535    4.3783 N   0  0  0  0  0  0  0  0  0  0  0  0
    2.0155   -0.5589    4.5094 C   0  0  0  0  0  0  0  0  0  0  0  0
    0.5571   -0.9624    4.8161 C   0  0  1  0  0  0  0  0  0  0  0  0
   -0.4719   -0.0233    4.1508 C   0  0  0  0  0  0  0  0  0  0  0  0
   -0.5283    1.2467    4.7853 O   0  0  0  0  0  0  0  0  0  0  0  0
   -1.2949    1.4154    5.8815 C   0  0  0  0  0  0  0  0  0  0  0  0
   -1.2668    2.8469    6.4026 C   0  0  0  0  0  0  0  0  0  0  0  0
   -1.9584    0.5430    6.4292 O   0  0  0  0  0  0  0  0  0  0  0  0
    4.1040   -5.7729    2.7844 C   0  0  2  0  0  0  0  0  0  0  0  0
    4.6076   -4.9542    1.5334 C   0  0  0  0  0  0  0  0  0  0  0  0
    1.1000   -9.2297    2.9047 H   0  0  0  0  0  0  0  0  0  0  0  0
    2.1118   -9.7254    1.5377 H   0  0  0  0  0  0  0  0  0  0  0  0
    1.0174   -8.3456    1.3738 H   0  0  0  0  0  0  0  0  0  0  0  0
    3.5062   -8.4642    3.2051 H   0  0  0  0  0  0  0  0  0  0  0  0
    2.6205   -2.9620    0.1675 H   0  0  0  0  0  0  0  0  0  0  0  0
    1.3813   -1.4986    1.7318 H   0  0  0  0  0  0  0  0  0  0  0  0
   -0.4108   -2.5602    3.6744 H   0  0  0  0  0  0  0  0  0  0  0  0
    0.3095   -3.0507    6.4431 H   0  0  0  0  0  0  0  0  0  0  0  0
   -0.5247   -4.0667    5.3362 H   0  0  0  0  0  0  0  0  0  0  0  0
    1.7274   -3.4237    7.9886 H   0  0  0  0  0  0  0  0  0  0  0  0
    3.7927   -3.3736    9.3467 H   0  0  0  0  0  0  0  0  0  0  0  0
    3.9576   -2.3657    7.9153 H   0  0  0  0  0  0  0  0  0  0  0  0
    4.7280   -3.9519    7.9788 H   0  0  0  0  0  0  0  0  0  0  0  0
    2.4925   -5.4199    9.3946 H   0  0  0  0  0  0  0  0  0  0  0  0
    3.1989   -6.1024    7.9656 H   0  0  0  0  0  0  0  0  0  0  0  0
    1.4409   -5.9025    7.9700 H   0  0  0  0  0  0  0  0  0  0  0  0
    3.3655   -8.5347    5.4739 H   0  0  0  0  0  0  0  0  0  0  0  0
    1.6447   -8.5979    5.0437 H   0  0  0  0  0  0  0  0  0  0  0  0
    2.1437   -8.2743    6.7182 H   0  0  0  0  0  0  0  0  0  0  0  0
    1.2996   -4.6874    3.3497 H   0  0  0  0  0  0  0  0  0  0  0  0
    4.6702   -3.7354    4.9151 H   0  0  0  0  0  0  0  0  0  0  0  0
    5.4933   -3.4359    3.4697 H   0  0  0  0  0  0  0  0  0  0  0  0
    4.6662   -1.3753    4.6046 H   0  0  0  0  0  0  0  0  0  0  0  0
    4.1325   -1.4838    2.9305 H   0  0  0  0  0  0  0  0  0  0  0  0
    2.4682    0.0190    5.3040 H   0  0  0  0  0  0  0  0  0  0  0  0
    2.0994   -0.0168    3.5758 H   0  0  0  0  0  0  0  0  0  0  0  0
    0.4279   -0.9351    5.8984 H   0  0  0  0  0  0  0  0  0  0  0  0
   -0.2219    0.1250    3.0990 H   0  0  0  0  0  0  0  0  0  0  0  0
   -1.4618   -0.4863    4.1625 H   0  0  0  0  0  0  0  0  0  0  0  0
   -2.0679    3.4253    5.9419 H   0  0  0  0  0  0  0  0  0  0  0  0
   -0.3137    3.3256    6.1692 H   0  0  0  0  0  0  0  0  0  0  0  0
   -1.4042    2.8682    7.4850 H   0  0  0  0  0  0  0  0  0  0  0  0
    4.8890   -6.2331    3.4365 H   0  0  0  0  0  0  0  0  0  0  0  0
    4.7946   -5.5954    0.6486 H   0  0  0  0  0  0  0  0  0  0  0  0
    5.3892   -4.2432    1.6422 H   0  0  0  0  0  0  0  0  0  0  0  0
  1  2  1  0
  1 35  1  0
  1 36  1  0
  1 37  1  0
  2  3  2  3
  2 38  1  0
  3 33  1  0
  3  4  1  0
  4  5  2  0
  4  6  1  0
  6 22  1  0
  6 34  1  0
  6  7  1  6
  7  8  2  0
  7 39  1  0
  9  8  1  6
  8 40  1  0
  9 21  1  0
  9 25  1  0
  9 10  1  0
 10 27  1  0
 10 11  1  0
 10 41  1  6
 11 12  1  0
 11 42  1  0
 11 43  1  0
 12 13  1  1
 12 17  1  0
 12 21  1  0
 13 14  1  0
 14 15  1  0
 14 16  1  0
 14 44  1  0
 15 45  1  0
 15 46  1  0
 15 47  1  0
 16 48  1  0
 16 49  1  0
 16 50  1  0
 17 18  2  0
 17 19  1  0
 19 20  1  0
 20 51  1  0
 20 52  1  0
 20 53  1  0
 21 22  1  0
 21 54  1  6
 22 23  1  6
 22 33  1  0
 23 24  1  0
 23 55  1  0
 23 56  1  0
 24 25  1  0
 24 57  1  0
 24 58  1  0
 25 26  1  0
 26 27  1  0
 26 59  1  0
 26 60  1  0
 27 28  1  0
 27 61  1  1
 28 29  1  0
 28 62  1  0
 28 63  1  0
 29 30  1  0
 30 31  1  0
 30 32  2  0
 31 64  1  0
 31 65  1  0
 31 66  1  0
 33 34  1  0
 33 67  1  1
 34 68  1  0
 34 69  1  0
M  END
>  <i_m_ct_stereo_status>  (179) 
1

>  <s_m_source_file>  (179) 
/var/tmp/pbs.5076255.sched01/tmp276pg2sv/48_ir7zhrj.sdf

>  <i_m_source_file_index>  (179) 
30

>  <i_lp_mmshare_version>  (179) 
48012

>  <i_f3d_flags>  (179) 
1

>  <s_epik_input>  (179) 
W0NIM10vW0NIXT1DKC9DMT1PKVtDQEBIXShbQ0gyXTIpW0NAQF0zKFtDQF0xMjQpW0NAQEhdNVtDQEBdNihbQ0hdPVtDSF00KVtDQEBIXShbQ0gyXVtDQEBdNShPW0NIXShbQ0gzXSlbQ0gzXSlDKD1PKU9bQ0gzXSlbQ0BASF0oW0NIMl1ONltDSDJdW0NIMl0zKVtDSDJdT0MoPU8pW0NIM10=

>  <s_epik_cmdline>  (179) 
J2VwaWtfcHl0aG9uJywgJy1waHQnLCAnMi4wJywgJy1waCcsICc3LjAnLCAnLXRuJywgJzgnLCAnLW1hJywgJzIwMCcsICctaW1hZScsICc8aW5maWxlLm1hZT4nLCAnLW9tYWUnLCAnPG91dGZpbGUubWFlPic=

>  <r_epik_Ionization_Penalty>  (179) 
0.375726

>  <r_epik_Ionization_Penalty_Charging>  (179) 
0

>  <r_epik_Ionization_Penalty_Neutral>  (179) 
0.375726

>  <r_epik_State_Penalty>  (179) 
0.373459

>  <r_epik_Charging_Adjusted_Penalty>  (179) 
0.373459

>  <i_epik_Tot_Q>  (179) 
0

>  <i_epik_Tot_abs_Q>  (179) 
0

>  <s_epik_Chemistry_Notes>  (179) 
This compound has an ester and may undergo hydrolysis at high or low pH.

>  <s_lp_Force_Field>  (179) 
OPLS3e

>  <r_lp_Energy>  (179) 
92.846

>  <b_lp_Chiralities_Consistent>  (179) 
1

>  <s_lp_Variant>  (179) 
48:0-2

>  <s_i_glide_gridfile>  (179) 
pfpi4k_grid

>  <i_i_glide_lignum>  (179) 
30

>  <i_i_glide_rotatable_bonds>  (179) 
7

>  <r_i_docking_score>  (179) 
-2.69288

>  <r_i_glide_ligand_efficiency>  (179) 
-0.0792024

>  <r_i_glide_ligand_efficiency_sa>  (179) 
-0.256585

>  <r_i_glide_ligand_efficiency_ln>  (179) 
-0.594933

>  <r_i_glide_gscore>  (179) 
-2.69288

>  <r_i_glide_lipo>  (179) 
-0.150144

>  <r_i_glide_hbond>  (179) 
-0.32

>  <r_i_glide_metal>  (179) 
-0

>  <r_i_glide_rewards>  (179) 
-0.207478

>  <r_i_glide_evdw>  (179) 
-24.1321

>  <r_i_glide_ecoul>  (179) 
-7.50036

>  <r_i_glide_erotb>  (179) 
0.36642

>  <r_i_glide_esite>  (179) 
-0.0500211

>  <r_i_glide_emodel>  (179) 
-36.1593

>  <r_i_glide_energy>  (179) 
-31.6325

>  <r_i_glide_einternal>  (179) 
0.36145

>  <r_i_glide_intrahb_reward>  (179) 
-0

>  <i_i_glide_confnum>  (179) 
2

>  <i_i_glide_posenum>  (179) 
18

>  <r_i_glide_eff_state_penalty>  (179) 
0

>  <ligand_id>  (179) 
48

>  <original_smiles>  (179) 
CC=C1C(=O)C23C=CC45C6CC(OC(C)C)(C(=O)OC)C4C2(CCN5CC6COC(C)=O)C1C3

>  <smiles>  (179) 
[H]C(=C1C(=O)C23C([H])=C([H])C45N6C([H])([H])C([H])([H])C2(C1([H])C3([H])[H])C4([H])C(OC([H])(C([H])([H])[H])C([H])([H])[H])(C(=O)OC([H])([H])[H])C([H])([H])C5([H])C([H])(C([H])([H])OC(=O)C([H])([H])[H])C6([H])[H])C([H])([H])[H]

$$$$
48:1:1
     RDKit          3D

 69 74  0  0  1  0  0  0  0  0999 V2000
   -2.1568    1.3917    7.0370 C   0  0  0  0  0  0  0  0  0  0  0  0
   -0.9916    0.5232    7.4693 C   0  0  0  0  0  0  0  0  0  0  0  0
   -0.4697   -0.5177    6.8539 C   0  0  0  0  0  0  0  0  0  0  0  0
   -0.8441   -1.2061    5.6442 C   0  0  0  0  0  0  0  0  0  0  0  0
   -1.8016   -1.0204    4.8985 O   0  0  0  0  0  0  0  0  0  0  0  0
    0.3157   -2.2352    5.6268 C   0  0  1  0  0  0  0  0  0  0  0  0
    0.4524   -2.9713    4.2950 C   0  0  0  0  0  0  0  0  0  0  0  0
    1.3839   -2.5733    3.3874 C   0  0  0  0  0  0  0  0  0  0  0  0
    2.4201   -1.4588    3.6889 C   0  0  1  0  0  0  0  0  0  0  0  0
    2.8013   -0.4986    2.5687 C   0  0  1  0  0  0  0  0  0  0  0  0
    3.1020    0.8431    3.3123 C   0  0  0  0  0  0  0  0  0  0  0  0
    2.8712    0.6637    4.8468 C   0  0  1  0  0  0  0  0  0  0  0  0
    4.0719    0.3835    5.6014 O   0  0  0  0  0  0  0  0  0  0  0  0
    5.2179    1.2453    5.5831 C   0  0  0  0  0  0  0  0  0  0  0  0
    6.2935    0.5938    6.4499 C   0  0  0  0  0  0  0  0  0  0  0  0
    4.8847    2.6637    6.0951 C   0  0  0  0  0  0  0  0  0  0  0  0
    2.1658    1.8428    5.5345 C   0  0  0  0  0  0  0  0  0  0  0  0
    1.8662    2.9006    4.9136 O   0  0  0  0  0  0  0  0  0  0  0  0
    1.8708    1.6372    6.8162 O   0  0  0  0  0  0  0  0  0  0  0  0
    1.3024    2.6604    7.6118 C   0  0  0  0  0  0  0  0  0  0  0  0
    1.9431   -0.5714    4.8385 C   0  0  2  0  0  0  0  0  0  0  0  0
    1.6491   -1.5402    6.0177 C   0  0  2  0  0  0  0  0  0  0  0  0
    2.9813   -2.3322    6.3270 C   0  0  0  0  0  0  0  0  0  0  0  0
    3.6753   -2.9806    5.1064 C   0  0  0  0  0  0  0  0  0  0  0  0
    3.7266   -2.0127    4.0170 N   0  0  0  0  0  0  0  0  0  0  0  0
    4.3616   -2.3691    2.7678 C   0  0  0  0  0  0  0  0  0  0  0  0
    4.0259   -1.1615    1.8836 C   0  0  1  0  0  0  0  0  0  0  0  0
    3.7031   -1.5699    0.4358 C   0  0  0  0  0  0  0  0  0  0  0  0
    4.8612   -1.9770   -0.2696 O   0  0  0  0  0  0  0  0  0  0  0  0
    4.8087   -2.2791   -1.5860 C   0  0  0  0  0  0  0  0  0  0  0  0
    3.4259   -2.1952   -2.2537 C   0  0  0  0  0  0  0  0  0  0  0  0
    5.8002   -2.5923   -2.2484 O   0  0  0  0  0  0  0  0  0  0  0  0
    0.7401   -1.3504    7.2712 C   0  0  2  0  0  0  0  0  0  0  0  0
    0.2806   -2.8352    7.0146 C   0  0  0  0  0  0  0  0  0  0  0  0
   -1.8317    2.4226    6.8871 H   0  0  0  0  0  0  0  0  0  0  0  0
   -2.9250    1.3955    7.8153 H   0  0  0  0  0  0  0  0  0  0  0  0
   -2.5810    1.0409    6.0986 H   0  0  0  0  0  0  0  0  0  0  0  0
   -0.5432    0.8468    8.4090 H   0  0  0  0  0  0  0  0  0  0  0  0
   -0.2131   -3.7902    4.1091 H   0  0  0  0  0  0  0  0  0  0  0  0
    1.4637   -3.0766    2.4350 H   0  0  0  0  0  0  0  0  0  0  0  0
    1.9739   -0.3439    1.8643 H   0  0  0  0  0  0  0  0  0  0  0  0
    4.1042    1.1781    3.0971 H   0  0  0  0  0  0  0  0  0  0  0  0
    2.4581    1.6080    2.8810 H   0  0  0  0  0  0  0  0  0  0  0  0
    5.6064    1.3112    4.5772 H   0  0  0  0  0  0  0  0  0  0  0  0
    7.1756    1.2234    6.4819 H   0  0  0  0  0  0  0  0  0  0  0  0
    6.5913   -0.3769    6.0556 H   0  0  0  0  0  0  0  0  0  0  0  0
    5.9442    0.4538    7.4673 H   0  0  0  0  0  0  0  0  0  0  0  0
    5.8063    3.2666    6.2143 H   0  0  0  0  0  0  0  0  0  0  0  0
    4.4366    2.6006    7.0867 H   0  0  0  0  0  0  0  0  0  0  0  0
    4.1482    3.1517    5.4265 H   0  0  0  0  0  0  0  0  0  0  0  0
    1.1106    2.2742    8.6086 H   0  0  0  0  0  0  0  0  0  0  0  0
    0.3591    2.9985    7.1839 H   0  0  0  0  0  0  0  0  0  0  0  0
    1.9749    3.5146    7.7003 H   0  0  0  0  0  0  0  0  0  0  0  0
    1.0441   -0.1544    4.4532 H   0  0  0  0  0  0  0  0  0  0  0  0
    3.6825   -1.6513    6.7970 H   0  0  0  0  0  0  0  0  0  0  0  0
    2.8915   -3.1112    7.0845 H   0  0  0  0  0  0  0  0  0  0  0  0
    4.6979   -3.2529    5.3652 H   0  0  0  0  0  0  0  0  0  0  0  0
    3.1625   -3.8888    4.7938 H   0  0  0  0  0  0  0  0  0  0  0  0
    5.4368   -2.5107    2.8879 H   0  0  0  0  0  0  0  0  0  0  0  0
    3.9315   -3.2934    2.3763 H   0  0  0  0  0  0  0  0  0  0  0  0
    4.8665   -0.4736    1.8704 H   0  0  0  0  0  0  0  0  0  0  0  0
    2.9781   -2.3745    0.4536 H   0  0  0  0  0  0  0  0  0  0  0  0
    3.2702   -0.7152   -0.0747 H   0  0  0  0  0  0  0  0  0  0  0  0
    3.2477   -1.1732   -2.6029 H   0  0  0  0  0  0  0  0  0  0  0  0
    2.6102   -2.4668   -1.5839 H   0  0  0  0  0  0  0  0  0  0  0  0
    3.3613   -2.8691   -3.1158 H   0  0  0  0  0  0  0  0  0  0  0  0
    1.2070   -1.1170    8.2322 H   0  0  0  0  0  0  0  0  0  0  0  0
   -0.6958   -3.0724    7.4085 H   0  0  0  0  0  0  0  0  0  0  0  0
    0.9730   -3.6530    7.2418 H   0  0  0  0  0  0  0  0  0  0  0  0
  1  2  1  0
  1 35  1  0
  1 36  1  0
  1 37  1  0
  2  3  2  3
  2 38  1  0
  3 33  1  0
  3  4  1  0
  4  5  2  0
  4  6  1  0
  6 22  1  0
  6 34  1  0
  6  7  1  6
  7  8  2  0
  7 39  1  0
  9  8  1  6
  8 40  1  0
  9 21  1  0
  9 25  1  0
  9 10  1  0
 10 27  1  0
 10 11  1  0
 10 41  1  6
 11 12  1  0
 11 42  1  0
 11 43  1  0
 12 13  1  1
 12 17  1  0
 12 21  1  0
 13 14  1  0
 14 15  1  0
 14 16  1  0
 14 44  1  0
 15 45  1  0
 15 46  1  0
 15 47  1  0
 16 48  1  0
 16 49  1  0
 16 50  1  0
 17 18  2  0
 17 19  1  0
 19 20  1  0
 20 51  1  0
 20 52  1  0
 20 53  1  0
 21 22  1  0
 21 54  1  6
 22 23  1  1
 22 33  1  0
 23 24  1  0
 23 55  1  0
 23 56  1  0
 24 25  1  0
 24 57  1  0
 24 58  1  0
 25 26  1  0
 26 27  1  0
 26 59  1  0
 26 60  1  0
 27 28  1  0
 27 61  1  6
 28 29  1  0
 28 62  1  0
 28 63  1  0
 29 30  1  0
 30 31  1  0
 30 32  2  0
 31 64  1  0
 31 65  1  0
 31 66  1  0
 33 34  1  0
 33 67  1  1
 34 68  1  0
 34 69  1  0
M  END
>  <i_m_ct_stereo_status>  (180) 
1

>  <s_m_source_file>  (180) 
/var/tmp/pbs.5076255.sched01/tmp276pg2sv/48_ir7zhrj.sdf

>  <i_m_source_file_index>  (180) 
30

>  <i_lp_mmshare_version>  (180) 
48012

>  <i_f3d_flags>  (180) 
1

>  <s_epik_input>  (180) 
W0NIM10vW0NIXT1DKC9DMT1PKVtDQEBIXShbQ0gyXTIpW0NAQF0zKFtDQF0xMjQpW0NAQEhdNVtDQEBdNihbQ0hdPVtDSF00KVtDQEBIXShbQ0gyXVtDQEBdNShPW0NIXShbQ0gzXSlbQ0gzXSlDKD1PKU9bQ0gzXSlbQ0BASF0oW0NIMl1ONltDSDJdW0NIMl0zKVtDSDJdT0MoPU8pW0NIM10=

>  <s_epik_cmdline>  (180) 
J2VwaWtfcHl0aG9uJywgJy1waHQnLCAnMi4wJywgJy1waCcsICc3LjAnLCAnLXRuJywgJzgnLCAnLW1hJywgJzIwMCcsICctaW1hZScsICc8aW5maWxlLm1hZT4nLCAnLW9tYWUnLCAnPG91dGZpbGUubWFlPic=

>  <r_epik_Ionization_Penalty>  (180) 
0.375726

>  <r_epik_Ionization_Penalty_Charging>  (180) 
0

>  <r_epik_Ionization_Penalty_Neutral>  (180) 
0.375726

>  <r_epik_State_Penalty>  (180) 
0.373459

>  <r_epik_Charging_Adjusted_Penalty>  (180) 
0.373459

>  <i_epik_Tot_Q>  (180) 
0

>  <i_epik_Tot_abs_Q>  (180) 
0

>  <s_epik_Chemistry_Notes>  (180) 
This compound has an ester and may undergo hydrolysis at high or low pH.

>  <s_lp_Force_Field>  (180) 
OPLS3e

>  <r_lp_Energy>  (180) 
92.846

>  <b_lp_Chiralities_Consistent>  (180) 
1

>  <s_lp_Variant>  (180) 
48:0-2

>  <s_i_glide_gridfile>  (180) 
pfpi4k_grid

>  <i_i_glide_lignum>  (180) 
30

>  <i_i_glide_rotatable_bonds>  (180) 
7

>  <r_i_docking_score>  (180) 
-1.90581

>  <r_i_glide_ligand_efficiency>  (180) 
-0.0560534

>  <r_i_glide_ligand_efficiency_sa>  (180) 
-0.181591

>  <r_i_glide_ligand_efficiency_ln>  (180) 
-0.421048

>  <r_i_glide_gscore>  (180) 
-1.90581

>  <r_i_glide_lipo>  (180) 
-0.20558

>  <r_i_glide_hbond>  (180) 
0

>  <r_i_glide_metal>  (180) 
-0

>  <r_i_glide_rewards>  (180) 
-0.207478

>  <r_i_glide_evdw>  (180) 
-27.5991

>  <r_i_glide_ecoul>  (180) 
-2.73975

>  <r_i_glide_erotb>  (180) 
0.36642

>  <r_i_glide_esite>  (180) 
-0.0682592

>  <r_i_glide_emodel>  (180) 
-29.5841

>  <r_i_glide_energy>  (180) 
-30.3389

>  <r_i_glide_einternal>  (180) 
6.37341

>  <r_i_glide_intrahb_reward>  (180) 
-0

>  <i_i_glide_confnum>  (180) 
3

>  <i_i_glide_posenum>  (180) 
30

>  <r_i_glide_eff_state_penalty>  (180) 
0

>  <ligand_id>  (180) 
48

>  <original_smiles>  (180) 
CC=C1C(=O)C23C=CC45C6CC(OC(C)C)(C(=O)OC)C4C2(CCN5CC6COC(C)=O)C1C3

>  <smiles>  (180) 
[H]C(=C1C(=O)C23C([H])=C([H])C45N6C([H])([H])C([H])([H])C2(C1([H])C3([H])[H])C4([H])C(OC([H])(C([H])([H])[H])C([H])([H])[H])(C(=O)OC([H])([H])[H])C([H])([H])C5([H])C([H])(C([H])([H])OC(=O)C([H])([H])[H])C6([H])[H])C([H])([H])[H]

$$$$
48:1:2
     RDKit          3D

 69 74  0  0  1  0  0  0  0  0999 V2000
   -1.9892    1.3775    6.9126 C   0  0  0  0  0  0  0  0  0  0  0  0
   -0.8255    0.5199    7.3706 C   0  0  0  0  0  0  0  0  0  0  0  0
   -0.3252   -0.5737    6.8066 C   0  0  0  0  0  0  0  0  0  0  0  0
   -0.7568   -1.3300    5.6418 C   0  0  0  0  0  0  0  0  0  0  0  0
   -1.7304   -1.1386    4.9135 O   0  0  0  0  0  0  0  0  0  0  0  0
    0.3771   -2.3631    5.6496 C   0  0  1  0  0  0  0  0  0  0  0  0
    0.4883   -3.1890    4.3631 C   0  0  0  0  0  0  0  0  0  0  0  0
    1.3892   -2.8558    3.4020 C   0  0  0  0  0  0  0  0  0  0  0  0
    2.4546   -1.7492    3.6133 C   0  0  1  0  0  0  0  0  0  0  0  0
    2.8156   -0.8656    2.4232 C   0  0  1  0  0  0  0  0  0  0  0  0
    3.1754    0.5067    3.0805 C   0  0  0  0  0  0  0  0  0  0  0  0
    2.9763    0.4510    4.6415 C   0  0  1  0  0  0  0  0  0  0  0  0
    4.1800    0.1719    5.3854 O   0  0  0  0  0  0  0  0  0  0  0  0
    5.2678    1.0989    5.4162 C   0  0  0  0  0  0  0  0  0  0  0  0
    6.4167    0.4041    6.1654 C   0  0  0  0  0  0  0  0  0  0  0  0
    4.9348    2.4471    6.1078 C   0  0  0  0  0  0  0  0  0  0  0  0
    2.2712    1.6532    5.2611 C   0  0  0  0  0  0  0  0  0  0  0  0
    1.9573    2.6779    4.5874 O   0  0  0  0  0  0  0  0  0  0  0  0
    2.0052    1.5247    6.5567 O   0  0  0  0  0  0  0  0  0  0  0  0
    1.5240    2.6112    7.3154 C   0  0  0  0  0  0  0  0  0  0  0  0
    2.0359   -0.7845    4.7178 C   0  0  2  0  0  0  0  0  0  0  0  0
    1.7491   -1.6775    5.9692 C   0  0  2  0  0  0  0  0  0  0  0  0
    3.0651   -2.4776    6.2862 C   0  0  0  0  0  0  0  0  0  0  0  0
    3.7162   -3.2071    5.0893 C   0  0  0  0  0  0  0  0  0  0  0  0
    3.7602   -2.3170    3.9419 N   0  0  0  0  0  0  0  0  0  0  0  0
    4.3423   -2.7526    2.6862 C   0  0  0  0  0  0  0  0  0  0  0  0
    3.9869   -1.5987    1.7313 C   0  0  1  0  0  0  0  0  0  0  0  0
    3.6300   -2.0831    0.3124 C   0  0  0  0  0  0  0  0  0  0  0  0
    4.7216   -2.7726   -0.2907 O   0  0  0  0  0  0  0  0  0  0  0  0
    5.4777   -2.1757   -1.2313 C   0  0  0  0  0  0  0  0  0  0  0  0
    6.6185   -3.0486   -1.7230 C   0  0  0  0  0  0  0  0  0  0  0  0
    5.3232   -1.0421   -1.6820 O   0  0  0  0  0  0  0  0  0  0  0  0
    0.8705   -1.4014    7.2268 C   0  0  2  0  0  0  0  0  0  0  0  0
    0.3890   -2.8970    7.0741 C   0  0  0  0  0  0  0  0  0  0  0  0
   -1.6399    2.3905    6.6977 H   0  0  0  0  0  0  0  0  0  0  0  0
   -2.7261    1.4381    7.7146 H   0  0  0  0  0  0  0  0  0  0  0  0
   -2.4592    0.9800    6.0148 H   0  0  0  0  0  0  0  0  0  0  0  0
   -0.3388    0.8849    8.2676 H   0  0  0  0  0  0  0  0  0  0  0  0
   -0.1844   -4.0170    4.2347 H   0  0  0  0  0  0  0  0  0  0  0  0
    1.4425   -3.4193    2.4852 H   0  0  0  0  0  0  0  0  0  0  0  0
    1.9734   -0.7249    1.7383 H   0  0  0  0  0  0  0  0  0  0  0  0
    4.1800    0.8166    2.8401 H   0  0  0  0  0  0  0  0  0  0  0  0
    2.5371    1.2628    2.6221 H   0  0  0  0  0  0  0  0  0  0  0  0
    5.6082    1.2866    4.4021 H   0  0  0  0  0  0  0  0  0  0  0  0
    7.2721    1.0707    6.2425 H   0  0  0  0  0  0  0  0  0  0  0  0
    6.7488   -0.5076    5.6711 H   0  0  0  0  0  0  0  0  0  0  0  0
    6.1173    0.1381    7.1770 H   0  0  0  0  0  0  0  0  0  0  0  0
    5.8549    3.0303    6.2960 H   0  0  0  0  0  0  0  0  0  0  0  0
    4.5206    2.2217    7.1000 H   0  0  0  0  0  0  0  0  0  0  0  0
    4.1767    2.9846    5.5180 H   0  0  0  0  0  0  0  0  0  0  0  0
    1.3844    2.2902    8.3460 H   0  0  0  0  0  0  0  0  0  0  0  0
    0.5701    2.9688    6.9286 H   0  0  0  0  0  0  0  0  0  0  0  0
    2.2382    3.4364    7.3216 H   0  0  0  0  0  0  0  0  0  0  0  0
    1.1066   -0.3931    4.3289 H   0  0  0  0  0  0  0  0  0  0  0  0
    3.7893   -1.7845    6.6971 H   0  0  0  0  0  0  0  0  0  0  0  0
    2.9842   -3.2119    7.0917 H   0  0  0  0  0  0  0  0  0  0  0  0
    4.7371   -3.4823    5.3356 H   0  0  0  0  0  0  0  0  0  0  0  0
    3.1811   -4.1185    4.8454 H   0  0  0  0  0  0  0  0  0  0  0  0
    5.4142   -2.8972    2.7969 H   0  0  0  0  0  0  0  0  0  0  0  0
    3.8893   -3.6899    2.3758 H   0  0  0  0  0  0  0  0  0  0  0  0
    4.8507   -0.9420    1.6584 H   0  0  0  0  0  0  0  0  0  0  0  0
    2.7775   -2.7589    0.3471 H   0  0  0  0  0  0  0  0  0  0  0  0
    3.3088   -1.2344   -0.2952 H   0  0  0  0  0  0  0  0  0  0  0  0
    6.2844   -3.6558   -2.5653 H   0  0  0  0  0  0  0  0  0  0  0  0
    6.9524   -3.7176   -0.9288 H   0  0  0  0  0  0  0  0  0  0  0  0
    7.4656   -2.4451   -2.0508 H   0  0  0  0  0  0  0  0  0  0  0  0
    1.3699   -1.1179    8.1658 H   0  0  0  0  0  0  0  0  0  0  0  0
   -0.5975   -3.0758    7.5111 H   0  0  0  0  0  0  0  0  0  0  0  0
    1.0618   -3.7016    7.3385 H   0  0  0  0  0  0  0  0  0  0  0  0
  1  2  1  0
  1 35  1  0
  1 36  1  0
  1 37  1  0
  2  3  2  3
  2 38  1  0
  3 33  1  0
  3  4  1  0
  4  5  2  0
  4  6  1  0
  6 22  1  0
  6 34  1  0
  6  7  1  6
  7  8  2  0
  7 39  1  0
  9  8  1  6
  8 40  1  0
  9 21  1  0
  9 25  1  0
  9 10  1  0
 10 27  1  0
 10 11  1  0
 10 41  1  6
 11 12  1  0
 11 42  1  0
 11 43  1  0
 12 13  1  1
 12 17  1  0
 12 21  1  0
 13 14  1  0
 14 15  1  0
 14 16  1  0
 14 44  1  0
 15 45  1  0
 15 46  1  0
 15 47  1  0
 16 48  1  0
 16 49  1  0
 16 50  1  0
 17 18  2  0
 17 19  1  0
 19 20  1  0
 20 51  1  0
 20 52  1  0
 20 53  1  0
 21 22  1  0
 21 54  1  6
 22 23  1  1
 22 33  1  0
 23 24  1  0
 23 55  1  0
 23 56  1  0
 24 25  1  0
 24 57  1  0
 24 58  1  0
 25 26  1  0
 26 27  1  0
 26 59  1  0
 26 60  1  0
 27 28  1  0
 27 61  1  6
 28 29  1  0
 28 62  1  0
 28 63  1  0
 29 30  1  0
 30 31  1  0
 30 32  2  0
 31 64  1  0
 31 65  1  0
 31 66  1  0
 33 34  1  0
 33 67  1  1
 34 68  1  0
 34 69  1  0
M  END
>  <i_m_ct_stereo_status>  (181) 
1

>  <s_m_source_file>  (181) 
/var/tmp/pbs.5076255.sched01/tmp276pg2sv/48_ir7zhrj.sdf

>  <i_m_source_file_index>  (181) 
30

>  <i_lp_mmshare_version>  (181) 
48012

>  <i_f3d_flags>  (181) 
1

>  <s_epik_input>  (181) 
W0NIM10vW0NIXT1DKC9DMT1PKVtDQEBIXShbQ0gyXTIpW0NAQF0zKFtDQF0xMjQpW0NAQEhdNVtDQEBdNihbQ0hdPVtDSF00KVtDQEBIXShbQ0gyXVtDQEBdNShPW0NIXShbQ0gzXSlbQ0gzXSlDKD1PKU9bQ0gzXSlbQ0BASF0oW0NIMl1ONltDSDJdW0NIMl0zKVtDSDJdT0MoPU8pW0NIM10=

>  <s_epik_cmdline>  (181) 
J2VwaWtfcHl0aG9uJywgJy1waHQnLCAnMi4wJywgJy1waCcsICc3LjAnLCAnLXRuJywgJzgnLCAnLW1hJywgJzIwMCcsICctaW1hZScsICc8aW5maWxlLm1hZT4nLCAnLW9tYWUnLCAnPG91dGZpbGUubWFlPic=

>  <r_epik_Ionization_Penalty>  (181) 
0.375726

>  <r_epik_Ionization_Penalty_Charging>  (181) 
0

>  <r_epik_Ionization_Penalty_Neutral>  (181) 
0.375726

>  <r_epik_State_Penalty>  (181) 
0.373459

>  <r_epik_Charging_Adjusted_Penalty>  (181) 
0.373459

>  <i_epik_Tot_Q>  (181) 
0

>  <i_epik_Tot_abs_Q>  (181) 
0

>  <s_epik_Chemistry_Notes>  (181) 
This compound has an ester and may undergo hydrolysis at high or low pH.

>  <s_lp_Force_Field>  (181) 
OPLS3e

>  <r_lp_Energy>  (181) 
92.846

>  <b_lp_Chiralities_Consistent>  (181) 
1

>  <s_lp_Variant>  (181) 
48:0-2

>  <s_i_glide_gridfile>  (181) 
pfpi4k_grid

>  <i_i_glide_lignum>  (181) 
30

>  <i_i_glide_rotatable_bonds>  (181) 
7

>  <r_i_docking_score>  (181) 
-1.76877

>  <r_i_glide_ligand_efficiency>  (181) 
-0.0520225

>  <r_i_glide_ligand_efficiency_sa>  (181) 
-0.168533

>  <r_i_glide_ligand_efficiency_ln>  (181) 
-0.39077

>  <r_i_glide_gscore>  (181) 
-1.76877

>  <r_i_glide_lipo>  (181) 
-0.284303

>  <r_i_glide_hbond>  (181) 
0

>  <r_i_glide_metal>  (181) 
-0

>  <r_i_glide_rewards>  (181) 
-0.207478

>  <r_i_glide_evdw>  (181) 
-27.3829

>  <r_i_glide_ecoul>  (181) 
-1.34157

>  <r_i_glide_erotb>  (181) 
0.36642

>  <r_i_glide_esite>  (181) 
-0.0730274

>  <r_i_glide_emodel>  (181) 
-30.8171

>  <r_i_glide_energy>  (181) 
-28.7244

>  <r_i_glide_einternal>  (181) 
0.553878

>  <r_i_glide_intrahb_reward>  (181) 
-0

>  <i_i_glide_confnum>  (181) 
2

>  <i_i_glide_posenum>  (181) 
40

>  <r_i_glide_eff_state_penalty>  (181) 
0

>  <ligand_id>  (181) 
48

>  <original_smiles>  (181) 
CC=C1C(=O)C23C=CC45C6CC(OC(C)C)(C(=O)OC)C4C2(CCN5CC6COC(C)=O)C1C3

>  <smiles>  (181) 
[H]C(=C1C(=O)C23C([H])=C([H])C45N6C([H])([H])C([H])([H])C2(C1([H])C3([H])[H])C4([H])C(OC([H])(C([H])([H])[H])C([H])([H])[H])(C(=O)OC([H])([H])[H])C([H])([H])C5([H])C([H])(C([H])([H])OC(=O)C([H])([H])[H])C6([H])[H])C([H])([H])[H]

$$$$
48:3:0
     RDKit          3D

 70 75  0  0  1  0  0  0  0  0999 V2000
    0.2026   -8.6152    2.8083 C   0  0  0  0  0  0  0  0  0  0  0  0
    1.6309   -8.1342    2.8822 C   0  0  0  0  0  0  0  0  0  0  0  0
    2.2230   -7.1651    2.1604 C   0  0  0  0  0  0  0  0  0  0  0  0
    1.7358   -6.3147    1.0966 C   0  0  0  0  0  0  0  0  0  0  0  0
    0.6073   -6.2571    0.6020 O   0  0  0  0  0  0  0  0  0  0  0  0
    2.9886   -5.5052    0.8831 C   0  0  1  0  0  0  0  0  0  0  0  0
    2.7256   -4.2986   -0.0108 C   0  0  0  0  0  0  0  0  0  0  0  0
    2.5186   -3.0741    0.5347 C   0  0  0  0  0  0  0  0  0  0  0  0
    2.7827   -2.7784    2.0192 C   0  0  1  0  0  0  0  0  0  0  0  0
    1.9193   -1.7532    2.7876 C   0  0  1  0  0  0  0  0  0  0  0  0
    1.5301   -2.4401    4.1343 C   0  0  0  0  0  0  0  0  0  0  0  0
    2.4277   -3.7031    4.3474 C   0  0  1  0  0  0  0  0  0  0  0  0
    3.6806   -3.4132    4.9824 O   0  0  0  0  0  0  0  0  0  0  0  0
    3.7645   -2.6725    6.2071 C   0  0  0  0  0  0  0  0  0  0  0  0
    5.2650   -2.5905    6.5107 C   0  0  0  0  0  0  0  0  0  0  0  0
    3.0089   -3.2620    7.4117 C   0  0  0  0  0  0  0  0  0  0  0  0
    1.7396   -4.8737    5.0810 C   0  0  0  0  0  0  0  0  0  0  0  0
    0.5777   -4.8034    5.4911 O   0  0  0  0  0  0  0  0  0  0  0  0
    2.5484   -5.9391    5.2122 O   0  0  0  0  0  0  0  0  0  0  0  0
    2.1047   -7.0992    5.9008 C   0  0  0  0  0  0  0  0  0  0  0  0
    2.6348   -4.0635    2.8559 C   0  0  2  0  0  0  0  0  0  0  0  0
    3.6307   -5.1009    2.2658 C   0  0  2  0  0  0  0  0  0  0  0  0
    5.0555   -4.4852    2.4889 C   0  0  0  0  0  0  0  0  0  0  0  0
    5.2818   -3.1222    1.8257 C   0  0  0  0  0  0  0  0  0  0  0  0
    4.1400   -2.1901    1.9831 N   0  0  2  0  0  0  0  0  0  0  0  0
    4.2516   -1.0876    2.9453 C   0  0  0  0  0  0  0  0  0  0  0  0
    2.8353   -0.5204    2.9928 C   0  0  1  0  0  0  0  0  0  0  0  0
    2.6222    0.5554    1.9046 C   0  0  0  0  0  0  0  0  0  0  0  0
    1.3433    1.1529    2.1038 O   0  0  0  0  0  0  0  0  0  0  0  0
    1.1318    2.2063    2.9329 C   0  0  0  0  0  0  0  0  0  0  0  0
    2.3755    2.9764    3.3847 C   0  0  0  0  0  0  0  0  0  0  0  0
    0.0138    2.5556    3.2983 O   0  0  0  0  0  0  0  0  0  0  0  0
    3.6392   -6.6615    2.2685 C   0  0  2  0  0  0  0  0  0  0  0  0
    4.1223   -6.5170    0.7764 C   0  0  0  0  0  0  0  0  0  0  0  0
    0.2014   -9.6779    2.5539 H   0  0  0  0  0  0  0  0  0  0  0  0
   -0.3861   -8.0803    2.0669 H   0  0  0  0  0  0  0  0  0  0  0  0
   -0.2816   -8.5038    3.7830 H   0  0  0  0  0  0  0  0  0  0  0  0
    2.2337   -8.6425    3.6194 H   0  0  0  0  0  0  0  0  0  0  0  0
    2.5936   -4.4729   -1.0734 H   0  0  0  0  0  0  0  0  0  0  0  0
    2.2604   -2.2509   -0.1005 H   0  0  0  0  0  0  0  0  0  0  0  0
    1.0136   -1.4830    2.2445 H   0  0  0  0  0  0  0  0  0  0  0  0
    1.5417   -1.7535    4.9776 H   0  0  0  0  0  0  0  0  0  0  0  0
    0.4840   -2.7449    4.0507 H   0  0  0  0  0  0  0  0  0  0  0  0
    3.4126   -1.6547    6.0452 H   0  0  0  0  0  0  0  0  0  0  0  0
    5.4473   -2.0111    7.4157 H   0  0  0  0  0  0  0  0  0  0  0  0
    5.8107   -2.1130    5.6971 H   0  0  0  0  0  0  0  0  0  0  0  0
    5.6919   -3.5843    6.6544 H   0  0  0  0  0  0  0  0  0  0  0  0
    3.2032   -2.6710    8.3053 H   0  0  0  0  0  0  0  0  0  0  0  0
    3.3155   -4.2864    7.6265 H   0  0  0  0  0  0  0  0  0  0  0  0
    1.9286   -3.2463    7.2730 H   0  0  0  0  0  0  0  0  0  0  0  0
    2.9125   -7.8344    5.8946 H   0  0  0  0  0  0  0  0  0  0  0  0
    1.2382   -7.5463    5.4100 H   0  0  0  0  0  0  0  0  0  0  0  0
    1.8421   -6.8784    6.9360 H   0  0  0  0  0  0  0  0  0  0  0  0
    1.6244   -4.3753    2.6041 H   0  0  0  0  0  0  0  0  0  0  0  0
    5.2301   -4.4039    3.5595 H   0  0  0  0  0  0  0  0  0  0  0  0
    5.8624   -5.1493    2.1776 H   0  0  0  0  0  0  0  0  0  0  0  0
    6.2070   -2.6672    2.1836 H   0  0  0  0  0  0  0  0  0  0  0  0
    5.3947   -3.2930    0.7531 H   0  0  0  0  0  0  0  0  0  0  0  0
    4.5533   -1.4502    3.9200 H   0  0  0  0  0  0  0  0  0  0  0  0
    4.9819   -0.3458    2.6280 H   0  0  0  0  0  0  0  0  0  0  0  0
    2.6710   -0.0707    3.9707 H   0  0  0  0  0  0  0  0  0  0  0  0
    3.4268    1.2916    1.9296 H   0  0  0  0  0  0  0  0  0  0  0  0
    2.6516    0.1100    0.9030 H   0  0  0  0  0  0  0  0  0  0  0  0
    3.1141    2.3048    3.8216 H   0  0  0  0  0  0  0  0  0  0  0  0
    2.1338    3.7312    4.1292 H   0  0  0  0  0  0  0  0  0  0  0  0
    2.8273    3.4822    2.5290 H   0  0  0  0  0  0  0  0  0  0  0  0
    4.3145   -7.1688    2.9636 H   0  0  0  0  0  0  0  0  0  0  0  0
    3.9125   -7.3951    0.1607 H   0  0  0  0  0  0  0  0  0  0  0  0
    5.1198   -6.1486    0.5634 H   0  0  0  0  0  0  0  0  0  0  0  0
    4.1258   -1.6896    1.1023 H   0  0  0  0  0  0  0  0  0  0  0  0
  1  2  1  0
  1 35  1  0
  1 36  1  0
  1 37  1  0
  2  3  2  3
  2 38  1  0
  3 33  1  0
  3  4  1  0
  4  5  2  0
  4  6  1  0
  6 22  1  0
  6 34  1  0
  6  7  1  6
  7  8  2  0
  7 39  1  0
  9  8  1  6
  8 40  1  0
  9 21  1  0
  9 25  1  0
  9 10  1  0
 10 27  1  0
 10 11  1  0
 10 41  1  6
 11 12  1  0
 11 42  1  0
 11 43  1  0
 12 13  1  1
 12 17  1  0
 12 21  1  0
 13 14  1  0
 14 15  1  0
 14 16  1  0
 14 44  1  0
 15 45  1  0
 15 46  1  0
 15 47  1  0
 16 48  1  0
 16 49  1  0
 16 50  1  0
 17 18  2  0
 17 19  1  0
 19 20  1  0
 20 51  1  0
 20 52  1  0
 20 53  1  0
 21 22  1  0
 21 54  1  6
 22 23  1  6
 22 33  1  0
 23 24  1  0
 23 55  1  0
 23 56  1  0
 24 25  1  0
 24 57  1  0
 24 58  1  0
 25 26  1  0
 25 70  1  6
 26 27  1  0
 26 59  1  0
 26 60  1  0
 27 28  1  0
 27 61  1  1
 28 29  1  0
 28 62  1  0
 28 63  1  0
 29 30  1  0
 30 31  1  0
 30 32  2  0
 31 64  1  0
 31 65  1  0
 31 66  1  0
 33 34  1  0
 33 67  1  1
 34 68  1  0
 34 69  1  0
M  CHG  1  25   1
M  END
>  <i_m_ct_stereo_status>  (182) 
1

>  <s_m_source_file>  (182) 
/var/tmp/pbs.5076255.sched01/tmp276pg2sv/48_ir7zhrj.sdf

>  <i_m_source_file_index>  (182) 
32

>  <i_lp_mmshare_version>  (182) 
48012

>  <i_f3d_flags>  (182) 
1

>  <s_epik_input>  (182) 
W0NIM10vW0NIXT1DKC9DMT1PKVtDQEBIXShbQ0gyXTIpW0NAQF0zKFtDQF0xMjQpW0NAQEhdNVtDQEBdNihbQ0hdPVtDSF00KVtDQEBIXShbQ0gyXVtDQEBdNShPW0NIXShbQ0gzXSlbQ0gzXSlDKD1PKU9bQ0gzXSlbQ0BASF0oW0NIMl1ONltDSDJdW0NIMl0zKVtDSDJdT0MoPU8pW0NIM10=

>  <s_epik_cmdline>  (182) 
J2VwaWtfcHl0aG9uJywgJy1waHQnLCAnMi4wJywgJy1waCcsICc3LjAnLCAnLXRuJywgJzgnLCAnLW1hJywgJzIwMCcsICctaW1hZScsICc8aW5maWxlLm1hZT4nLCAnLW9tYWUnLCAnPG91dGZpbGUubWFlPic=

>  <r_epik_Ionization_Penalty>  (182) 
0.447826

>  <r_epik_Ionization_Penalty_Charging>  (182) 
0.447826

>  <r_epik_Ionization_Penalty_Neutral>  (182) 
1.73657e-14

>  <r_epik_State_Penalty>  (182) 
0.450396

>  <r_epik_Charging_Adjusted_Penalty>  (182) 
0.898222

>  <i_epik_Tot_Q>  (182) 
1

>  <i_epik_Tot_abs_Q>  (182) 
1

>  <s_epik_Chemistry_Notes>  (182) 
This compound has an ester and may undergo hydrolysis at high or low pH.

>  <s_lp_Force_Field>  (182) 
OPLS3e

>  <r_lp_Energy>  (182) 
107.521

>  <b_lp_Chiralities_Consistent>  (182) 
1

>  <s_lp_Variant>  (182) 
48:0-4

>  <s_i_glide_gridfile>  (182) 
pfpi4k_grid

>  <i_i_glide_lignum>  (182) 
32

>  <i_i_glide_rotatable_bonds>  (182) 
7

>  <r_i_docking_score>  (182) 
-2.99577

>  <r_i_glide_ligand_efficiency>  (182) 
-0.0881109

>  <r_i_glide_ligand_efficiency_sa>  (182) 
-0.285445

>  <r_i_glide_ligand_efficiency_ln>  (182) 
-0.66185

>  <r_i_glide_gscore>  (182) 
-2.99577

>  <r_i_glide_lipo>  (182) 
-0.248047

>  <r_i_glide_hbond>  (182) 
-0.176257

>  <r_i_glide_metal>  (182) 
-0

>  <r_i_glide_rewards>  (182) 
-0.200606

>  <r_i_glide_evdw>  (182) 
-28.7202

>  <r_i_glide_ecoul>  (182) 
-7.92995

>  <r_i_glide_erotb>  (182) 
0.364989

>  <r_i_glide_esite>  (182) 
-0.110348

>  <r_i_glide_emodel>  (182) 
-40.367

>  <r_i_glide_energy>  (182) 
-36.6502

>  <r_i_glide_einternal>  (182) 
6.25436

>  <r_i_glide_intrahb_reward>  (182) 
-0

>  <i_i_glide_confnum>  (182) 
1

>  <i_i_glide_posenum>  (182) 
3

>  <r_i_glide_eff_state_penalty>  (182) 
0

>  <ligand_id>  (182) 
48

>  <original_smiles>  (182) 
CC=C1C(=O)C23C=CC45C6CC(OC(C)C)(C(=O)OC)C4C2(CCN5CC6COC(C)=O)C1C3

>  <smiles>  (182) 
[H]C(=C1C(=O)C23C([H])=C([H])C45C6([H])C([H])([H])C(OC([H])(C([H])([H])[H])C([H])([H])[H])(C(=O)OC([H])([H])[H])C4([H])C2(C([H])([H])C([H])([H])[N+]5([H])C([H])([H])C6([H])C([H])([H])OC(=O)C([H])([H])[H])C1([H])C3([H])[H])C([H])([H])[H]

$$$$
48:3:1
     RDKit          3D

 70 75  0  0  1  0  0  0  0  0999 V2000
    2.1860   -8.8301    1.6643 C   0  0  0  0  0  0  0  0  0  0  0  0
    3.4018   -7.9306    1.6916 C   0  0  0  0  0  0  0  0  0  0  0  0
    3.4883   -6.6437    1.3444 C   0  0  0  0  0  0  0  0  0  0  0  0
    2.5136   -5.7112    0.7937 C   0  0  0  0  0  0  0  0  0  0  0  0
    1.3288   -5.9060    0.5178 O   0  0  0  0  0  0  0  0  0  0  0  0
    3.3938   -4.4900    0.7461 C   0  0  1  0  0  0  0  0  0  0  0  0
    2.5849   -3.2191    0.4770 C   0  0  0  0  0  0  0  0  0  0  0  0
    2.2141   -2.4016    1.4993 C   0  0  0  0  0  0  0  0  0  0  0  0
    2.8022   -2.5434    2.9163 C   0  0  1  0  0  0  0  0  0  0  0  0
    1.9613   -2.2006    4.1734 C   0  0  1  0  0  0  0  0  0  0  0  0
    2.1545   -3.3992    5.1527 C   0  0  0  0  0  0  0  0  0  0  0  0
    3.3750   -4.2629    4.6879 C   0  0  1  0  0  0  0  0  0  0  0  0
    4.6377   -3.7903    5.1822 O   0  0  0  0  0  0  0  0  0  0  0  0
    4.8831   -3.5864    6.5813 C   0  0  0  0  0  0  0  0  0  0  0  0
    6.2726   -2.9411    6.6491 C   0  0  0  0  0  0  0  0  0  0  0  0
    4.8512   -4.8500    7.4619 C   0  0  0  0  0  0  0  0  0  0  0  0
    3.2547   -5.7725    4.9745 C   0  0  0  0  0  0  0  0  0  0  0  0
    2.2905   -6.2487    5.5739 O   0  0  0  0  0  0  0  0  0  0  0  0
    4.3062   -6.4743    4.5106 O   0  0  0  0  0  0  0  0  0  0  0  0
    4.3774   -7.8795    4.7183 C   0  0  0  0  0  0  0  0  0  0  0  0
    3.2333   -4.0083    3.1653 C   0  0  2  0  0  0  0  0  0  0  0  0
    4.2639   -4.3730    2.0543 C   0  0  2  0  0  0  0  0  0  0  0  0
    5.4776   -3.4127    2.2751 C   0  0  0  0  0  0  0  0  0  0  0  0
    5.1487   -1.9153    2.1979 C   0  0  0  0  0  0  0  0  0  0  0  0
    3.8958   -1.5450    2.9076 N   0  0  2  0  0  0  0  0  0  0  0  0
    3.9902   -0.8709    4.2145 C   0  0  0  0  0  0  0  0  0  0  0  0
    2.5517   -0.8806    4.7455 C   0  0  1  0  0  0  0  0  0  0  0  0
    1.7996    0.3686    4.2505 C   0  0  0  0  0  0  0  0  0  0  0  0
    0.5177    0.3913    4.8747 O   0  0  0  0  0  0  0  0  0  0  0  0
   -0.6347    0.5739    4.1884 C   0  0  0  0  0  0  0  0  0  0  0  0
   -0.4799    0.9558    2.7178 C   0  0  0  0  0  0  0  0  0  0  0  0
   -1.7452    0.4532    4.6981 O   0  0  0  0  0  0  0  0  0  0  0  0
    4.6908   -5.7347    1.4215 C   0  0  2  0  0  0  0  0  0  0  0  0
    4.6736   -4.9514    0.0554 C   0  0  0  0  0  0  0  0  0  0  0  0
    2.3829   -9.6784    1.0036 H   0  0  0  0  0  0  0  0  0  0  0  0
    1.2931   -8.3196    1.3085 H   0  0  0  0  0  0  0  0  0  0  0  0
    1.9791   -9.2229    2.6644 H   0  0  0  0  0  0  0  0  0  0  0  0
    4.2982   -8.4177    2.0527 H   0  0  0  0  0  0  0  0  0  0  0  0
    2.2210   -3.0575   -0.5337 H   0  0  0  0  0  0  0  0  0  0  0  0
    1.5905   -1.5456    1.2996 H   0  0  0  0  0  0  0  0  0  0  0  0
    0.9032   -2.1007    3.9340 H   0  0  0  0  0  0  0  0  0  0  0  0
    2.2251   -3.0808    6.1883 H   0  0  0  0  0  0  0  0  0  0  0  0
    1.2447   -4.0045    5.1159 H   0  0  0  0  0  0  0  0  0  0  0  0
    4.1769   -2.8636    6.9846 H   0  0  0  0  0  0  0  0  0  0  0  0
    6.5492   -2.7229    7.6808 H   0  0  0  0  0  0  0  0  0  0  0  0
    6.3100   -2.0029    6.0963 H   0  0  0  0  0  0  0  0  0  0  0  0
    7.0302   -3.6028    6.2255 H   0  0  0  0  0  0  0  0  0  0  0  0
    5.1408   -4.6044    8.4823 H   0  0  0  0  0  0  0  0  0  0  0  0
    5.5406   -5.6152    7.1025 H   0  0  0  0  0  0  0  0  0  0  0  0
    3.8563   -5.2882    7.5348 H   0  0  0  0  0  0  0  0  0  0  0  0
    5.3052   -8.2441    4.2706 H   0  0  0  0  0  0  0  0  0  0  0  0
    3.5433   -8.3926    4.2341 H   0  0  0  0  0  0  0  0  0  0  0  0
    4.3776   -8.1345    5.7783 H   0  0  0  0  0  0  0  0  0  0  0  0
    2.3114   -4.5584    2.9639 H   0  0  0  0  0  0  0  0  0  0  0  0
    5.8965   -3.6417    3.2496 H   0  0  0  0  0  0  0  0  0  0  0  0
    6.3147   -3.6143    1.6021 H   0  0  0  0  0  0  0  0  0  0  0  0
    5.9927   -1.3205    2.5618 H   0  0  0  0  0  0  0  0  0  0  0  0
    5.0015   -1.6609    1.1396 H   0  0  0  0  0  0  0  0  0  0  0  0
    4.6418   -1.4186    4.8837 H   0  0  0  0  0  0  0  0  0  0  0  0
    4.3871    0.1409    4.1044 H   0  0  0  0  0  0  0  0  0  0  0  0
    2.5610   -0.8825    5.8400 H   0  0  0  0  0  0  0  0  0  0  0  0
    2.3401    1.2771    4.5402 H   0  0  0  0  0  0  0  0  0  0  0  0
    1.7468    0.3271    3.1590 H   0  0  0  0  0  0  0  0  0  0  0  0
    0.1554    1.8384    2.6137 H   0  0  0  0  0  0  0  0  0  0  0  0
   -1.4291    1.1832    2.2528 H   0  0  0  0  0  0  0  0  0  0  0  0
   -0.0152    0.1327    2.1685 H   0  0  0  0  0  0  0  0  0  0  0  0
    5.6411   -6.1794    1.7372 H   0  0  0  0  0  0  0  0  0  0  0  0
    4.5396   -5.5953   -0.8252 H   0  0  0  0  0  0  0  0  0  0  0  0
    5.4400   -4.2134   -0.1459 H   0  0  0  0  0  0  0  0  0  0  0  0
    3.5162   -0.8162    2.3125 H   0  0  0  0  0  0  0  0  0  0  0  0
  1  2  1  0
  1 35  1  0
  1 36  1  0
  1 37  1  0
  2  3  2  3
  2 38  1  0
  3 33  1  0
  3  4  1  0
  4  5  2  0
  4  6  1  0
  6 22  1  0
  6 34  1  0
  6  7  1  6
  7  8  2  0
  7 39  1  0
  9  8  1  6
  8 40  1  0
  9 21  1  0
  9 25  1  0
  9 10  1  0
 10 27  1  0
 10 11  1  0
 10 41  1  6
 11 12  1  0
 11 42  1  0
 11 43  1  0
 12 13  1  1
 12 17  1  0
 12 21  1  0
 13 14  1  0
 14 15  1  0
 14 16  1  0
 14 44  1  0
 15 45  1  0
 15 46  1  0
 15 47  1  0
 16 48  1  0
 16 49  1  0
 16 50  1  0
 17 18  2  0
 17 19  1  0
 19 20  1  0
 20 51  1  0
 20 52  1  0
 20 53  1  0
 21 22  1  0
 21 54  1  6
 22 23  1  6
 22 33  1  0
 23 24  1  0
 23 55  1  0
 23 56  1  0
 24 25  1  0
 24 57  1  0
 24 58  1  0
 25 26  1  0
 25 70  1  6
 26 27  1  0
 26 59  1  0
 26 60  1  0
 27 28  1  0
 27 61  1  1
 28 29  1  0
 28 62  1  0
 28 63  1  0
 29 30  1  0
 30 31  1  0
 30 32  2  0
 31 64  1  0
 31 65  1  0
 31 66  1  0
 33 34  1  0
 33 67  1  1
 34 68  1  0
 34 69  1  0
M  CHG  1  25   1
M  END
>  <i_m_ct_stereo_status>  (183) 
1

>  <s_m_source_file>  (183) 
/var/tmp/pbs.5076255.sched01/tmp276pg2sv/48_ir7zhrj.sdf

>  <i_m_source_file_index>  (183) 
32

>  <i_lp_mmshare_version>  (183) 
48012

>  <i_f3d_flags>  (183) 
1

>  <s_epik_input>  (183) 
W0NIM10vW0NIXT1DKC9DMT1PKVtDQEBIXShbQ0gyXTIpW0NAQF0zKFtDQF0xMjQpW0NAQEhdNVtDQEBdNihbQ0hdPVtDSF00KVtDQEBIXShbQ0gyXVtDQEBdNShPW0NIXShbQ0gzXSlbQ0gzXSlDKD1PKU9bQ0gzXSlbQ0BASF0oW0NIMl1ONltDSDJdW0NIMl0zKVtDSDJdT0MoPU8pW0NIM10=

>  <s_epik_cmdline>  (183) 
J2VwaWtfcHl0aG9uJywgJy1waHQnLCAnMi4wJywgJy1waCcsICc3LjAnLCAnLXRuJywgJzgnLCAnLW1hJywgJzIwMCcsICctaW1hZScsICc8aW5maWxlLm1hZT4nLCAnLW9tYWUnLCAnPG91dGZpbGUubWFlPic=

>  <r_epik_Ionization_Penalty>  (183) 
0.447826

>  <r_epik_Ionization_Penalty_Charging>  (183) 
0.447826

>  <r_epik_Ionization_Penalty_Neutral>  (183) 
1.73657e-14

>  <r_epik_State_Penalty>  (183) 
0.450396

>  <r_epik_Charging_Adjusted_Penalty>  (183) 
0.898222

>  <i_epik_Tot_Q>  (183) 
1

>  <i_epik_Tot_abs_Q>  (183) 
1

>  <s_epik_Chemistry_Notes>  (183) 
This compound has an ester and may undergo hydrolysis at high or low pH.

>  <s_lp_Force_Field>  (183) 
OPLS3e

>  <r_lp_Energy>  (183) 
107.521

>  <b_lp_Chiralities_Consistent>  (183) 
1

>  <s_lp_Variant>  (183) 
48:0-4

>  <s_i_glide_gridfile>  (183) 
pfpi4k_grid

>  <i_i_glide_lignum>  (183) 
32

>  <i_i_glide_rotatable_bonds>  (183) 
7

>  <r_i_docking_score>  (183) 
-2.73055

>  <r_i_glide_ligand_efficiency>  (183) 
-0.0803102

>  <r_i_glide_ligand_efficiency_sa>  (183) 
-0.260174

>  <r_i_glide_ligand_efficiency_ln>  (183) 
-0.603254

>  <r_i_glide_gscore>  (183) 
-2.73055

>  <r_i_glide_lipo>  (183) 
-0.286039

>  <r_i_glide_hbond>  (183) 
-0.16

>  <r_i_glide_metal>  (183) 
-0

>  <r_i_glide_rewards>  (183) 
-0.200606

>  <r_i_glide_evdw>  (183) 
-25.6703

>  <r_i_glide_ecoul>  (183) 
-7.41548

>  <r_i_glide_erotb>  (183) 
0.364989

>  <r_i_glide_esite>  (183) 
-0.0530551

>  <r_i_glide_emodel>  (183) 
-35.8711

>  <r_i_glide_energy>  (183) 
-33.0857

>  <r_i_glide_einternal>  (183) 
6.79047

>  <r_i_glide_intrahb_reward>  (183) 
-0

>  <i_i_glide_confnum>  (183) 
2

>  <i_i_glide_posenum>  (183) 
31

>  <r_i_glide_eff_state_penalty>  (183) 
0

>  <ligand_id>  (183) 
48

>  <original_smiles>  (183) 
CC=C1C(=O)C23C=CC45C6CC(OC(C)C)(C(=O)OC)C4C2(CCN5CC6COC(C)=O)C1C3

>  <smiles>  (183) 
[H]C(=C1C(=O)C23C([H])=C([H])C45C6([H])C([H])([H])C(OC([H])(C([H])([H])[H])C([H])([H])[H])(C(=O)OC([H])([H])[H])C4([H])C2(C([H])([H])C([H])([H])[N+]5([H])C([H])([H])C6([H])C([H])([H])OC(=O)C([H])([H])[H])C1([H])C3([H])[H])C([H])([H])[H]

$$$$
48:3:2
     RDKit          3D

 70 75  0  0  1  0  0  0  0  0999 V2000
    1.7789   -8.7508    1.9593 C   0  0  0  0  0  0  0  0  0  0  0  0
    3.0462   -7.9503    2.0420 C   0  0  0  0  0  0  0  0  0  0  0  0
    3.2744   -6.6936    1.5991 C   0  0  0  0  0  0  0  0  0  0  0  0
    2.4395   -5.7721    0.8867 C   0  0  0  0  0  0  0  0  0  0  0  0
    1.2720   -5.9136    0.4977 O   0  0  0  0  0  0  0  0  0  0  0  0
    3.4156   -4.6165    0.8212 C   0  0  1  0  0  0  0  0  0  0  0  0
    2.7393   -3.3295    0.3577 C   0  0  0  0  0  0  0  0  0  0  0  0
    2.3635   -2.3785    1.2549 C   0  0  0  0  0  0  0  0  0  0  0  0
    2.7603   -2.4411    2.7333 C   0  0  1  0  0  0  0  0  0  0  0  0
    1.8027   -1.9295    3.8278 C   0  0  1  0  0  0  0  0  0  0  0  0
    1.7963   -3.0286    4.9356 C   0  0  0  0  0  0  0  0  0  0  0  0
    2.9891   -4.0106    4.6959 C   0  0  1  0  0  0  0  0  0  0  0  0
    4.2096   -3.5537    5.2982 O   0  0  0  0  0  0  0  0  0  0  0  0
    4.2967   -3.2014    6.6857 C   0  0  0  0  0  0  0  0  0  0  0  0
    5.7487   -2.7530    6.8777 C   0  0  0  0  0  0  0  0  0  0  0  0
    3.9501   -4.3069    7.7009 C   0  0  0  0  0  0  0  0  0  0  0  0
    2.7008   -5.4716    5.1069 C   0  0  0  0  0  0  0  0  0  0  0  0
    1.6262   -5.8201    5.6173 O   0  0  0  0  0  0  0  0  0  0  0  0
    3.7379   -6.2769    4.8553 O   0  0  0  0  0  0  0  0  0  0  0  0
    3.6812   -7.6517    5.1912 C   0  0  0  0  0  0  0  0  0  0  0  0
    3.0575   -3.8891    3.1555 C   0  0  2  0  0  0  0  0  0  0  0  0
    4.1521   -4.4277    2.2014 C   0  0  2  0  0  0  0  0  0  0  0  0
    5.3996   -3.5295    2.4987 C   0  0  0  0  0  0  0  0  0  0  0  0
    5.2006   -2.0337    2.2645 C   0  0  0  0  0  0  0  0  0  0  0  0
    3.9093   -1.5192    2.7711 N   0  0  2  0  0  0  0  0  0  0  0  0
    3.8923   -0.7179    4.0007 C   0  0  0  0  0  0  0  0  0  0  0  0
    2.4115   -0.5950    4.3366 C   0  0  1  0  0  0  0  0  0  0  0  0
    1.7791    0.6614    3.6829 C   0  0  0  0  0  0  0  0  0  0  0  0
    0.3694    0.7430    3.8852 O   0  0  0  0  0  0  0  0  0  0  0  0
   -0.1282    1.1711    5.0556 C   0  0  0  0  0  0  0  0  0  0  0  0
   -1.6478    1.1848    5.0697 C   0  0  0  0  0  0  0  0  0  0  0  0
    0.5249    1.5059    6.0426 O   0  0  0  0  0  0  0  0  0  0  0  0
    4.5250   -5.8740    1.7496 C   0  0  2  0  0  0  0  0  0  0  0  0
    4.7433   -5.1993    0.3462 C   0  0  0  0  0  0  0  0  0  0  0  0
    1.9869   -9.6706    1.4082 H   0  0  0  0  0  0  0  0  0  0  0  0
    0.9737   -8.2167    1.4575 H   0  0  0  0  0  0  0  0  0  0  0  0
    1.4355   -9.0276    2.9609 H   0  0  0  0  0  0  0  0  0  0  0  0
    3.8593   -8.4514    2.5398 H   0  0  0  0  0  0  0  0  0  0  0  0
    2.5126   -3.2410   -0.6986 H   0  0  0  0  0  0  0  0  0  0  0  0
    1.8494   -1.4924    0.9213 H   0  0  0  0  0  0  0  0  0  0  0  0
    0.7866   -1.7887    3.4560 H   0  0  0  0  0  0  0  0  0  0  0  0
    1.7572   -2.6104    5.9403 H   0  0  0  0  0  0  0  0  0  0  0  0
    0.8535   -3.5716    4.8467 H   0  0  0  0  0  0  0  0  0  0  0  0
    3.6661   -2.3368    6.8849 H   0  0  0  0  0  0  0  0  0  0  0  0
    5.9194   -2.4207    7.9009 H   0  0  0  0  0  0  0  0  0  0  0  0
    6.0034   -1.9242    6.2186 H   0  0  0  0  0  0  0  0  0  0  0  0
    6.4444   -3.5656    6.6636 H   0  0  0  0  0  0  0  0  0  0  0  0
    4.1326   -3.9565    8.7153 H   0  0  0  0  0  0  0  0  0  0  0  0
    4.5509   -5.2054    7.5527 H   0  0  0  0  0  0  0  0  0  0  0  0
    2.8978   -4.5849    7.6768 H   0  0  0  0  0  0  0  0  0  0  0  0
    4.6196   -8.1204    4.8901 H   0  0  0  0  0  0  0  0  0  0  0  0
    2.8714   -8.1545    4.6627 H   0  0  0  0  0  0  0  0  0  0  0  0
    3.5323   -7.8104    6.2602 H   0  0  0  0  0  0  0  0  0  0  0  0
    2.1256   -4.3708    2.9110 H   0  0  0  0  0  0  0  0  0  0  0  0
    5.7065   -3.6949    3.5298 H   0  0  0  0  0  0  0  0  0  0  0  0
    6.2926   -3.8391    1.9573 H   0  0  0  0  0  0  0  0  0  0  0  0
    6.0283   -1.4600    2.6601 H   0  0  0  0  0  0  0  0  0  0  0  0
    5.1910   -1.8788    1.1955 H   0  0  0  0  0  0  0  0  0  0  0  0
    4.4098   -1.2294    4.7947 H   0  0  0  0  0  0  0  0  0  0  0  0
    4.3695    0.2442    3.8610 H   0  0  0  0  0  0  0  0  0  0  0  0
    2.3068   -0.5028    5.4175 H   0  0  0  0  0  0  0  0  0  0  0  0
    2.2635    1.5692    4.0525 H   0  0  0  0  0  0  0  0  0  0  0  0
    1.9514    0.6501    2.6059 H   0  0  0  0  0  0  0  0  0  0  0  0
   -2.0309    1.7418    4.2145 H   0  0  0  0  0  0  0  0  0  0  0  0
   -2.0116    1.6578    5.9814 H   0  0  0  0  0  0  0  0  0  0  0  0
   -2.0380    0.1682    5.0233 H   0  0  0  0  0  0  0  0  0  0  0  0
    5.4000   -6.3347    2.2178 H   0  0  0  0  0  0  0  0  0  0  0  0
    4.6503   -5.9072   -0.4700 H   0  0  0  0  0  0  0  0  0  0  0  0
    5.5873   -4.5316    0.1840 H   0  0  0  0  0  0  0  0  0  0  0  0
    3.6439   -0.8332    2.0768 H   0  0  0  0  0  0  0  0  0  0  0  0
  1  2  1  0
  1 35  1  0
  1 36  1  0
  1 37  1  0
  2  3  2  3
  2 38  1  0
  3 33  1  0
  3  4  1  0
  4  5  2  0
  4  6  1  0
  6 22  1  0
  6 34  1  0
  6  7  1  6
  7  8  2  0
  7 39  1  0
  9  8  1  6
  8 40  1  0
  9 21  1  0
  9 25  1  0
  9 10  1  0
 10 27  1  0
 10 11  1  0
 10 41  1  6
 11 12  1  0
 11 42  1  0
 11 43  1  0
 12 13  1  1
 12 17  1  0
 12 21  1  0
 13 14  1  0
 14 15  1  0
 14 16  1  0
 14 44  1  0
 15 45  1  0
 15 46  1  0
 15 47  1  0
 16 48  1  0
 16 49  1  0
 16 50  1  0
 17 18  2  0
 17 19  1  0
 19 20  1  0
 20 51  1  0
 20 52  1  0
 20 53  1  0
 21 22  1  0
 21 54  1  6
 22 23  1  6
 22 33  1  0
 23 24  1  0
 23 55  1  0
 23 56  1  0
 24 25  1  0
 24 57  1  0
 24 58  1  0
 25 26  1  0
 25 70  1  6
 26 27  1  0
 26 59  1  0
 26 60  1  0
 27 28  1  0
 27 61  1  1
 28 29  1  0
 28 62  1  0
 28 63  1  0
 29 30  1  0
 30 31  1  0
 30 32  2  0
 31 64  1  0
 31 65  1  0
 31 66  1  0
 33 34  1  0
 33 67  1  1
 34 68  1  0
 34 69  1  0
M  CHG  1  25   1
M  END
>  <i_m_ct_stereo_status>  (184) 
1

>  <s_m_source_file>  (184) 
/var/tmp/pbs.5076255.sched01/tmp276pg2sv/48_ir7zhrj.sdf

>  <i_m_source_file_index>  (184) 
32

>  <i_lp_mmshare_version>  (184) 
48012

>  <i_f3d_flags>  (184) 
1

>  <s_epik_input>  (184) 
W0NIM10vW0NIXT1DKC9DMT1PKVtDQEBIXShbQ0gyXTIpW0NAQF0zKFtDQF0xMjQpW0NAQEhdNVtDQEBdNihbQ0hdPVtDSF00KVtDQEBIXShbQ0gyXVtDQEBdNShPW0NIXShbQ0gzXSlbQ0gzXSlDKD1PKU9bQ0gzXSlbQ0BASF0oW0NIMl1ONltDSDJdW0NIMl0zKVtDSDJdT0MoPU8pW0NIM10=

>  <s_epik_cmdline>  (184) 
J2VwaWtfcHl0aG9uJywgJy1waHQnLCAnMi4wJywgJy1waCcsICc3LjAnLCAnLXRuJywgJzgnLCAnLW1hJywgJzIwMCcsICctaW1hZScsICc8aW5maWxlLm1hZT4nLCAnLW9tYWUnLCAnPG91dGZpbGUubWFlPic=

>  <r_epik_Ionization_Penalty>  (184) 
0.447826

>  <r_epik_Ionization_Penalty_Charging>  (184) 
0.447826

>  <r_epik_Ionization_Penalty_Neutral>  (184) 
1.73657e-14

>  <r_epik_State_Penalty>  (184) 
0.450396

>  <r_epik_Charging_Adjusted_Penalty>  (184) 
0.898222

>  <i_epik_Tot_Q>  (184) 
1

>  <i_epik_Tot_abs_Q>  (184) 
1

>  <s_epik_Chemistry_Notes>  (184) 
This compound has an ester and may undergo hydrolysis at high or low pH.

>  <s_lp_Force_Field>  (184) 
OPLS3e

>  <r_lp_Energy>  (184) 
107.521

>  <b_lp_Chiralities_Consistent>  (184) 
1

>  <s_lp_Variant>  (184) 
48:0-4

>  <s_i_glide_gridfile>  (184) 
pfpi4k_grid

>  <i_i_glide_lignum>  (184) 
32

>  <i_i_glide_rotatable_bonds>  (184) 
7

>  <r_i_docking_score>  (184) 
-2.54961

>  <r_i_glide_ligand_efficiency>  (184) 
-0.0749884

>  <r_i_glide_ligand_efficiency_sa>  (184) 
-0.242933

>  <r_i_glide_ligand_efficiency_ln>  (184) 
-0.56328

>  <r_i_glide_gscore>  (184) 
-2.54961

>  <r_i_glide_lipo>  (184) 
-0.285846

>  <r_i_glide_hbond>  (184) 
-0.16

>  <r_i_glide_metal>  (184) 
-0

>  <r_i_glide_rewards>  (184) 
-0.200606

>  <r_i_glide_evdw>  (184) 
-23.4623

>  <r_i_glide_ecoul>  (184) 
-7.0225

>  <r_i_glide_erotb>  (184) 
0.364989

>  <r_i_glide_esite>  (184) 
-0.0416532

>  <r_i_glide_emodel>  (184) 
-36.0833

>  <r_i_glide_energy>  (184) 
-30.4848

>  <r_i_glide_einternal>  (184) 
0.376902

>  <r_i_glide_intrahb_reward>  (184) 
-0

>  <i_i_glide_confnum>  (184) 
1

>  <i_i_glide_posenum>  (184) 
40

>  <r_i_glide_eff_state_penalty>  (184) 
0

>  <ligand_id>  (184) 
48

>  <original_smiles>  (184) 
CC=C1C(=O)C23C=CC45C6CC(OC(C)C)(C(=O)OC)C4C2(CCN5CC6COC(C)=O)C1C3

>  <smiles>  (184) 
[H]C(=C1C(=O)C23C([H])=C([H])C45C6([H])C([H])([H])C(OC([H])(C([H])([H])[H])C([H])([H])[H])(C(=O)OC([H])([H])[H])C4([H])C2(C([H])([H])C([H])([H])[N+]5([H])C([H])([H])C6([H])C([H])([H])OC(=O)C([H])([H])[H])C1([H])C3([H])[H])C([H])([H])[H]

$$$$
49:0:0
     RDKit          3D

 31 34  0  0  1  0  0  0  0  0999 V2000
    5.5490   -3.2061   -2.7612 C   0  0  0  0  0  0  0  0  0  0  0  0
    5.5382   -2.4617   -1.5170 N   0  0  0  0  0  0  0  0  0  0  0  0
    4.4621   -1.9242   -0.8341 C   0  0  0  0  0  0  0  0  0  0  0  0
    4.9713   -1.3444    0.2935 C   0  0  0  0  0  0  0  0  0  0  0  0
    4.2385   -0.6380    1.3457 C   0  0  0  0  0  0  0  0  0  0  0  0
    4.7208   -0.2888    2.6328 C   0  0  0  0  0  0  0  0  0  0  0  0
    3.6754    0.3553    3.2397 C   0  0  0  0  0  0  0  0  0  0  0  0
    3.5127    0.9076    4.4566 N   0  0  0  0  0  0  0  0  0  0  0  0
    2.3319    1.4682    4.7139 C   0  0  0  0  0  0  0  0  0  0  0  0
    1.2357    1.5200    3.8042 C   0  0  0  0  0  0  0  0  0  0  0  0
   -0.0518    2.1617    4.1353 C   0  0  0  0  0  0  0  0  0  0  0  0
   -0.4886    2.3959    5.4843 C   0  0  0  0  0  0  0  0  0  0  0  0
   -1.7165    3.0049    5.5623 C   0  0  0  0  0  0  0  0  0  0  0  0
   -2.3783    3.3108    3.9856 S   0  0  0  0  0  0  0  0  0  0  0  0
   -0.9796    2.6147    3.2298 C   0  0  0  0  0  0  0  0  0  0  0  0
    1.4316    0.9493    2.5579 C   0  0  0  0  0  0  0  0  0  0  0  0
    2.6350    0.3711    2.2898 N   0  0  0  0  0  0  0  0  0  0  0  0
    3.0037   -0.2577    1.1325 N   0  0  0  0  0  0  0  0  0  0  0  0
    6.3718   -1.5747    0.2295 C   0  0  0  0  0  0  0  0  0  0  0  0
    6.7080   -2.2382   -0.8744 N   0  0  0  0  0  0  0  0  0  0  0  0
    4.5366   -3.3000   -3.1540 H   0  0  0  0  0  0  0  0  0  0  0  0
    5.9432   -4.2098   -2.6029 H   0  0  0  0  0  0  0  0  0  0  0  0
    6.1686   -2.7017   -3.5014 H   0  0  0  0  0  0  0  0  0  0  0  0
    3.4476   -2.0052   -1.2000 H   0  0  0  0  0  0  0  0  0  0  0  0
    5.6896   -0.4876    3.0539 H   0  0  0  0  0  0  0  0  0  0  0  0
    2.2413    1.9194    5.6965 H   0  0  0  0  0  0  0  0  0  0  0  0
    0.0931    2.1222    6.3528 H   0  0  0  0  0  0  0  0  0  0  0  0
   -2.2728    3.2923    6.4468 H   0  0  0  0  0  0  0  0  0  0  0  0
   -0.9196    2.6131    2.1469 H   0  0  0  0  0  0  0  0  0  0  0  0
    0.6850    0.9208    1.7706 H   0  0  0  0  0  0  0  0  0  0  0  0
    7.1466   -1.2798    0.9246 H   0  0  0  0  0  0  0  0  0  0  0  0
  1  2  1  0
  1 21  1  0
  1 22  1  0
  1 23  1  0
  2 20  1  0
  2  3  1  0
  3  4  2  0
  3 24  1  0
  4  5  1  0
  4 19  1  0
  5 18  2  0
  5  6  1  0
  6  7  2  0
  6 25  1  0
  7 17  1  0
  7  8  1  0
  8  9  2  0
  9 10  1  0
  9 26  1  0
 10 11  1  0
 10 16  2  0
 11 15  2  0
 11 12  1  0
 12 13  2  0
 12 27  1  0
 13 14  1  0
 13 28  1  0
 14 15  1  0
 15 29  1  0
 16 17  1  0
 16 30  1  0
 17 18  1  0
 19 20  2  0
 19 31  1  0
M  END
>  <i_m_ct_stereo_status>  (185) 
1

>  <s_m_source_file>  (185) 
/var/tmp/pbs.5076255.sched01/tmp276pg2sv/48_ir7zhrj.sdf

>  <i_m_source_file_index>  (185) 
33

>  <i_lp_mmshare_version>  (185) 
48012

>  <i_f3d_flags>  (185) 
0

>  <s_epik_input>  (185) 
W0NIM11uMVtjSF1jKFtjSF1uMSktYyhbY0hdMilubihjMjMpW2NIXWMoW2NIXW4zKS1jNFtjSF1bY0hdc1tjSF00

>  <s_epik_cmdline>  (185) 
J2VwaWtfcHl0aG9uJywgJy1waHQnLCAnMi4wJywgJy1waCcsICc3LjAnLCAnLXRuJywgJzgnLCAnLW1hJywgJzIwMCcsICctaW1hZScsICc8aW5maWxlLm1hZT4nLCAnLW9tYWUnLCAnPG91dGZpbGUubWFlPic=

>  <r_lp_tautomer_probability>  (185) 
1

>  <r_epik_Ionization_Penalty>  (185) 
8.96845e-05

>  <r_epik_Ionization_Penalty_Charging>  (185) 
0

>  <r_epik_Ionization_Penalty_Neutral>  (185) 
8.96845e-05

>  <r_epik_State_Penalty>  (185) 
-0

>  <r_epik_Charging_Adjusted_Penalty>  (185) 
0

>  <i_epik_Tot_Q>  (185) 
0

>  <i_epik_Tot_abs_Q>  (185) 
0

>  <s_lp_Force_Field>  (185) 
OPLS3e

>  <r_lp_Energy>  (185) 
15.8887

>  <b_lp_Chiralities_Consistent>  (185) 
1

>  <s_lp_Variant>  (185) 
49:0-1

>  <s_i_glide_gridfile>  (185) 
pfpi4k_grid

>  <i_i_glide_lignum>  (185) 
33

>  <i_i_glide_rotatable_bonds>  (185) 
2

>  <r_i_docking_score>  (185) 
-3.39185

>  <r_i_glide_ligand_efficiency>  (185) 
-0.169592

>  <r_i_glide_ligand_efficiency_sa>  (185) 
-0.460345

>  <r_i_glide_ligand_efficiency_ln>  (185) 
-0.848868

>  <r_i_glide_gscore>  (185) 
-3.39185

>  <r_i_glide_lipo>  (185) 
-0.454622

>  <r_i_glide_hbond>  (185) 
-0.132901

>  <r_i_glide_metal>  (185) 
-0

>  <r_i_glide_rewards>  (185) 
-1.49089

>  <r_i_glide_evdw>  (185) 
-26.3412

>  <r_i_glide_ecoul>  (185) 
-2.84752

>  <r_i_glide_erotb>  (185) 
0.456732

>  <r_i_glide_esite>  (185) 
-0.0259823

>  <r_i_glide_emodel>  (185) 
-36.2427

>  <r_i_glide_energy>  (185) 
-29.1887

>  <r_i_glide_einternal>  (185) 
0.611577

>  <r_i_glide_intrahb_reward>  (185) 
-0

>  <i_i_glide_confnum>  (185) 
3

>  <i_i_glide_posenum>  (185) 
23

>  <r_i_glide_eff_state_penalty>  (185) 
0

>  <ligand_id>  (185) 
49

>  <original_smiles>  (185) 
Cn1cc(-c2cc3ncc(-c4ccsc4)cn3n2)cn1

>  <smiles>  (185) 
[H]c1nn(C([H])([H])[H])c([H])c1-c1nn2c([H])c(-c3c([H])sc([H])c3[H])c([H])nc2c1[H]

$$$$
49:0:1
     RDKit          3D

 31 34  0  0  1  0  0  0  0  0999 V2000
   -3.2240    2.9700    2.9180 C   0  0  0  0  0  0  0  0  0  0  0  0
   -1.8636    2.6219    3.2683 N   0  0  0  0  0  0  0  0  0  0  0  0
   -0.9490    1.8709    2.5523 C   0  0  0  0  0  0  0  0  0  0  0  0
    0.1914    1.8379    3.3029 C   0  0  0  0  0  0  0  0  0  0  0  0
    1.4602    1.1769    2.9796 C   0  0  0  0  0  0  0  0  0  0  0  0
    2.5793    1.0276    3.8403 C   0  0  0  0  0  0  0  0  0  0  0  0
    3.5092    0.3423    3.1039 C   0  0  0  0  0  0  0  0  0  0  0  0
    4.7539   -0.0964    3.3588 N   0  0  0  0  0  0  0  0  0  0  0  0
    5.3879   -0.7368    2.3749 C   0  0  0  0  0  0  0  0  0  0  0  0
    4.8415   -0.9973    1.0831 C   0  0  0  0  0  0  0  0  0  0  0  0
    5.5741   -1.7252    0.0237 C   0  0  0  0  0  0  0  0  0  0  0  0
    6.9861   -1.9980    0.0839 C   0  0  0  0  0  0  0  0  0  0  0  0
    7.4617   -2.6870   -1.0033 C   0  0  0  0  0  0  0  0  0  0  0  0
    6.1898   -3.0577   -2.1260 S   0  0  0  0  0  0  0  0  0  0  0  0
    5.0269   -2.2310   -1.1338 C   0  0  0  0  0  0  0  0  0  0  0  0
    3.5543   -0.5459    0.8573 C   0  0  0  0  0  0  0  0  0  0  0  0
    2.9028    0.1192    1.8519 N   0  0  0  0  0  0  0  0  0  0  0  0
    1.6350    0.6376    1.7967 N   0  0  0  0  0  0  0  0  0  0  0  0
   -0.1140    2.5876    4.4730 C   0  0  0  0  0  0  0  0  0  0  0  0
   -1.3600    3.0544    4.4485 N   0  0  0  0  0  0  0  0  0  0  0  0
   -3.4828    2.5440    1.9479 H   0  0  0  0  0  0  0  0  0  0  0  0
   -3.3403    4.0536    2.8682 H   0  0  0  0  0  0  0  0  0  0  0  0
   -3.9078    2.5732    3.6672 H   0  0  0  0  0  0  0  0  0  0  0  0
   -1.1746    1.4407    1.5886 H   0  0  0  0  0  0  0  0  0  0  0  0
    2.6880    1.3749    4.8510 H   0  0  0  0  0  0  0  0  0  0  0  0
    6.3899   -1.0716    2.6161 H   0  0  0  0  0  0  0  0  0  0  0  0
    7.6167   -1.6920    0.9041 H   0  0  0  0  0  0  0  0  0  0  0  0
    8.4745   -3.0164   -1.2148 H   0  0  0  0  0  0  0  0  0  0  0  0
    3.9990   -2.1967   -1.4664 H   0  0  0  0  0  0  0  0  0  0  0  0
    3.0068   -0.6711   -0.0704 H   0  0  0  0  0  0  0  0  0  0  0  0
    0.5078    2.8113    5.3290 H   0  0  0  0  0  0  0  0  0  0  0  0
  1  2  1  0
  1 21  1  0
  1 22  1  0
  1 23  1  0
  2 20  1  0
  2  3  1  0
  3  4  2  0
  3 24  1  0
  4  5  1  0
  4 19  1  0
  5 18  2  0
  5  6  1  0
  6  7  2  0
  6 25  1  0
  7 17  1  0
  7  8  1  0
  8  9  2  0
  9 10  1  0
  9 26  1  0
 10 11  1  0
 10 16  2  0
 11 15  2  0
 11 12  1  0
 12 13  2  0
 12 27  1  0
 13 14  1  0
 13 28  1  0
 14 15  1  0
 15 29  1  0
 16 17  1  0
 16 30  1  0
 17 18  1  0
 19 20  2  0
 19 31  1  0
M  END
>  <i_m_ct_stereo_status>  (186) 
1

>  <s_m_source_file>  (186) 
/var/tmp/pbs.5076255.sched01/tmp276pg2sv/48_ir7zhrj.sdf

>  <i_m_source_file_index>  (186) 
33

>  <i_lp_mmshare_version>  (186) 
48012

>  <i_f3d_flags>  (186) 
0

>  <s_epik_input>  (186) 
W0NIM11uMVtjSF1jKFtjSF1uMSktYyhbY0hdMilubihjMjMpW2NIXWMoW2NIXW4zKS1jNFtjSF1bY0hdc1tjSF00

>  <s_epik_cmdline>  (186) 
J2VwaWtfcHl0aG9uJywgJy1waHQnLCAnMi4wJywgJy1waCcsICc3LjAnLCAnLXRuJywgJzgnLCAnLW1hJywgJzIwMCcsICctaW1hZScsICc8aW5maWxlLm1hZT4nLCAnLW9tYWUnLCAnPG91dGZpbGUubWFlPic=

>  <r_lp_tautomer_probability>  (186) 
1

>  <r_epik_Ionization_Penalty>  (186) 
8.96845e-05

>  <r_epik_Ionization_Penalty_Charging>  (186) 
0

>  <r_epik_Ionization_Penalty_Neutral>  (186) 
8.96845e-05

>  <r_epik_State_Penalty>  (186) 
-0

>  <r_epik_Charging_Adjusted_Penalty>  (186) 
0

>  <i_epik_Tot_Q>  (186) 
0

>  <i_epik_Tot_abs_Q>  (186) 
0

>  <s_lp_Force_Field>  (186) 
OPLS3e

>  <r_lp_Energy>  (186) 
15.8887

>  <b_lp_Chiralities_Consistent>  (186) 
1

>  <s_lp_Variant>  (186) 
49:0-1

>  <s_i_glide_gridfile>  (186) 
pfpi4k_grid

>  <i_i_glide_lignum>  (186) 
33

>  <i_i_glide_rotatable_bonds>  (186) 
2

>  <r_i_docking_score>  (186) 
-3.39014

>  <r_i_glide_ligand_efficiency>  (186) 
-0.169507

>  <r_i_glide_ligand_efficiency_sa>  (186) 
-0.460113

>  <r_i_glide_ligand_efficiency_ln>  (186) 
-0.84844

>  <r_i_glide_gscore>  (186) 
-3.39014

>  <r_i_glide_lipo>  (186) 
-0.324266

>  <r_i_glide_hbond>  (186) 
0

>  <r_i_glide_metal>  (186) 
-0

>  <r_i_glide_rewards>  (186) 
-1.49199

>  <r_i_glide_evdw>  (186) 
-30.1137

>  <r_i_glide_ecoul>  (186) 
-3.22911

>  <r_i_glide_erotb>  (186) 
0.456732

>  <r_i_glide_esite>  (186) 
-0.0405643

>  <r_i_glide_emodel>  (186) 
-40.6092

>  <r_i_glide_energy>  (186) 
-33.3428

>  <r_i_glide_einternal>  (186) 
0.202279

>  <r_i_glide_intrahb_reward>  (186) 
-0

>  <i_i_glide_confnum>  (186) 
2

>  <i_i_glide_posenum>  (186) 
34

>  <r_i_glide_eff_state_penalty>  (186) 
0

>  <ligand_id>  (186) 
49

>  <original_smiles>  (186) 
Cn1cc(-c2cc3ncc(-c4ccsc4)cn3n2)cn1

>  <smiles>  (186) 
[H]c1nn(C([H])([H])[H])c([H])c1-c1nn2c([H])c(-c3c([H])sc([H])c3[H])c([H])nc2c1[H]

$$$$
49:0:2
     RDKit          3D

 31 34  0  0  1  0  0  0  0  0999 V2000
   -3.1612    2.9470    2.7948 C   0  0  0  0  0  0  0  0  0  0  0  0
   -1.8078    2.5968    3.1764 N   0  0  0  0  0  0  0  0  0  0  0  0
   -0.8807    1.8432    2.4805 C   0  0  0  0  0  0  0  0  0  0  0  0
    0.2462    1.8136    3.2506 C   0  0  0  0  0  0  0  0  0  0  0  0
    1.5192    1.1560    2.9472 C   0  0  0  0  0  0  0  0  0  0  0  0
    2.6262    1.0225    3.8219 C   0  0  0  0  0  0  0  0  0  0  0  0
    3.5631    0.3302    3.1070 C   0  0  0  0  0  0  0  0  0  0  0  0
    4.8028   -0.1031    3.3854 N   0  0  0  0  0  0  0  0  0  0  0  0
    5.4473   -0.7517    2.4188 C   0  0  0  0  0  0  0  0  0  0  0  0
    4.9280   -1.0326    1.1212 C   0  0  0  0  0  0  0  0  0  0  0  0
    5.7364   -1.7646    0.1200 C   0  0  0  0  0  0  0  0  0  0  0  0
    5.2263   -2.1485   -1.1682 C   0  0  0  0  0  0  0  0  0  0  0  0
    6.1345   -2.8305   -1.9387 C   0  0  0  0  0  0  0  0  0  0  0  0
    7.6414   -3.0543   -1.1126 S   0  0  0  0  0  0  0  0  0  0  0  0
    7.0402   -2.1807    0.2671 C   0  0  0  0  0  0  0  0  0  0  0  0
    3.6406   -0.5882    0.8658 C   0  0  0  0  0  0  0  0  0  0  0  0
    2.9766    0.0887    1.8472 N   0  0  0  0  0  0  0  0  0  0  0  0
    1.7117    0.6041    1.7708 N   0  0  0  0  0  0  0  0  0  0  0  0
   -0.0818    2.5683    4.4135 C   0  0  0  0  0  0  0  0  0  0  0  0
   -1.3254    3.0340    4.3628 N   0  0  0  0  0  0  0  0  0  0  0  0
   -3.3988    2.5297    1.8161 H   0  0  0  0  0  0  0  0  0  0  0  0
   -3.2763    4.0308    2.7413 H   0  0  0  0  0  0  0  0  0  0  0  0
   -3.8621    2.5477    3.5276 H   0  0  0  0  0  0  0  0  0  0  0  0
   -1.0847    1.4127    1.5109 H   0  0  0  0  0  0  0  0  0  0  0  0
    2.7230    1.3816    4.8305 H   0  0  0  0  0  0  0  0  0  0  0  0
    6.4514   -1.0701    2.6756 H   0  0  0  0  0  0  0  0  0  0  0  0
    4.2197   -1.9359   -1.4998 H   0  0  0  0  0  0  0  0  0  0  0  0
    6.0094   -3.2376   -2.9355 H   0  0  0  0  0  0  0  0  0  0  0  0
    7.7024   -2.0542    1.1091 H   0  0  0  0  0  0  0  0  0  0  0  0
    3.0994   -0.7256   -0.0645 H   0  0  0  0  0  0  0  0  0  0  0  0
    0.5258    2.7955    5.2790 H   0  0  0  0  0  0  0  0  0  0  0  0
  1  2  1  0
  1 21  1  0
  1 22  1  0
  1 23  1  0
  2 20  1  0
  2  3  1  0
  3  4  2  0
  3 24  1  0
  4  5  1  0
  4 19  1  0
  5 18  2  0
  5  6  1  0
  6  7  2  0
  6 25  1  0
  7 17  1  0
  7  8  1  0
  8  9  2  0
  9 10  1  0
  9 26  1  0
 10 11  1  0
 10 16  2  0
 11 15  2  0
 11 12  1  0
 12 13  2  0
 12 27  1  0
 13 14  1  0
 13 28  1  0
 14 15  1  0
 15 29  1  0
 16 17  1  0
 16 30  1  0
 17 18  1  0
 19 20  2  0
 19 31  1  0
M  END
>  <i_m_ct_stereo_status>  (187) 
1

>  <s_m_source_file>  (187) 
/var/tmp/pbs.5076255.sched01/tmp276pg2sv/48_ir7zhrj.sdf

>  <i_m_source_file_index>  (187) 
33

>  <i_lp_mmshare_version>  (187) 
48012

>  <i_f3d_flags>  (187) 
0

>  <s_epik_input>  (187) 
W0NIM11uMVtjSF1jKFtjSF1uMSktYyhbY0hdMilubihjMjMpW2NIXWMoW2NIXW4zKS1jNFtjSF1bY0hdc1tjSF00

>  <s_epik_cmdline>  (187) 
J2VwaWtfcHl0aG9uJywgJy1waHQnLCAnMi4wJywgJy1waCcsICc3LjAnLCAnLXRuJywgJzgnLCAnLW1hJywgJzIwMCcsICctaW1hZScsICc8aW5maWxlLm1hZT4nLCAnLW9tYWUnLCAnPG91dGZpbGUubWFlPic=

>  <r_lp_tautomer_probability>  (187) 
1

>  <r_epik_Ionization_Penalty>  (187) 
8.96845e-05

>  <r_epik_Ionization_Penalty_Charging>  (187) 
0

>  <r_epik_Ionization_Penalty_Neutral>  (187) 
8.96845e-05

>  <r_epik_State_Penalty>  (187) 
-0

>  <r_epik_Charging_Adjusted_Penalty>  (187) 
0

>  <i_epik_Tot_Q>  (187) 
0

>  <i_epik_Tot_abs_Q>  (187) 
0

>  <s_lp_Force_Field>  (187) 
OPLS3e

>  <r_lp_Energy>  (187) 
15.8887

>  <b_lp_Chiralities_Consistent>  (187) 
1

>  <s_lp_Variant>  (187) 
49:0-1

>  <s_i_glide_gridfile>  (187) 
pfpi4k_grid

>  <i_i_glide_lignum>  (187) 
33

>  <i_i_glide_rotatable_bonds>  (187) 
2

>  <r_i_docking_score>  (187) 
-3.24441

>  <r_i_glide_ligand_efficiency>  (187) 
-0.162221

>  <r_i_glide_ligand_efficiency_sa>  (187) 
-0.440335

>  <r_i_glide_ligand_efficiency_ln>  (187) 
-0.81197

>  <r_i_glide_gscore>  (187) 
-3.24441

>  <r_i_glide_lipo>  (187) 
-0.295606

>  <r_i_glide_hbond>  (187) 
0

>  <r_i_glide_metal>  (187) 
-0

>  <r_i_glide_rewards>  (187) 
-1.49089

>  <r_i_glide_evdw>  (187) 
-30.3455

>  <r_i_glide_ecoul>  (187) 
-2.37822

>  <r_i_glide_erotb>  (187) 
0.456732

>  <r_i_glide_esite>  (187) 
-0.0406467

>  <r_i_glide_emodel>  (187) 
-39.7329

>  <r_i_glide_energy>  (187) 
-32.7237

>  <r_i_glide_einternal>  (187) 
0.0869875

>  <r_i_glide_intrahb_reward>  (187) 
-0

>  <i_i_glide_confnum>  (187) 
2

>  <i_i_glide_posenum>  (187) 
1

>  <r_i_glide_eff_state_penalty>  (187) 
0

>  <ligand_id>  (187) 
49

>  <original_smiles>  (187) 
Cn1cc(-c2cc3ncc(-c4ccsc4)cn3n2)cn1

>  <smiles>  (187) 
[H]c1nn(C([H])([H])[H])c([H])c1-c1nn2c([H])c(-c3c([H])sc([H])c3[H])c([H])nc2c1[H]

$$$$
51:0:0
     RDKit          3D

 60 63  0  0  1  0  0  0  0  0999 V2000
    4.8355   -6.7772    1.9020 C   0  0  0  0  0  0  0  0  0  0  0  0
    5.5550   -5.9505    0.8025 C   0  0  2  0  0  0  0  0  0  0  0  0
    6.4611   -4.8046    1.2933 C   0  0  0  0  0  0  0  0  0  0  0  0
    6.3756   -3.8326    0.2282 N   0  0  2  0  0  0  0  0  0  0  0  0
    6.8888   -2.5327    0.6499 C   0  0  0  0  0  0  0  0  0  0  0  0
    4.9558   -3.7851   -0.1152 C   0  0  2  0  0  0  0  0  0  0  0  0
    4.5605   -5.2699   -0.1328 C   0  0  0  0  0  0  0  0  0  0  0  0
    4.7758   -3.1245   -1.6046 C   0  0  1  0  0  0  0  0  0  0  0  0
    3.4296   -3.2335   -2.3788 C   0  0  0  0  0  0  0  0  0  0  0  0
    5.2166   -1.6476   -1.5522 C   0  0  0  0  0  0  0  0  0  0  0  0
    4.4326   -0.8660   -0.4889 C   0  0  0  0  0  0  0  0  0  0  0  0
    4.5913   -1.5174    0.9024 C   0  0  1  0  0  0  0  0  0  0  0  0
    4.1647   -0.6002    2.1032 C   0  0  1  0  0  0  0  0  0  0  0  0
    2.6415   -0.3790    2.1649 C   0  0  0  0  0  0  0  0  0  0  0  0
    4.6813   -1.1367    3.4675 C   0  0  0  0  0  0  0  0  0  0  0  0
    5.1869   -2.5844    3.4015 C   0  0  1  0  0  0  0  0  0  0  0  0
    5.3128   -3.2903    4.6231 O   0  0  0  0  0  0  0  0  0  0  0  0
    5.0694   -4.6106    4.4622 C   0  0  0  0  0  0  0  0  0  0  0  0
    5.2276   -5.4209    5.3799 O   0  0  0  0  0  0  0  0  0  0  0  0
    4.5341   -4.7014    3.1527 C   0  0  1  0  0  0  0  0  0  0  0  0
    3.0407   -5.6953    3.2830 C   0  0  0  0  0  0  0  0  0  0  0  0
    4.3161   -3.4682    2.5092 C   0  0  2  0  0  0  0  0  0  0  0  0
    4.1575   -3.0530    0.9669 C   0  0  2  0  0  0  0  0  0  0  0  0
    2.6266   -3.1738    0.6262 C   0  0  0  0  0  0  0  0  0  0  0  0
    4.3861   -6.3087    2.3749 H   0  0  0  0  0  0  0  0  0  0  0  0
    5.5884   -7.1623    2.6039 H   0  0  0  0  0  0  0  0  0  0  0  0
    4.1636   -7.4239    1.6050 H   0  0  0  0  0  0  0  0  0  0  0  0
    6.1375   -6.6869    0.2702 H   0  0  0  0  0  0  0  0  0  0  0  0
    6.1341   -4.3097    2.1903 H   0  0  0  0  0  0  0  0  0  0  0  0
    7.4679   -5.1386    1.4987 H   0  0  0  0  0  0  0  0  0  0  0  0
    6.3712   -2.2766    1.3295 H   0  0  0  0  0  0  0  0  0  0  0  0
    7.2254   -2.0073   -0.2197 H   0  0  0  0  0  0  0  0  0  0  0  0
    7.7506   -2.6775    1.2782 H   0  0  0  0  0  0  0  0  0  0  0  0
    4.6468   -5.6732   -1.1386 H   0  0  0  0  0  0  0  0  0  0  0  0
    3.5222   -5.4098    0.1861 H   0  0  0  0  0  0  0  0  0  0  0  0
    5.4569   -3.5906   -2.3209 H   0  0  0  0  0  0  0  0  0  0  0  0
    2.6346   -2.6217   -1.9597 H   0  0  0  0  0  0  0  0  0  0  0  0
    3.0575   -4.2551   -2.4491 H   0  0  0  0  0  0  0  0  0  0  0  0
    3.5600   -2.8948   -3.4064 H   0  0  0  0  0  0  0  0  0  0  0  0
    6.2685   -1.5672   -1.3454 H   0  0  0  0  0  0  0  0  0  0  0  0
    5.1092   -1.1737   -2.5230 H   0  0  0  0  0  0  0  0  0  0  0  0
    4.8619    0.1438   -0.4531 H   0  0  0  0  0  0  0  0  0  0  0  0
    3.3862   -0.6973   -0.7530 H   0  0  0  0  0  0  0  0  0  0  0  0
    5.4370   -1.2319    0.9052 H   0  0  0  0  0  0  0  0  0  0  0  0
    4.6110    0.3924    1.9477 H   0  0  0  0  0  0  0  0  0  0  0  0
    2.1028   -1.2690    2.4883 H   0  0  0  0  0  0  0  0  0  0  0  0
    2.2273   -0.0643    1.2031 H   0  0  0  0  0  0  0  0  0  0  0  0
    2.3925    0.4004    2.8780 H   0  0  0  0  0  0  0  0  0  0  0  0
    5.5714   -0.5420    3.6980 H   0  0  0  0  0  0  0  0  0  0  0  0
    4.0143   -0.9130    4.3084 H   0  0  0  0  0  0  0  0  0  0  0  0
    6.2021   -2.5392    3.0431 H   0  0  0  0  0  0  0  0  0  0  0  0
    5.3539   -5.3418    2.6012 H   0  0  0  0  0  0  0  0  0  0  0  0
    3.4626   -6.7694    3.5423 H   0  0  0  0  0  0  0  0  0  0  0  0
    2.7312   -5.8621    2.2037 H   0  0  0  0  0  0  0  0  0  0  0  0
    2.5201   -5.3174    3.8503 H   0  0  0  0  0  0  0  0  0  0  0  0
    3.3590   -3.2159    2.9518 H   0  0  0  0  0  0  0  0  0  0  0  0
    1.9653   -3.3056    1.4827 H   0  0  0  0  0  0  0  0  0  0  0  0
    2.3985   -4.0376    0.0109 H   0  0  0  0  0  0  0  0  0  0  0  0
    2.2247   -2.2992    0.1187 H   0  0  0  0  0  0  0  0  0  0  0  0
    6.9507   -4.0887   -0.5592 H   0  0  0  0  0  0  0  0  0  0  0  0
  1  2  1  0
  1 25  1  0
  1 26  1  0
  1 27  1  0
  2  7  1  0
  2  3  1  0
  2 28  1  6
  3  4  1  0
  3 29  1  0
  3 30  1  0
  4  5  1  0
  4  6  1  0
  4 60  1  6
  5 31  1  0
  5 32  1  0
  5 33  1  0
  6 23  1  0
  6  7  1  6
  6  8  1  0
  7 34  1  0
  7 35  1  0
  8  9  1  0
  8 10  1  0
  8 36  1  6
  9 37  1  0
  9 38  1  0
  9 39  1  0
 10 11  1  0
 10 40  1  0
 10 41  1  0
 11 12  1  0
 11 42  1  0
 11 43  1  0
 12 23  1  0
 12 13  1  0
 12 44  1  1
 13 14  1  0
 13 15  1  0
 13 45  1  6
 14 46  1  0
 14 47  1  0
 14 48  1  0
 15 16  1  0
 15 49  1  0
 15 50  1  0
 16 22  1  0
 16 17  1  0
 16 51  1  6
 17 18  1  0
 18 19  2  0
 18 20  1  0
 20 21  1  0
 20 22  1  0
 20 52  1  6
 21 53  1  0
 21 54  1  0
 21 55  1  0
 22 23  1  0
 22 56  1  1
 23 24  1  6
 24 57  1  0
 24 58  1  0
 24 59  1  0
M  CHG  1   4   1
M  END
>  <i_m_ct_stereo_status>  (188) 
1

>  <s_m_source_file>  (188) 
/var/tmp/pbs.5076255.sched01/tmp276pg2sv/48_ir7zhrj.sdf

>  <i_m_source_file_index>  (188) 
35

>  <i_lp_mmshare_version>  (188) 
48012

>  <i_f3d_flags>  (188) 
0

>  <s_epik_input>  (188) 
W0NIM11bQ0BASF0oW0NIMl0xKVtDSDJdTihbQ0gzXSlbQ0BdMTJbQ0BdMyhbQ0gzXSlbQ0BASF0oW0NIMl1bQ0gyXVtDQEBIXTJbQ0gzXSlbQ0BASF0oW0NIM10pW0NIMl1bQ0BASF00W0NAQEhdM1tDQEBIXShDKE80KT1PKVtDSDNd

>  <s_epik_cmdline>  (188) 
J2VwaWtfcHl0aG9uJywgJy1waHQnLCAnMi4wJywgJy1waCcsICc3LjAnLCAnLXRuJywgJzgnLCAnLW1hJywgJzIwMCcsICctaW1hZScsICc8aW5maWxlLm1hZT4nLCAnLW9tYWUnLCAnPG91dGZpbGUubWFlPic=

>  <r_epik_Ionization_Penalty>  (188) 
0.000493854

>  <r_epik_Ionization_Penalty_Charging>  (188) 
0.000493854

>  <r_epik_Ionization_Penalty_Neutral>  (188) 
0

>  <r_epik_State_Penalty>  (188) 
0.000306996

>  <r_epik_Charging_Adjusted_Penalty>  (188) 
0.00080085

>  <i_epik_Tot_Q>  (188) 
1

>  <i_epik_Tot_abs_Q>  (188) 
1

>  <s_epik_Chemistry_Notes>  (188) 
This compound has an ester and may undergo hydrolysis at high or low pH.

>  <s_lp_Force_Field>  (188) 
OPLS3e

>  <r_lp_Energy>  (188) 
78.5399

>  <b_lp_Chiralities_Consistent>  (188) 
1

>  <s_lp_Variant>  (188) 
51:0-1

>  <s_i_glide_gridfile>  (188) 
pfpi4k_grid

>  <i_i_glide_lignum>  (188) 
35

>  <i_i_glide_rotatable_bonds>  (188) 
0

>  <r_i_docking_score>  (188) 
48.1731

>  <r_i_glide_ligand_efficiency>  (188) 
2.00721

>  <r_i_glide_ligand_efficiency_sa>  (188) 
5.78981

>  <r_i_glide_ligand_efficiency_ln>  (188) 
11.53

>  <r_i_glide_gscore>  (188) 
48.1731

>  <r_i_glide_lipo>  (188) 
-0.580933

>  <r_i_glide_hbond>  (188) 
0

>  <r_i_glide_metal>  (188) 
-0

>  <r_i_glide_rewards>  (188) 
-1.12906

>  <r_i_glide_evdw>  (188) 
-12.011

>  <r_i_glide_ecoul>  (188) 
-1.88152

>  <r_i_glide_erotb>  (188) 
0

>  <r_i_glide_esite>  (188) 
0

>  <r_i_glide_emodel>  (188) 
191.123

>  <r_i_glide_energy>  (188) 
-13.8925

>  <r_i_glide_einternal>  (188) 
0

>  <r_i_glide_intrahb_reward>  (188) 
-0

>  <i_i_glide_confnum>  (188) 
2

>  <i_i_glide_posenum>  (188) 
1

>  <r_i_glide_eff_state_penalty>  (188) 
0

>  <ligand_id>  (188) 
51

>  <original_smiles>  (188) 
CC1CN(C)C2(C1)C(C)CCC1C(C)CC3OC(=O)C(C)C3C12C

>  <smiles>  (188) 
[H]C([H])([H])C1([H])C(=O)OC2([H])C([H])([H])C([H])(C([H])([H])[H])C3([H])C([H])([H])C([H])([H])C([H])(C([H])([H])[H])C4(C([H])([H])C([H])(C([H])([H])[H])C([H])([H])[N+]4([H])C([H])([H])[H])C3(C([H])([H])[H])C21[H]

$$$$
52:0:0
     RDKit          3D

 35 38  0  0  1  0  0  0  0  0999 V2000
    3.0494   -0.2097   -4.8359 C   0  0  0  0  0  0  0  0  0  0  0  0
    3.8133    0.3834   -3.8634 C   0  0  0  0  0  0  0  0  0  0  0  0
    3.8271   -0.4906   -2.8054 N   0  0  0  0  0  0  0  0  0  0  0  0
    3.1357   -1.5981   -3.0989 C   0  0  0  0  0  0  0  0  0  0  0  0
    2.9550   -3.0227   -2.0807 S   0  0  0  0  0  0  0  0  0  0  0  0
    4.1769   -2.7823   -0.7565 C   0  0  2  0  0  0  0  0  0  0  0  0
    5.5958   -2.6499   -1.3902 C   0  0  0  0  0  0  0  0  0  0  0  0
    6.6338   -2.3993   -0.2955 C   0  0  1  0  0  0  0  0  0  0  0  0
    6.2553   -1.1216    0.4871 C   0  0  0  0  0  0  0  0  0  0  0  0
    4.8878   -1.3127    1.1806 C   0  0  2  0  0  0  0  0  0  0  0  0
    4.9153   -2.5332    2.1123 C   0  0  0  0  0  0  0  0  0  0  0  0
    5.2687   -3.7913    1.2887 C   0  0  2  0  0  0  0  0  0  0  0  0
    6.6616   -3.6113    0.6465 C   0  0  0  0  0  0  0  0  0  0  0  0
    4.2030   -4.0148    0.1841 C   0  0  0  0  0  0  0  0  0  0  0  0
    3.8091   -1.5395    0.1184 C   0  0  0  0  0  0  0  0  0  0  0  0
    2.6505   -1.4299   -4.3212 N   0  0  0  0  0  0  0  0  0  0  0  0
    4.2715   -0.3329   -1.9199 H   0  0  0  0  0  0  0  0  0  0  0  0
    2.7616    0.1597   -5.8201 H   0  0  0  0  0  0  0  0  0  0  0  0
    4.2493    1.3620   -3.8095 H   0  0  0  0  0  0  0  0  0  0  0  0
    5.8306   -3.5467   -1.9721 H   0  0  0  0  0  0  0  0  0  0  0  0
    5.6986   -1.8271   -2.0896 H   0  0  0  0  0  0  0  0  0  0  0  0
    7.6060   -2.2681   -0.7711 H   0  0  0  0  0  0  0  0  0  0  0  0
    7.0240   -0.8935    1.2258 H   0  0  0  0  0  0  0  0  0  0  0  0
    6.2088   -0.2627   -0.1853 H   0  0  0  0  0  0  0  0  0  0  0  0
    4.6371   -0.4091    1.7389 H   0  0  0  0  0  0  0  0  0  0  0  0
    5.6319   -2.3700    2.9189 H   0  0  0  0  0  0  0  0  0  0  0  0
    3.9332   -2.6493    2.5726 H   0  0  0  0  0  0  0  0  0  0  0  0
    5.2952   -4.6506    1.9555 H   0  0  0  0  0  0  0  0  0  0  0  0
    6.9357   -4.5039    0.0840 H   0  0  0  0  0  0  0  0  0  0  0  0
    7.4280   -3.4643    1.4074 H   0  0  0  0  0  0  0  0  0  0  0  0
    3.2237   -4.1773    0.6426 H   0  0  0  0  0  0  0  0  0  0  0  0
    4.4340   -4.9255   -0.3756 H   0  0  0  0  0  0  0  0  0  0  0  0
    3.7418   -0.6043   -0.4239 H   0  0  0  0  0  0  0  0  0  0  0  0
    2.8190   -1.6695    0.5720 H   0  0  0  0  0  0  0  0  0  0  0  0
    2.1126   -2.1122   -4.8528 H   0  0  0  0  0  0  0  0  0  0  0  0
  1 16  1  0
  1  2  2  0
  1 18  1  0
  2  3  1  0
  2 19  1  0
  3 17  1  0
  3  4  1  0
  4  5  1  0
  4 16  2  0
  6  5  1  6
  6 14  1  0
  6 15  1  0
  6  7  1  0
  7  8  1  0
  7 20  1  0
  7 21  1  0
  8 13  1  0
  8  9  1  0
  8 22  1  6
  9 10  1  0
  9 23  1  0
  9 24  1  0
 10 11  1  0
 10 15  1  0
 10 25  1  1
 11 12  1  0
 11 26  1  0
 11 27  1  0
 12 13  1  0
 12 14  1  0
 12 28  1  1
 13 29  1  0
 13 30  1  0
 14 31  1  0
 14 32  1  0
 15 33  1  0
 15 34  1  0
 16 35  1  0
M  CHG  1  16   1
M  END
>  <i_m_ct_stereo_status>  (189) 
1

>  <s_m_source_file>  (189) 
/var/tmp/pbs.5076255.sched01/tmp276pg2sv/48_ir7zhrj.sdf

>  <i_m_source_file_index>  (189) 
36

>  <i_lp_mmshare_version>  (189) 
48012

>  <i_f3d_flags>  (189) 
0

>  <s_epik_input>  (189) 
bjFbY0hdW2NIXVtuSF1jMVNDMjNbQ0gyXVtDQEhdNFtDSDJdW0NAQEhdKFtDSDJdMylbQ0gyXVtDQEhdKFtDSDJdNClbQ0gyXTI=

>  <s_epik_cmdline>  (189) 
J2VwaWtfcHl0aG9uJywgJy1waHQnLCAnMi4wJywgJy1waCcsICc3LjAnLCAnLXRuJywgJzgnLCAnLW1hJywgJzIwMCcsICctaW1hZScsICc8aW5maWxlLm1hZT4nLCAnLW9tYWUnLCAnPG91dGZpbGUubWFlPic=

>  <r_lp_tautomer_probability>  (189) 
1

>  <r_epik_Ionization_Penalty>  (189) 
0.17627

>  <r_epik_Ionization_Penalty_Charging>  (189) 
0

>  <r_epik_Ionization_Penalty_Neutral>  (189) 
0.17627

>  <r_epik_State_Penalty>  (189) 
0.165713

>  <r_epik_Charging_Adjusted_Penalty>  (189) 
0.165713

>  <i_epik_Tot_Q>  (189) 
1

>  <i_epik_Tot_abs_Q>  (189) 
1

>  <s_lp_Force_Field>  (189) 
OPLS3e

>  <r_lp_Energy>  (189) 
10.8967

>  <b_lp_Chiralities_Consistent>  (189) 
1

>  <s_lp_Variant>  (189) 
52:0-1

>  <s_i_glide_gridfile>  (189) 
pfpi4k_grid

>  <i_i_glide_lignum>  (189) 
36

>  <i_i_glide_rotatable_bonds>  (189) 
2

>  <r_i_docking_score>  (189) 
-3.31239

>  <r_i_glide_ligand_efficiency>  (189) 
-0.207024

>  <r_i_glide_ligand_efficiency_sa>  (189) 
-0.521668

>  <r_i_glide_ligand_efficiency_ln>  (189) 
-0.878015

>  <r_i_glide_gscore>  (189) 
-3.31239

>  <r_i_glide_lipo>  (189) 
-0.54423

>  <r_i_glide_hbond>  (189) 
0

>  <r_i_glide_metal>  (189) 
-0

>  <r_i_glide_rewards>  (189) 
-1.81431

>  <r_i_glide_evdw>  (189) 
-21.6755

>  <r_i_glide_ecoul>  (189) 
-3.1694

>  <r_i_glide_erotb>  (189) 
0.620759

>  <r_i_glide_esite>  (189) 
-0.0154235

>  <r_i_glide_emodel>  (189) 
-29.0282

>  <r_i_glide_energy>  (189) 
-24.8449

>  <r_i_glide_einternal>  (189) 
0.256337

>  <r_i_glide_intrahb_reward>  (189) 
-0

>  <i_i_glide_confnum>  (189) 
1

>  <i_i_glide_posenum>  (189) 
28

>  <r_i_glide_eff_state_penalty>  (189) 
0

>  <ligand_id>  (189) 
52

>  <original_smiles>  (189) 
c1c[nH]c(SC23CC4CC(CC(C4)C2)C3)n1

>  <smiles>  (189) 
[H]c1c([H])[n+]([H])c(SC23C([H])([H])C4([H])C([H])([H])C([H])(C([H])([H])C([H])(C4([H])[H])C2([H])[H])C3([H])[H])n1[H]

$$$$
52:0:1
     RDKit          3D

 35 38  0  0  1  0  0  0  0  0999 V2000
    4.6272   -2.7572    4.4292 C   0  0  0  0  0  0  0  0  0  0  0  0
    4.6021   -1.5543    5.0944 C   0  0  0  0  0  0  0  0  0  0  0  0
    4.6288   -0.5623    4.1239 N   0  0  0  0  0  0  0  0  0  0  0  0
    4.6715   -1.1404    2.9142 C   0  0  0  0  0  0  0  0  0  0  0  0
    4.7173   -0.3084    1.3472 S   0  0  0  0  0  0  0  0  0  0  0  0
    4.7813   -1.6408    0.1027 C   0  0  2  0  0  0  0  0  0  0  0  0
    3.4875   -2.5047    0.2070 C   0  0  0  0  0  0  0  0  0  0  0  0
    3.5520   -3.6492   -0.7999 C   0  0  1  0  0  0  0  0  0  0  0  0
    3.5984   -3.0602   -2.2211 C   0  0  0  0  0  0  0  0  0  0  0  0
    4.8717   -2.1950   -2.3702 C   0  0  2  0  0  0  0  0  0  0  0  0
    6.1302   -3.0570   -2.1300 C   0  0  0  0  0  0  0  0  0  0  0  0
    6.0831   -3.6373   -0.7061 C   0  0  2  0  0  0  0  0  0  0  0  0
    4.8136   -4.5035   -0.5330 C   0  0  0  0  0  0  0  0  0  0  0  0
    6.0747   -2.4904    0.3011 C   0  0  0  0  0  0  0  0  0  0  0  0
    4.8293   -1.0541   -1.3352 C   0  0  0  0  0  0  0  0  0  0  0  0
    4.6705   -2.4673    3.0886 N   0  0  0  0  0  0  0  0  0  0  0  0
    4.6135    0.4317    4.2808 H   0  0  0  0  0  0  0  0  0  0  0  0
    4.6185   -3.7836    4.7668 H   0  0  0  0  0  0  0  0  0  0  0  0
    4.5650   -1.3500    6.1609 H   0  0  0  0  0  0  0  0  0  0  0  0
    3.3085   -2.9691    1.1730 H   0  0  0  0  0  0  0  0  0  0  0  0
    2.6215   -1.8660    0.0131 H   0  0  0  0  0  0  0  0  0  0  0  0
    2.6610   -4.2677   -0.6902 H   0  0  0  0  0  0  0  0  0  0  0  0
    3.5772   -3.8540   -2.9661 H   0  0  0  0  0  0  0  0  0  0  0  0
    2.7050   -2.4447   -2.3843 H   0  0  0  0  0  0  0  0  0  0  0  0
    4.9048   -1.7903   -3.3812 H   0  0  0  0  0  0  0  0  0  0  0  0
    6.2003   -3.8630   -2.8640 H   0  0  0  0  0  0  0  0  0  0  0  0
    7.0329   -2.4542   -2.2424 H   0  0  0  0  0  0  0  0  0  0  0  0
    6.9649   -4.2515   -0.5199 H   0  0  0  0  0  0  0  0  0  0  0  0
    4.7760   -4.9288    0.4697 H   0  0  0  0  0  0  0  0  0  0  0  0
    4.8442   -5.3556   -1.2165 H   0  0  0  0  0  0  0  0  0  0  0  0
    6.9581   -1.8557    0.1799 H   0  0  0  0  0  0  0  0  0  0  0  0
    6.1697   -2.9562    1.2759 H   0  0  0  0  0  0  0  0  0  0  0  0
    3.9608   -0.4248   -1.5373 H   0  0  0  0  0  0  0  0  0  0  0  0
    5.6975   -0.4092   -1.4619 H   0  0  0  0  0  0  0  0  0  0  0  0
    4.6950   -3.1321    2.3274 H   0  0  0  0  0  0  0  0  0  0  0  0
  1 16  1  0
  1  2  2  0
  1 18  1  0
  2  3  1  0
  2 19  1  0
  3 17  1  0
  3  4  1  0
  4  5  1  0
  4 16  2  0
  6  5  1  1
  6 14  1  0
  6 15  1  0
  6  7  1  0
  7  8  1  0
  7 20  1  0
  7 21  1  0
  8 13  1  0
  8  9  1  0
  8 22  1  6
  9 10  1  0
  9 23  1  0
  9 24  1  0
 10 11  1  0
 10 15  1  0
 10 25  1  6
 11 12  1  0
 11 26  1  0
 11 27  1  0
 12 13  1  0
 12 14  1  0
 12 28  1  1
 13 29  1  0
 13 30  1  0
 14 31  1  0
 14 32  1  0
 15 33  1  0
 15 34  1  0
 16 35  1  0
M  CHG  1  16   1
M  END
>  <i_m_ct_stereo_status>  (190) 
1

>  <s_m_source_file>  (190) 
/var/tmp/pbs.5076255.sched01/tmp276pg2sv/48_ir7zhrj.sdf

>  <i_m_source_file_index>  (190) 
36

>  <i_lp_mmshare_version>  (190) 
48012

>  <i_f3d_flags>  (190) 
0

>  <s_epik_input>  (190) 
bjFbY0hdW2NIXVtuSF1jMVNDMjNbQ0gyXVtDQEhdNFtDSDJdW0NAQEhdKFtDSDJdMylbQ0gyXVtDQEhdKFtDSDJdNClbQ0gyXTI=

>  <s_epik_cmdline>  (190) 
J2VwaWtfcHl0aG9uJywgJy1waHQnLCAnMi4wJywgJy1waCcsICc3LjAnLCAnLXRuJywgJzgnLCAnLW1hJywgJzIwMCcsICctaW1hZScsICc8aW5maWxlLm1hZT4nLCAnLW9tYWUnLCAnPG91dGZpbGUubWFlPic=

>  <r_lp_tautomer_probability>  (190) 
1

>  <r_epik_Ionization_Penalty>  (190) 
0.17627

>  <r_epik_Ionization_Penalty_Charging>  (190) 
0

>  <r_epik_Ionization_Penalty_Neutral>  (190) 
0.17627

>  <r_epik_State_Penalty>  (190) 
0.165713

>  <r_epik_Charging_Adjusted_Penalty>  (190) 
0.165713

>  <i_epik_Tot_Q>  (190) 
1

>  <i_epik_Tot_abs_Q>  (190) 
1

>  <s_lp_Force_Field>  (190) 
OPLS3e

>  <r_lp_Energy>  (190) 
10.8967

>  <b_lp_Chiralities_Consistent>  (190) 
1

>  <s_lp_Variant>  (190) 
52:0-1

>  <s_i_glide_gridfile>  (190) 
pfpi4k_grid

>  <i_i_glide_lignum>  (190) 
36

>  <i_i_glide_rotatable_bonds>  (190) 
2

>  <r_i_docking_score>  (190) 
-2.97707

>  <r_i_glide_ligand_efficiency>  (190) 
-0.186067

>  <r_i_glide_ligand_efficiency_sa>  (190) 
-0.468859

>  <r_i_glide_ligand_efficiency_ln>  (190) 
-0.789132

>  <r_i_glide_gscore>  (190) 
-2.97707

>  <r_i_glide_lipo>  (190) 
-0.528302

>  <r_i_glide_hbond>  (190) 
0

>  <r_i_glide_metal>  (190) 
-0

>  <r_i_glide_rewards>  (190) 
-1.89293

>  <r_i_glide_evdw>  (190) 
-19.8628

>  <r_i_glide_ecoul>  (190) 
-1.22305

>  <r_i_glide_erotb>  (190) 
0.620759

>  <r_i_glide_esite>  (190) 
0

>  <r_i_glide_emodel>  (190) 
-24.8995

>  <r_i_glide_energy>  (190) 
-21.0858

>  <r_i_glide_einternal>  (190) 
0.0494209

>  <r_i_glide_intrahb_reward>  (190) 
-0

>  <i_i_glide_confnum>  (190) 
3

>  <i_i_glide_posenum>  (190) 
2

>  <r_i_glide_eff_state_penalty>  (190) 
0

>  <ligand_id>  (190) 
52

>  <original_smiles>  (190) 
c1c[nH]c(SC23CC4CC(CC(C4)C2)C3)n1

>  <smiles>  (190) 
[H]c1c([H])[n+]([H])c(SC23C([H])([H])C4([H])C([H])([H])C([H])(C([H])([H])C([H])(C4([H])[H])C2([H])[H])C3([H])[H])n1[H]

$$$$
52:0:2
     RDKit          3D

 35 38  0  0  1  0  0  0  0  0999 V2000
    4.6574   -1.4585    4.3715 C   0  0  0  0  0  0  0  0  0  0  0  0
    4.8788   -2.6965    4.9094 C   0  0  0  0  0  0  0  0  0  0  0  0
    4.2144   -3.6065    4.1026 N   0  0  0  0  0  0  0  0  0  0  0  0
    3.6119   -2.9520    3.1026 C   0  0  0  0  0  0  0  0  0  0  0  0
    2.7322   -3.6734    1.7486 S   0  0  0  0  0  0  0  0  0  0  0  0
    3.6287   -3.1325    0.2495 C   0  0  2  0  0  0  0  0  0  0  0  0
    2.8343   -3.5057   -1.0292 C   0  0  0  0  0  0  0  0  0  0  0  0
    3.6077   -3.0354   -2.2895 C   0  0  1  0  0  0  0  0  0  0  0  0
    3.7860   -1.5003   -2.2447 C   0  0  0  0  0  0  0  0  0  0  0  0
    4.5916   -1.1463   -0.9861 C   0  0  2  0  0  0  0  0  0  0  0  0
    5.9718   -1.8389   -0.9866 C   0  0  0  0  0  0  0  0  0  0  0  0
    5.7862   -3.3628   -1.0544 C   0  0  2  0  0  0  0  0  0  0  0  0
    5.0005   -3.7096   -2.3335 C   0  0  0  0  0  0  0  0  0  0  0  0
    5.0062   -3.8376    0.1883 C   0  0  0  0  0  0  0  0  0  0  0  0
    3.8346   -1.5964    0.2564 C   0  0  0  0  0  0  0  0  0  0  0  0
    3.8480   -1.6408    3.2672 N   0  0  0  0  0  0  0  0  0  0  0  0
    4.2405   -4.6102    4.1976 H   0  0  0  0  0  0  0  0  0  0  0  0
    4.9971   -0.4704    4.6506 H   0  0  0  0  0  0  0  0  0  0  0  0
    5.4825   -2.9910    5.7622 H   0  0  0  0  0  0  0  0  0  0  0  0
    2.6676   -4.5821   -1.0758 H   0  0  0  0  0  0  0  0  0  0  0  0
    1.8417   -3.0552   -1.0147 H   0  0  0  0  0  0  0  0  0  0  0  0
    3.0410   -3.3022   -3.1859 H   0  0  0  0  0  0  0  0  0  0  0  0
    4.2892   -1.1240   -3.1411 H   0  0  0  0  0  0  0  0  0  0  0  0
    2.8071   -1.0156   -2.1970 H   0  0  0  0  0  0  0  0  0  0  0  0
    4.7069   -0.0699   -0.9270 H   0  0  0  0  0  0  0  0  0  0  0  0
    6.5651   -1.5022   -1.8321 H   0  0  0  0  0  0  0  0  0  0  0  0
    6.5210   -1.5758   -0.0814 H   0  0  0  0  0  0  0  0  0  0  0  0
    6.7612   -3.8549   -1.0782 H   0  0  0  0  0  0  0  0  0  0  0  0
    4.8961   -4.7887   -2.4075 H   0  0  0  0  0  0  0  0  0  0  0  0
    5.5540   -3.3894   -3.2171 H   0  0  0  0  0  0  0  0  0  0  0  0
    5.5837   -3.6252    1.0896 H   0  0  0  0  0  0  0  0  0  0  0  0
    4.8832   -4.9230    0.1534 H   0  0  0  0  0  0  0  0  0  0  0  0
    2.8751   -1.0860    0.3264 H   0  0  0  0  0  0  0  0  0  0  0  0
    4.4766   -1.2617    1.0528 H   0  0  0  0  0  0  0  0  0  0  0  0
    3.5252   -0.9299    2.6285 H   0  0  0  0  0  0  0  0  0  0  0  0
  1 16  1  0
  1  2  2  0
  1 18  1  0
  2  3  1  0
  2 19  1  0
  3 17  1  0
  3  4  1  0
  4  5  1  0
  4 16  2  0
  6  5  1  1
  6 14  1  0
  6 15  1  0
  6  7  1  0
  7  8  1  0
  7 20  1  0
  7 21  1  0
  8 13  1  0
  8  9  1  0
  8 22  1  6
  9 10  1  0
  9 23  1  0
  9 24  1  0
 10 11  1  0
 10 15  1  0
 10 25  1  1
 11 12  1  0
 11 26  1  0
 11 27  1  0
 12 13  1  0
 12 14  1  0
 12 28  1  6
 13 29  1  0
 13 30  1  0
 14 31  1  0
 14 32  1  0
 15 33  1  0
 15 34  1  0
 16 35  1  0
M  CHG  1  16   1
M  END
>  <i_m_ct_stereo_status>  (191) 
1

>  <s_m_source_file>  (191) 
/var/tmp/pbs.5076255.sched01/tmp276pg2sv/48_ir7zhrj.sdf

>  <i_m_source_file_index>  (191) 
36

>  <i_lp_mmshare_version>  (191) 
48012

>  <i_f3d_flags>  (191) 
0

>  <s_epik_input>  (191) 
bjFbY0hdW2NIXVtuSF1jMVNDMjNbQ0gyXVtDQEhdNFtDSDJdW0NAQEhdKFtDSDJdMylbQ0gyXVtDQEhdKFtDSDJdNClbQ0gyXTI=

>  <s_epik_cmdline>  (191) 
J2VwaWtfcHl0aG9uJywgJy1waHQnLCAnMi4wJywgJy1waCcsICc3LjAnLCAnLXRuJywgJzgnLCAnLW1hJywgJzIwMCcsICctaW1hZScsICc8aW5maWxlLm1hZT4nLCAnLW9tYWUnLCAnPG91dGZpbGUubWFlPic=

>  <r_lp_tautomer_probability>  (191) 
1

>  <r_epik_Ionization_Penalty>  (191) 
0.17627

>  <r_epik_Ionization_Penalty_Charging>  (191) 
0

>  <r_epik_Ionization_Penalty_Neutral>  (191) 
0.17627

>  <r_epik_State_Penalty>  (191) 
0.165713

>  <r_epik_Charging_Adjusted_Penalty>  (191) 
0.165713

>  <i_epik_Tot_Q>  (191) 
1

>  <i_epik_Tot_abs_Q>  (191) 
1

>  <s_lp_Force_Field>  (191) 
OPLS3e

>  <r_lp_Energy>  (191) 
10.8967

>  <b_lp_Chiralities_Consistent>  (191) 
1

>  <s_lp_Variant>  (191) 
52:0-1

>  <s_i_glide_gridfile>  (191) 
pfpi4k_grid

>  <i_i_glide_lignum>  (191) 
36

>  <i_i_glide_rotatable_bonds>  (191) 
2

>  <r_i_docking_score>  (191) 
-2.48994

>  <r_i_glide_ligand_efficiency>  (191) 
-0.155622

>  <r_i_glide_ligand_efficiency_sa>  (191) 
-0.392142

>  <r_i_glide_ligand_efficiency_ln>  (191) 
-0.66001

>  <r_i_glide_gscore>  (191) 
-2.48994

>  <r_i_glide_lipo>  (191) 
-0.263352

>  <r_i_glide_hbond>  (191) 
0

>  <r_i_glide_metal>  (191) 
-0

>  <r_i_glide_rewards>  (191) 
-1.80461

>  <r_i_glide_evdw>  (191) 
-17.6576

>  <r_i_glide_ecoul>  (191) 
-1.06571

>  <r_i_glide_erotb>  (191) 
0.620759

>  <r_i_glide_esite>  (191) 
0

>  <r_i_glide_emodel>  (191) 
-20.9451

>  <r_i_glide_energy>  (191) 
-18.7233

>  <r_i_glide_einternal>  (191) 
1.19113

>  <r_i_glide_intrahb_reward>  (191) 
-0

>  <i_i_glide_confnum>  (191) 
5

>  <i_i_glide_posenum>  (191) 
3

>  <r_i_glide_eff_state_penalty>  (191) 
0

>  <ligand_id>  (191) 
52

>  <original_smiles>  (191) 
c1c[nH]c(SC23CC4CC(CC(C4)C2)C3)n1

>  <smiles>  (191) 
[H]c1c([H])[n+]([H])c(SC23C([H])([H])C4([H])C([H])([H])C([H])(C([H])([H])C([H])(C4([H])[H])C2([H])[H])C3([H])[H])n1[H]

$$$$
52:1:0
     RDKit          3D

 34 37  0  0  1  0  0  0  0  0999 V2000
    3.7820   -0.1121   -5.1350 C   0  0  0  0  0  0  0  0  0  0  0  0
    2.8447    0.2878   -4.3278 C   0  0  0  0  0  0  0  0  0  0  0  0
    2.6324   -0.6965   -3.3656 N   0  0  0  0  0  0  0  0  0  0  0  0
    3.4200   -1.6963   -3.7057 C   0  0  0  0  0  0  0  0  0  0  0  0
    3.3182   -3.2279   -2.8661 S   0  0  0  0  0  0  0  0  0  0  0  0
    4.4430   -2.9107   -1.4726 C   0  0  2  0  0  0  0  0  0  0  0  0
    5.8489   -2.4856   -1.9587 C   0  0  0  0  0  0  0  0  0  0  0  0
    6.7661   -2.2068   -0.7550 C   0  0  1  0  0  0  0  0  0  0  0  0
    6.1475   -1.0848    0.1043 C   0  0  0  0  0  0  0  0  0  0  0  0
    4.7742   -1.5362    0.6291 C   0  0  2  0  0  0  0  0  0  0  0  0
    4.9232   -2.8203    1.4570 C   0  0  0  0  0  0  0  0  0  0  0  0
    5.5432   -3.9244    0.5777 C   0  0  2  0  0  0  0  0  0  0  0  0
    6.9313   -3.4740    0.0863 C   0  0  0  0  0  0  0  0  0  0  0  0
    4.6190   -4.2009   -0.6333 C   0  0  0  0  0  0  0  0  0  0  0  0
    3.8492   -1.8102   -0.5618 C   0  0  0  0  0  0  0  0  0  0  0  0
    4.2128   -1.4017   -4.7164 N   0  0  0  0  0  0  0  0  0  0  0  0
    1.9797   -0.6629   -2.6125 H   0  0  0  0  0  0  0  0  0  0  0  0
    4.1816    0.5307   -5.9240 H   0  0  0  0  0  0  0  0  0  0  0  0
    2.3633    1.2727   -4.3279 H   0  0  0  0  0  0  0  0  0  0  0  0
    6.2898   -3.2436   -2.6104 H   0  0  0  0  0  0  0  0  0  0  0  0
    5.7915   -1.5711   -2.5406 H   0  0  0  0  0  0  0  0  0  0  0  0
    7.7438   -1.8946   -1.1159 H   0  0  0  0  0  0  0  0  0  0  0  0
    6.8067   -0.8088    0.9280 H   0  0  0  0  0  0  0  0  0  0  0  0
    6.0130   -0.1926   -0.5005 H   0  0  0  0  0  0  0  0  0  0  0  0
    4.3359   -0.7419    1.2331 H   0  0  0  0  0  0  0  0  0  0  0  0
    5.5419   -2.6304    2.3343 H   0  0  0  0  0  0  0  0  0  0  0  0
    3.9448   -3.1360    1.8162 H   0  0  0  0  0  0  0  0  0  0  0  0
    5.6586   -4.8306    1.1692 H   0  0  0  0  0  0  0  0  0  0  0  0
    7.3977   -4.2537   -0.5122 H   0  0  0  0  0  0  0  0  0  0  0  0
    7.6022   -3.2790    0.9245 H   0  0  0  0  0  0  0  0  0  0  0  0
    3.6511   -4.5595   -0.2881 H   0  0  0  0  0  0  0  0  0  0  0  0
    5.0378   -4.9996   -1.2462 H   0  0  0  0  0  0  0  0  0  0  0  0
    3.7302   -0.8654   -1.0856 H   0  0  0  0  0  0  0  0  0  0  0  0
    2.8562   -2.1071   -0.2220 H   0  0  0  0  0  0  0  0  0  0  0  0
  1 16  1  0
  1  2  2  0
  1 18  1  0
  2  3  1  0
  2 19  1  0
  3 17  1  0
  3  4  1  0
  4  5  1  0
  4 16  2  0
  6  5  1  6
  6 14  1  0
  6 15  1  0
  6  7  1  0
  7  8  1  0
  7 20  1  0
  7 21  1  0
  8 13  1  0
  8  9  1  0
  8 22  1  6
  9 10  1  0
  9 23  1  0
  9 24  1  0
 10 11  1  0
 10 15  1  0
 10 25  1  1
 11 12  1  0
 11 26  1  0
 11 27  1  0
 12 13  1  0
 12 14  1  0
 12 28  1  1
 13 29  1  0
 13 30  1  0
 14 31  1  0
 14 32  1  0
 15 33  1  0
 15 34  1  0
M  END
>  <i_m_ct_stereo_status>  (192) 
1

>  <s_m_source_file>  (192) 
/var/tmp/pbs.5076255.sched01/tmp276pg2sv/48_ir7zhrj.sdf

>  <i_m_source_file_index>  (192) 
37

>  <i_lp_mmshare_version>  (192) 
48012

>  <i_f3d_flags>  (192) 
0

>  <s_epik_input>  (192) 
bjFbY0hdW2NIXVtuSF1jMVNDMjNbQ0gyXVtDQEhdNFtDSDJdW0NAQEhdKFtDSDJdMylbQ0gyXVtDQEhdKFtDSDJdNClbQ0gyXTI=

>  <s_epik_cmdline>  (192) 
J2VwaWtfcHl0aG9uJywgJy1waHQnLCAnMi4wJywgJy1waCcsICc3LjAnLCAnLXRuJywgJzgnLCAnLW1hJywgJzIwMCcsICctaW1hZScsICc8aW5maWxlLm1hZT4nLCAnLW9tYWUnLCAnPG91dGZpbGUubWFlPic=

>  <r_lp_tautomer_probability>  (192) 
1

>  <r_epik_Ionization_Penalty>  (192) 
0.804228

>  <r_epik_Ionization_Penalty_Charging>  (192) 
0.804228

>  <r_epik_Ionization_Penalty_Neutral>  (192) 
7.25876e-07

>  <r_epik_State_Penalty>  (192) 
0.835794

>  <r_epik_Charging_Adjusted_Penalty>  (192) 
1.64002

>  <i_epik_Tot_Q>  (192) 
0

>  <i_epik_Tot_abs_Q>  (192) 
0

>  <s_lp_Force_Field>  (192) 
OPLS3e

>  <r_lp_Energy>  (192) 
7.11714

>  <b_lp_Chiralities_Consistent>  (192) 
1

>  <s_lp_Variant>  (192) 
52:0-2

>  <s_i_glide_gridfile>  (192) 
pfpi4k_grid

>  <i_i_glide_lignum>  (192) 
37

>  <i_i_glide_rotatable_bonds>  (192) 
2

>  <r_i_docking_score>  (192) 
-3.50029

>  <r_i_glide_ligand_efficiency>  (192) 
-0.218768

>  <r_i_glide_ligand_efficiency_sa>  (192) 
-0.551262

>  <r_i_glide_ligand_efficiency_ln>  (192) 
-0.927823

>  <r_i_glide_gscore>  (192) 
-3.50029

>  <r_i_glide_lipo>  (192) 
-0.380374

>  <r_i_glide_hbond>  (192) 
-0.409138

>  <r_i_glide_metal>  (192) 
-0

>  <r_i_glide_rewards>  (192) 
-2.08261

>  <r_i_glide_evdw>  (192) 
-10.7108

>  <r_i_glide_ecoul>  (192) 
-4.78625

>  <r_i_glide_erotb>  (192) 
0.625308

>  <r_i_glide_esite>  (192) 
0

>  <r_i_glide_emodel>  (192) 
-19.4954

>  <r_i_glide_energy>  (192) 
-15.4971

>  <r_i_glide_einternal>  (192) 
0.51072

>  <r_i_glide_intrahb_reward>  (192) 
-0

>  <i_i_glide_confnum>  (192) 
5

>  <i_i_glide_posenum>  (192) 
2

>  <r_i_glide_eff_state_penalty>  (192) 
0

>  <ligand_id>  (192) 
52

>  <original_smiles>  (192) 
c1c[nH]c(SC23CC4CC(CC(C4)C2)C3)n1

>  <smiles>  (192) 
[H]c1nc(SC23C([H])([H])C4([H])C([H])([H])C([H])(C([H])([H])C([H])(C4([H])[H])C2([H])[H])C3([H])[H])n([H])c1[H]

$$$$
52:1:1
     RDKit          3D

 34 37  0  0  1  0  0  0  0  0999 V2000
    5.0388   -2.9189    4.6064 C   0  0  0  0  0  0  0  0  0  0  0  0
    5.0052   -1.7299    5.2922 C   0  0  0  0  0  0  0  0  0  0  0  0
    4.9890   -0.7467    4.3203 N   0  0  0  0  0  0  0  0  0  0  0  0
    5.0099   -1.3331    3.1196 C   0  0  0  0  0  0  0  0  0  0  0  0
    4.9138   -0.4235    1.6209 S   0  0  0  0  0  0  0  0  0  0  0  0
    4.8285   -1.7288    0.3325 C   0  0  2  0  0  0  0  0  0  0  0  0
    6.1617   -2.5397    0.2852 C   0  0  0  0  0  0  0  0  0  0  0  0
    6.0499   -3.6492   -0.7637 C   0  0  1  0  0  0  0  0  0  0  0  0
    4.8229   -4.5321   -0.4588 C   0  0  0  0  0  0  0  0  0  0  0  0
    3.5260   -3.7061   -0.5574 C   0  0  2  0  0  0  0  0  0  0  0  0
    3.3982   -3.0566   -1.9493 C   0  0  0  0  0  0  0  0  0  0  0  0
    4.6304   -2.1615   -2.1959 C   0  0  2  0  0  0  0  0  0  0  0  0
    5.9109   -3.0278   -2.1570 C   0  0  0  0  0  0  0  0  0  0  0  0
    4.7074   -1.0680   -1.0947 C   0  0  0  0  0  0  0  0  0  0  0  0
    3.5415   -2.5989    0.4951 C   0  0  0  0  0  0  0  0  0  0  0  0
    5.0653   -2.6491    3.2521 N   0  0  0  0  0  0  0  0  0  0  0  0
    4.9248    0.2236    4.4846 H   0  0  0  0  0  0  0  0  0  0  0  0
    5.0536   -3.9250    4.9326 H   0  0  0  0  0  0  0  0  0  0  0  0
    4.9758   -1.5608    6.3559 H   0  0  0  0  0  0  0  0  0  0  0  0
    7.0029   -1.8843    0.0539 H   0  0  0  0  0  0  0  0  0  0  0  0
    6.4325   -3.0472    1.2110 H   0  0  0  0  0  0  0  0  0  0  0  0
    6.9543   -4.2478   -0.7153 H   0  0  0  0  0  0  0  0  0  0  0  0
    4.7856   -5.3716   -1.1436 H   0  0  0  0  0  0  0  0  0  0  0  0
    4.9185   -4.9648    0.5358 H   0  0  0  0  0  0  0  0  0  0  0  0
    2.6683   -4.3499   -0.3840 H   0  0  0  0  0  0  0  0  0  0  0  0
    3.3133   -3.8300   -2.7136 H   0  0  0  0  0  0  0  0  0  0  0  0
    2.4861   -2.4642   -1.9814 H   0  0  0  0  0  0  0  0  0  0  0  0
    4.5349   -1.7064   -3.1844 H   0  0  0  0  0  0  0  0  0  0  0  0
    6.7922   -2.4187   -2.3665 H   0  0  0  0  0  0  0  0  0  0  0  0
    5.8715   -3.8141   -2.9198 H   0  0  0  0  0  0  0  0  0  0  0  0
    3.8196   -0.4519   -1.1614 H   0  0  0  0  0  0  0  0  0  0  0  0
    5.5431   -0.3982   -1.3023 H   0  0  0  0  0  0  0  0  0  0  0  0
    3.4445   -3.1279    1.4529 H   0  0  0  0  0  0  0  0  0  0  0  0
    2.6466   -1.9740    0.3930 H   0  0  0  0  0  0  0  0  0  0  0  0
  1 16  1  0
  1  2  2  0
  1 18  1  0
  2  3  1  0
  2 19  1  0
  3 17  1  0
  3  4  1  0
  4  5  1  0
  4 16  2  0
  6  5  1  1
  6 14  1  0
  6 15  1  0
  6  7  1  0
  7  8  1  0
  7 20  1  0
  7 21  1  0
  8 13  1  0
  8  9  1  0
  8 22  1  6
  9 10  1  0
  9 23  1  0
  9 24  1  0
 10 11  1  0
 10 15  1  0
 10 25  1  1
 11 12  1  0
 11 26  1  0
 11 27  1  0
 12 13  1  0
 12 14  1  0
 12 28  1  6
 13 29  1  0
 13 30  1  0
 14 31  1  0
 14 32  1  0
 15 33  1  0
 15 34  1  0
M  END
>  <i_m_ct_stereo_status>  (193) 
1

>  <s_m_source_file>  (193) 
/var/tmp/pbs.5076255.sched01/tmp276pg2sv/48_ir7zhrj.sdf

>  <i_m_source_file_index>  (193) 
37

>  <i_lp_mmshare_version>  (193) 
48012

>  <i_f3d_flags>  (193) 
0

>  <s_epik_input>  (193) 
bjFbY0hdW2NIXVtuSF1jMVNDMjNbQ0gyXVtDQEhdNFtDSDJdW0NAQEhdKFtDSDJdMylbQ0gyXVtDQEhdKFtDSDJdNClbQ0gyXTI=

>  <s_epik_cmdline>  (193) 
J2VwaWtfcHl0aG9uJywgJy1waHQnLCAnMi4wJywgJy1waCcsICc3LjAnLCAnLXRuJywgJzgnLCAnLW1hJywgJzIwMCcsICctaW1hZScsICc8aW5maWxlLm1hZT4nLCAnLW9tYWUnLCAnPG91dGZpbGUubWFlPic=

>  <r_lp_tautomer_probability>  (193) 
1

>  <r_epik_Ionization_Penalty>  (193) 
0.804228

>  <r_epik_Ionization_Penalty_Charging>  (193) 
0.804228

>  <r_epik_Ionization_Penalty_Neutral>  (193) 
7.25876e-07

>  <r_epik_State_Penalty>  (193) 
0.835794

>  <r_epik_Charging_Adjusted_Penalty>  (193) 
1.64002

>  <i_epik_Tot_Q>  (193) 
0

>  <i_epik_Tot_abs_Q>  (193) 
0

>  <s_lp_Force_Field>  (193) 
OPLS3e

>  <r_lp_Energy>  (193) 
7.11714

>  <b_lp_Chiralities_Consistent>  (193) 
1

>  <s_lp_Variant>  (193) 
52:0-2

>  <s_i_glide_gridfile>  (193) 
pfpi4k_grid

>  <i_i_glide_lignum>  (193) 
37

>  <i_i_glide_rotatable_bonds>  (193) 
2

>  <r_i_docking_score>  (193) 
-2.8609

>  <r_i_glide_ligand_efficiency>  (193) 
-0.178806

>  <r_i_glide_ligand_efficiency_sa>  (193) 
-0.450563

>  <r_i_glide_ligand_efficiency_ln>  (193) 
-0.758338

>  <r_i_glide_gscore>  (193) 
-2.8609

>  <r_i_glide_lipo>  (193) 
-0.517039

>  <r_i_glide_hbond>  (193) 
0

>  <r_i_glide_metal>  (193) 
-0

>  <r_i_glide_rewards>  (193) 
-1.92923

>  <r_i_glide_evdw>  (193) 
-20.1141

>  <r_i_glide_ecoul>  (193) 
-0.228248

>  <r_i_glide_erotb>  (193) 
0.625308

>  <r_i_glide_esite>  (193) 
0

>  <r_i_glide_emodel>  (193) 
-23.3868

>  <r_i_glide_energy>  (193) 
-20.3423

>  <r_i_glide_einternal>  (193) 
0.119857

>  <r_i_glide_intrahb_reward>  (193) 
-0

>  <i_i_glide_confnum>  (193) 
5

>  <i_i_glide_posenum>  (193) 
3

>  <r_i_glide_eff_state_penalty>  (193) 
0

>  <ligand_id>  (193) 
52

>  <original_smiles>  (193) 
c1c[nH]c(SC23CC4CC(CC(C4)C2)C3)n1

>  <smiles>  (193) 
[H]c1nc(SC23C([H])([H])C4([H])C([H])([H])C([H])(C([H])([H])C([H])(C4([H])[H])C2([H])[H])C3([H])[H])n([H])c1[H]

$$$$
52:1:2
     RDKit          3D

 34 37  0  0  1  0  0  0  0  0999 V2000
    4.2055   -6.4678    3.7968 C   0  0  0  0  0  0  0  0  0  0  0  0
    4.4042   -7.5676    3.0129 C   0  0  0  0  0  0  0  0  0  0  0  0
    3.8358   -7.2528    1.7834 N   0  0  0  0  0  0  0  0  0  0  0  0
    3.3294   -6.0279    1.8600 C   0  0  0  0  0  0  0  0  0  0  0  0
    2.5801   -5.2246    0.4856 S   0  0  0  0  0  0  0  0  0  0  0  0
    3.8254   -3.9307    0.0999 C   0  0  2  0  0  0  0  0  0  0  0  0
    3.3873   -3.1627   -1.1786 C   0  0  0  0  0  0  0  0  0  0  0  0
    4.4286   -2.0696   -1.5382 C   0  0  1  0  0  0  0  0  0  0  0  0
    4.5455   -1.0704   -0.3691 C   0  0  0  0  0  0  0  0  0  0  0  0
    5.0056   -1.8197    0.8868 C   0  0  2  0  0  0  0  0  0  0  0  0
    6.3659   -2.5027    0.6445 C   0  0  0  0  0  0  0  0  0  0  0  0
    6.2421   -3.4846   -0.5354 C   0  0  2  0  0  0  0  0  0  0  0  0
    5.7983   -2.7306   -1.8008 C   0  0  0  0  0  0  0  0  0  0  0  0
    5.2061   -4.5750   -0.1905 C   0  0  0  0  0  0  0  0  0  0  0  0
    3.9620   -2.8883    1.2484 C   0  0  0  0  0  0  0  0  0  0  0  0
    3.4793   -5.5058    3.0784 N   0  0  0  0  0  0  0  0  0  0  0  0
    3.8204   -7.8542    0.9746 H   0  0  0  0  0  0  0  0  0  0  0  0
    4.5071   -6.2606    4.8175 H   0  0  0  0  0  0  0  0  0  0  0  0
    4.8936   -8.5140    3.2282 H   0  0  0  0  0  0  0  0  0  0  0  0
    3.2716   -3.8470   -2.0244 H   0  0  0  0  0  0  0  0  0  0  0  0
    2.4105   -2.6949   -1.0349 H   0  0  0  0  0  0  0  0  0  0  0  0
    4.1033   -1.5357   -2.4342 H   0  0  0  0  0  0  0  0  0  0  0  0
    5.2415   -0.2624   -0.6047 H   0  0  0  0  0  0  0  0  0  0  0  0
    3.5748   -0.6115   -0.1829 H   0  0  0  0  0  0  0  0  0  0  0  0
    5.0939   -1.1233    1.7177 H   0  0  0  0  0  0  0  0  0  0  0  0
    7.1397   -1.7629    0.4459 H   0  0  0  0  0  0  0  0  0  0  0  0
    6.6775   -3.0408    1.5405 H   0  0  0  0  0  0  0  0  0  0  0  0
    7.2107   -3.9488   -0.7136 H   0  0  0  0  0  0  0  0  0  0  0  0
    5.7319   -3.4181   -2.6449 H   0  0  0  0  0  0  0  0  0  0  0  0
    6.5418   -1.9801   -2.0639 H   0  0  0  0  0  0  0  0  0  0  0  0
    5.5691   -5.1367    0.6697 H   0  0  0  0  0  0  0  0  0  0  0  0
    5.1171   -5.2911   -1.0119 H   0  0  0  0  0  0  0  0  0  0  0  0
    2.9946   -2.4266    1.4551 H   0  0  0  0  0  0  0  0  0  0  0  0
    4.3118   -3.3323    2.1751 H   0  0  0  0  0  0  0  0  0  0  0  0
  1 16  1  0
  1  2  2  0
  1 18  1  0
  2  3  1  0
  2 19  1  0
  3 17  1  0
  3  4  1  0
  4  5  1  0
  4 16  2  0
  6  5  1  1
  6 14  1  0
  6 15  1  0
  6  7  1  0
  7  8  1  0
  7 20  1  0
  7 21  1  0
  8 13  1  0
  8  9  1  0
  8 22  1  6
  9 10  1  0
  9 23  1  0
  9 24  1  0
 10 11  1  0
 10 15  1  0
 10 25  1  1
 11 12  1  0
 11 26  1  0
 11 27  1  0
 12 13  1  0
 12 14  1  0
 12 28  1  6
 13 29  1  0
 13 30  1  0
 14 31  1  0
 14 32  1  0
 15 33  1  0
 15 34  1  0
M  END
>  <i_m_ct_stereo_status>  (194) 
1

>  <s_m_source_file>  (194) 
/var/tmp/pbs.5076255.sched01/tmp276pg2sv/48_ir7zhrj.sdf

>  <i_m_source_file_index>  (194) 
37

>  <i_lp_mmshare_version>  (194) 
48012

>  <i_f3d_flags>  (194) 
0

>  <s_epik_input>  (194) 
bjFbY0hdW2NIXVtuSF1jMVNDMjNbQ0gyXVtDQEhdNFtDSDJdW0NAQEhdKFtDSDJdMylbQ0gyXVtDQEhdKFtDSDJdNClbQ0gyXTI=

>  <s_epik_cmdline>  (194) 
J2VwaWtfcHl0aG9uJywgJy1waHQnLCAnMi4wJywgJy1waCcsICc3LjAnLCAnLXRuJywgJzgnLCAnLW1hJywgJzIwMCcsICctaW1hZScsICc8aW5maWxlLm1hZT4nLCAnLW9tYWUnLCAnPG91dGZpbGUubWFlPic=

>  <r_lp_tautomer_probability>  (194) 
1

>  <r_epik_Ionization_Penalty>  (194) 
0.804228

>  <r_epik_Ionization_Penalty_Charging>  (194) 
0.804228

>  <r_epik_Ionization_Penalty_Neutral>  (194) 
7.25876e-07

>  <r_epik_State_Penalty>  (194) 
0.835794

>  <r_epik_Charging_Adjusted_Penalty>  (194) 
1.64002

>  <i_epik_Tot_Q>  (194) 
0

>  <i_epik_Tot_abs_Q>  (194) 
0

>  <s_lp_Force_Field>  (194) 
OPLS3e

>  <r_lp_Energy>  (194) 
7.11714

>  <b_lp_Chiralities_Consistent>  (194) 
1

>  <s_lp_Variant>  (194) 
52:0-2

>  <s_i_glide_gridfile>  (194) 
pfpi4k_grid

>  <i_i_glide_lignum>  (194) 
37

>  <i_i_glide_rotatable_bonds>  (194) 
2

>  <r_i_docking_score>  (194) 
-2.50119

>  <r_i_glide_ligand_efficiency>  (194) 
-0.156324

>  <r_i_glide_ligand_efficiency_sa>  (194) 
-0.393913

>  <r_i_glide_ligand_efficiency_ln>  (194) 
-0.66299

>  <r_i_glide_gscore>  (194) 
-2.50119

>  <r_i_glide_lipo>  (194) 
-0.289195

>  <r_i_glide_hbond>  (194) 
0

>  <r_i_glide_metal>  (194) 
-0

>  <r_i_glide_rewards>  (194) 
-1.83979

>  <r_i_glide_evdw>  (194) 
-19.6995

>  <r_i_glide_ecoul>  (194) 
-0.0835978

>  <r_i_glide_erotb>  (194) 
0.625308

>  <r_i_glide_esite>  (194) 
0

>  <r_i_glide_emodel>  (194) 
-22.5361

>  <r_i_glide_energy>  (194) 
-19.7831

>  <r_i_glide_einternal>  (194) 
0.692107

>  <r_i_glide_intrahb_reward>  (194) 
-0

>  <i_i_glide_confnum>  (194) 
4

>  <i_i_glide_posenum>  (194) 
10

>  <r_i_glide_eff_state_penalty>  (194) 
0

>  <ligand_id>  (194) 
52

>  <original_smiles>  (194) 
c1c[nH]c(SC23CC4CC(CC(C4)C2)C3)n1

>  <smiles>  (194) 
[H]c1nc(SC23C([H])([H])C4([H])C([H])([H])C([H])(C([H])([H])C([H])(C4([H])[H])C2([H])[H])C3([H])[H])n([H])c1[H]

$$$$
53:0:0
     RDKit          3D

 86 92  0  0  1  0  0  0  0  0999 V2000
    1.8208   -4.0131    6.9591 C   0  0  0  0  0  0  0  0  0  0  0  0
    2.1780   -4.2421    5.4843 C   0  0  2  0  0  0  0  0  0  0  0  0
    3.6742   -3.8474    5.1490 C   0  0  1  0  0  0  0  0  0  0  0  0
    4.6168   -4.7419    4.2285 C   0  0  0  0  0  0  0  0  0  0  0  0
    5.1352   -4.1293    2.8193 C   0  0  1  0  0  0  0  0  0  0  0  0
    6.0274   -5.0443    2.2403 O   0  0  0  0  0  0  0  0  0  0  0  0
    4.2223   -3.4145    1.6635 C   0  0  1  0  0  0  0  0  0  0  0  0
    4.1583   -4.2987    0.5359 O   0  0  0  0  0  0  0  0  0  0  0  0
    4.2065   -3.7824   -0.7797 C   0  0  2  0  0  0  0  0  0  0  0  0
    5.2073   -2.7906   -0.8739 O   0  0  0  0  0  0  0  0  0  0  0  0
    5.3586   -2.2469   -2.1874 C   0  0  0  0  0  0  0  0  0  0  0  0
    4.0623   -1.5287   -2.6020 C   0  0  1  0  0  0  0  0  0  0  0  0
    4.2193   -0.9465   -3.8821 O   0  0  0  0  0  0  0  0  0  0  0  0
    2.8880   -2.5221   -2.5680 C   0  0  1  0  0  0  0  0  0  0  0  0
    3.0553   -3.4476   -3.6132 O   0  0  0  0  0  0  0  0  0  0  0  0
    2.8353   -3.2152   -1.1939 C   0  0  1  0  0  0  0  0  0  0  0  0
    1.8153   -4.1940   -1.1158 O   0  0  0  0  0  0  0  0  0  0  0  0
    2.7660   -2.7856    1.9978 C   0  0  2  0  0  0  0  0  0  0  0  0
    2.8050   -1.2390    1.9123 C   0  0  0  0  0  0  0  0  0  0  0  0
    1.4917   -0.5581    2.2409 C   0  0  0  0  0  0  0  0  0  0  0  0
    1.4533    0.0253    3.6644 C   0  0  1  0  0  0  0  0  0  0  0  0
    0.2138    0.9495    3.8597 C   0  0  2  0  0  0  0  0  0  0  0  0
   -0.0737    2.0559    2.8296 C   0  0  0  0  0  0  0  0  0  0  0  0
   -0.5316    3.2927    3.6237 C   0  0  0  0  0  0  0  0  0  0  0  0
   -0.6968    2.8698    5.0929 C   0  0  0  0  0  0  0  0  0  0  0  0
   -0.3526    4.0271    6.0499 C   0  0  0  0  0  0  0  0  0  0  0  0
   -2.1468    2.4147    5.3540 C   0  0  0  0  0  0  0  0  0  0  0  0
    0.3231    1.7217    5.1688 C   0  0  1  0  0  0  0  0  0  0  0  0
    0.2734    0.7403    6.3296 C   0  0  0  0  0  0  0  0  0  0  0  0
    1.4476   -0.2489    6.2033 C   0  0  0  0  0  0  0  0  0  0  0  0
    1.5563   -1.0244    4.8487 C   0  0  2  0  0  0  0  0  0  0  0  0
    2.8627   -1.5920    5.0229 O   0  0  0  0  0  0  0  0  0  0  0  0
    3.3273   -2.7344    4.2842 C   0  0  2  0  0  0  0  0  0  0  0  0
    2.3443   -3.4817    3.2979 C   0  0  2  0  0  0  0  0  0  0  0  0
    2.2038   -4.9999    2.7669 C   0  0  0  0  0  0  0  0  0  0  0  0
    1.2339   -3.5481    4.3634 C   0  0  2  0  0  0  0  0  0  0  0  0
    0.5512   -2.1998    4.6862 C   0  0  1  0  0  0  0  0  0  0  0  0
   -0.3505   -2.3529    5.7542 O   0  0  0  0  0  0  0  0  0  0  0  0
    1.9743   -2.9804    7.2602 H   0  0  0  0  0  0  0  0  0  0  0  0
    2.4621   -4.6239    7.5954 H   0  0  0  0  0  0  0  0  0  0  0  0
    0.7913   -4.3055    7.1684 H   0  0  0  0  0  0  0  0  0  0  0  0
    2.1183   -5.3273    5.4171 H   0  0  0  0  0  0  0  0  0  0  0  0
    4.2199   -3.4911    6.0281 H   0  0  0  0  0  0  0  0  0  0  0  0
    5.5101   -4.9362    4.8174 H   0  0  0  0  0  0  0  0  0  0  0  0
    4.2028   -5.7464    4.1005 H   0  0  0  0  0  0  0  0  0  0  0  0
    5.8314   -3.3514    3.1273 H   0  0  0  0  0  0  0  0  0  0  0  0
    5.5121   -5.7888    1.9074 H   0  0  0  0  0  0  0  0  0  0  0  0
    4.8469   -2.5629    1.3990 H   0  0  0  0  0  0  0  0  0  0  0  0
    4.5014   -4.6017   -1.4157 H   0  0  0  0  0  0  0  0  0  0  0  0
    6.1758   -1.5327   -2.1146 H   0  0  0  0  0  0  0  0  0  0  0  0
    5.6526   -3.0154   -2.9036 H   0  0  0  0  0  0  0  0  0  0  0  0
    3.8699   -0.7201   -1.8957 H   0  0  0  0  0  0  0  0  0  0  0  0
    3.3776   -0.5304   -4.1298 H   0  0  0  0  0  0  0  0  0  0  0  0
    1.9532   -1.9836   -2.7402 H   0  0  0  0  0  0  0  0  0  0  0  0
    2.6924   -4.2907   -3.3303 H   0  0  0  0  0  0  0  0  0  0  0  0
    2.5555   -2.4194   -0.4886 H   0  0  0  0  0  0  0  0  0  0  0  0
    2.0977   -4.9377   -1.6804 H   0  0  0  0  0  0  0  0  0  0  0  0
    2.0355   -3.0912    1.2366 H   0  0  0  0  0  0  0  0  0  0  0  0
    3.6247   -0.7941    2.4842 H   0  0  0  0  0  0  0  0  0  0  0  0
    3.0624   -0.9548    0.8987 H   0  0  0  0  0  0  0  0  0  0  0  0
    1.3832    0.2537    1.5233 H   0  0  0  0  0  0  0  0  0  0  0  0
    0.6417   -1.2082    2.0170 H   0  0  0  0  0  0  0  0  0  0  0  0
    2.3356    0.6744    3.7415 H   0  0  0  0  0  0  0  0  0  0  0  0
   -0.6811    0.3198    3.8958 H   0  0  0  0  0  0  0  0  0  0  0  0
    0.8018    2.3136    2.2329 H   0  0  0  0  0  0  0  0  0  0  0  0
   -0.8533    1.7340    2.1384 H   0  0  0  0  0  0  0  0  0  0  0  0
    0.2509    4.0524    3.5379 H   0  0  0  0  0  0  0  0  0  0  0  0
   -1.4362    3.7316    3.2015 H   0  0  0  0  0  0  0  0  0  0  0  0
   -0.4355    3.7192    7.0911 H   0  0  0  0  0  0  0  0  0  0  0  0
   -1.0238    4.8721    5.8999 H   0  0  0  0  0  0  0  0  0  0  0  0
    0.6632    4.3935    5.8919 H   0  0  0  0  0  0  0  0  0  0  0  0
   -2.2706    2.0625    6.3763 H   0  0  0  0  0  0  0  0  0  0  0  0
   -2.4359    1.6129    4.6771 H   0  0  0  0  0  0  0  0  0  0  0  0
   -2.8477    3.2358    5.2034 H   0  0  0  0  0  0  0  0  0  0  0  0
    1.3056    2.1988    5.1861 H   0  0  0  0  0  0  0  0  0  0  0  0
    0.3488    1.2760    7.2776 H   0  0  0  0  0  0  0  0  0  0  0  0
   -0.6813    0.2067    6.3450 H   0  0  0  0  0  0  0  0  0  0  0  0
    2.3702    0.3250    6.3225 H   0  0  0  0  0  0  0  0  0  0  0  0
    1.4249   -0.9268    7.0420 H   0  0  0  0  0  0  0  0  0  0  0  0
    4.2214   -2.2586    3.8881 H   0  0  0  0  0  0  0  0  0  0  0  0
    1.9037   -5.7666    3.4729 H   0  0  0  0  0  0  0  0  0  0  0  0
    3.0423   -5.4577    2.2611 H   0  0  0  0  0  0  0  0  0  0  0  0
    1.4094   -5.0370    2.0254 H   0  0  0  0  0  0  0  0  0  0  0  0
    0.4234   -4.2342    4.0974 H   0  0  0  0  0  0  0  0  0  0  0  0
   -0.1104   -1.9888    3.8504 H   0  0  0  0  0  0  0  0  0  0  0  0
    0.1630   -2.6785    6.5037 H   0  0  0  0  0  0  0  0  0  0  0  0
  1  2  1  0
  1 39  1  0
  1 40  1  0
  1 41  1  0
  2 36  1  0
  2  3  1  0
  2 42  1  6
  3 33  1  0
  3  4  1  0
  3 43  1  1
  4  5  1  0
  4 44  1  0
  4 45  1  0
  5  6  1  0
  5  7  1  0
  5 46  1  1
  6 47  1  0
  7  8  1  0
  7 18  1  0
  7 48  1  6
  8  9  1  0
  9 16  1  0
  9 10  1  0
  9 49  1  6
 10 11  1  0
 11 12  1  0
 11 50  1  0
 11 51  1  0
 12 13  1  0
 12 14  1  0
 12 52  1  1
 13 53  1  0
 14 15  1  0
 14 16  1  0
 14 54  1  6
 15 55  1  0
 16 17  1  0
 16 56  1  1
 17 57  1  0
 18 34  1  0
 18 19  1  0
 18 58  1  6
 19 20  1  0
 19 59  1  0
 19 60  1  0
 20 21  1  0
 20 61  1  0
 20 62  1  0
 21 31  1  0
 21 22  1  0
 21 63  1  6
 22 28  1  0
 22 23  1  0
 22 64  1  1
 23 24  1  0
 23 65  1  0
 23 66  1  0
 24 25  1  0
 24 67  1  0
 24 68  1  0
 25 26  1  0
 25 27  1  0
 25 28  1  0
 26 69  1  0
 26 70  1  0
 26 71  1  0
 27 72  1  0
 27 73  1  0
 27 74  1  0
 28 29  1  0
 28 75  1  6
 29 30  1  0
 29 76  1  0
 29 77  1  0
 31 30  1  1
 30 78  1  0
 30 79  1  0
 31 37  1  0
 31 32  1  0
 32 33  1  0
 33 34  1  0
 33 80  1  6
 34 35  1  6
 34 36  1  0
 35 81  1  0
 35 82  1  0
 35 83  1  0
 36 37  1  0
 36 84  1  6
 37 38  1  0
 37 85  1  6
 38 86  1  0
M  END
>  <i_m_ct_stereo_status>  (195) 
1

>  <s_m_source_file>  (195) 
/var/tmp/pbs.5076255.sched01/tmp276pg2sv/48_ir7zhrj.sdf

>  <i_m_source_file_index>  (195) 
38

>  <i_lp_mmshare_version>  (195) 
48012

>  <i_f3d_flags>  (195) 
0

>  <s_epik_input>  (195) 
W0NIMl0xW0NIMl1DKFtDSDNdKShbQ0gzXSlbQ0BASF0oW0NIMl1bQ0gyXTIpW0NAQEhdMVtDQEBIXShbQ0BdMjM0KVtDSDJdW0NIMl1bQ0BASF01W0NAQF02KFtDSDNdKVtDQEBIXShPMylbQ0BASF0oW0NAQEhdKFtDSDNdKVtDQEhdNltDQEhdNFtPSF0pW0NIMl1bQ0BASF0oW09IXSlbQ0BIXTVPW0NAQEhdN09bQ0gyXVtDQEBIXShbT0hdKVtDQEBIXShbT0hdKVtDQEhdN1tPSF0=

>  <s_epik_cmdline>  (195) 
J2VwaWtfcHl0aG9uJywgJy1waHQnLCAnMi4wJywgJy1waCcsICc3LjAnLCAnLXRuJywgJzgnLCAnLW1hJywgJzIwMCcsICctaW1hZScsICc8aW5maWxlLm1hZT4nLCAnLW9tYWUnLCAnPG91dGZpbGUubWFlPic=

>  <r_lp_tautomer_probability>  (195) 
1

>  <r_epik_Ionization_Penalty>  (195) 
1.98799e-06

>  <r_epik_Ionization_Penalty_Charging>  (195) 
0

>  <r_epik_Ionization_Penalty_Neutral>  (195) 
1.98799e-06

>  <r_epik_State_Penalty>  (195) 
-0

>  <r_epik_Charging_Adjusted_Penalty>  (195) 
0

>  <i_epik_Tot_Q>  (195) 
0

>  <i_epik_Tot_abs_Q>  (195) 
0

>  <s_epik_Chemistry_Notes>  (195) 
This compound contains an acetal/aminal-like group ( X-CH(R)-Y where X, Y are N, S, or O) that may be acid/base labile, releasing an aldehyde.

>  <s_lp_Force_Field>  (195) 
OPLS3e

>  <r_lp_Energy>  (195) 
203.231

>  <b_lp_Chiralities_Consistent>  (195) 
1

>  <s_lp_Variant>  (195) 
53:0-1

>  <s_i_glide_gridfile>  (195) 
pfpi4k_grid

>  <i_i_glide_lignum>  (195) 
38

>  <i_i_glide_rotatable_bonds>  (195) 
7

>  <r_i_docking_score>  (195) 
-3.77868

>  <r_i_glide_ligand_efficiency>  (195) 
-0.0994388

>  <r_i_glide_ligand_efficiency_sa>  (195) 
-0.334311

>  <r_i_glide_ligand_efficiency_ln>  (195) 
-0.814794

>  <r_i_glide_gscore>  (195) 
-3.77868

>  <r_i_glide_lipo>  (195) 
-0.132288

>  <r_i_glide_hbond>  (195) 
0

>  <r_i_glide_metal>  (195) 
-0

>  <r_i_glide_rewards>  (195) 
0

>  <r_i_glide_evdw>  (195) 
-36.195

>  <r_i_glide_ecoul>  (195) 
-13.1445

>  <r_i_glide_erotb>  (195) 
0.143395

>  <r_i_glide_esite>  (195) 
-0.00836619

>  <r_i_glide_emodel>  (195) 
-56.8152

>  <r_i_glide_energy>  (195) 
-49.3394

>  <r_i_glide_einternal>  (195) 
5.19019

>  <r_i_glide_intrahb_reward>  (195) 
-0

>  <i_i_glide_confnum>  (195) 
5

>  <i_i_glide_posenum>  (195) 
39

>  <r_i_glide_eff_state_penalty>  (195) 
0

>  <ligand_id>  (195) 
53

>  <original_smiles>  (195) 
CC1C2CC(O)C(OC3OCC(O)C(O)C3O)C3CCC4C5CCC(C)(C)C5CCC45OC2C3(C)C1C5O

>  <smiles>  (195) 
[H]OC1([H])C([H])([H])OC([H])(OC2([H])C([H])(O[H])C([H])([H])C3([H])C4([H])OC56C([H])([H])C([H])([H])C7([H])C([H])(C([H])([H])C([H])([H])C7(C([H])([H])[H])C([H])([H])[H])C5([H])C([H])([H])C([H])([H])C2([H])C4(C([H])([H])[H])C([H])(C6([H])O[H])C3([H])C([H])([H])[H])C([H])(O[H])C1([H])O[H]

$$$$
53:0:1
     RDKit          3D

 86 92  0  0  1  0  0  0  0  0999 V2000
    2.6206   -3.1416    7.9201 C   0  0  0  0  0  0  0  0  0  0  0  0
    2.6366   -3.3229    6.3951 C   0  0  2  0  0  0  0  0  0  0  0  0
    3.8844   -2.6321    5.7175 C   0  0  1  0  0  0  0  0  0  0  0  0
    4.7414   -3.3290    4.5765 C   0  0  0  0  0  0  0  0  0  0  0  0
    4.7700   -2.6547    3.1085 C   0  0  1  0  0  0  0  0  0  0  0  0
    5.6352   -3.4341    2.3084 O   0  0  0  0  0  0  0  0  0  0  0  0
    3.4826   -2.1858    2.2106 C   0  0  1  0  0  0  0  0  0  0  0  0
    3.3057   -3.1365    1.1425 O   0  0  0  0  0  0  0  0  0  0  0  0
    3.3403   -2.6198   -0.1653 C   0  0  2  0  0  0  0  0  0  0  0  0
    2.5734   -3.4436   -0.9883 O   0  0  0  0  0  0  0  0  0  0  0  0
    2.4845   -3.0113   -2.3382 C   0  0  0  0  0  0  0  0  0  0  0  0
    3.8748   -3.0507   -2.9941 C   0  0  1  0  0  0  0  0  0  0  0  0
    3.8016   -2.5452   -4.3108 O   0  0  0  0  0  0  0  0  0  0  0  0
    4.8579   -2.2146   -2.1639 C   0  0  1  0  0  0  0  0  0  0  0  0
    4.5637   -0.8226   -2.2741 O   0  0  0  0  0  0  0  0  0  0  0  0
    4.8069   -2.6606   -0.6913 C   0  0  1  0  0  0  0  0  0  0  0  0
    5.6763   -1.8043    0.0232 O   0  0  0  0  0  0  0  0  0  0  0  0
    2.0330   -1.8906    2.8711 C   0  0  2  0  0  0  0  0  0  0  0  0
    1.7071   -0.3797    2.8170 C   0  0  0  0  0  0  0  0  0  0  0  0
    0.4230    0.0366    3.5272 C   0  0  0  0  0  0  0  0  0  0  0  0
    0.6357    0.6386    4.9389 C   0  0  1  0  0  0  0  0  0  0  0  0
   -0.6873    1.2890    5.4542 C   0  0  2  0  0  0  0  0  0  0  0  0
   -1.4444    2.2907    4.5580 C   0  0  0  0  0  0  0  0  0  0  0  0
   -1.9429    3.4209    5.4845 C   0  0  0  0  0  0  0  0  0  0  0  0
   -1.6491    3.0047    6.9383 C   0  0  0  0  0  0  0  0  0  0  0  0
   -1.3306    4.2262    7.8207 C   0  0  0  0  0  0  0  0  0  0  0  0
   -2.8544    2.2679    7.5352 C   0  0  0  0  0  0  0  0  0  0  0  0
   -0.4227    2.0998    6.7231 C   0  0  1  0  0  0  0  0  0  0  0  0
    0.0160    1.1607    7.8376 C   0  0  0  0  0  0  0  0  0  0  0  0
    1.3013    0.4345    7.3960 C   0  0  0  0  0  0  0  0  0  0  0  0
    1.2239   -0.3331    6.0352 C   0  0  2  0  0  0  0  0  0  0  0  0
    2.6195   -0.6021    5.8541 O   0  0  0  0  0  0  0  0  0  0  0  0
    3.1088   -1.6422    4.9802 C   0  0  2  0  0  0  0  0  0  0  0  0
    2.0914   -2.5950    4.2442 C   0  0  2  0  0  0  0  0  0  0  0  0
    2.1386   -4.1209    3.7337 C   0  0  0  0  0  0  0  0  0  0  0  0
    1.3269   -2.8738    5.5591 C   0  0  2  0  0  0  0  0  0  0  0  0
    0.4816   -1.6911    6.0813 C   0  0  1  0  0  0  0  0  0  0  0  0
   -0.0757   -1.9998    7.3414 O   0  0  0  0  0  0  0  0  0  0  0  0
    2.6236   -2.0977    8.2103 H   0  0  0  0  0  0  0  0  0  0  0  0
    3.5135   -3.5879    8.3594 H   0  0  0  0  0  0  0  0  0  0  0  0
    1.7639   -3.6397    8.3689 H   0  0  0  0  0  0  0  0  0  0  0  0
    2.7990   -4.3956    6.3171 H   0  0  0  0  0  0  0  0  0  0  0  0
    4.5404   -2.1473    6.4397 H   0  0  0  0  0  0  0  0  0  0  0  0
    5.7762   -3.3195    4.9307 H   0  0  0  0  0  0  0  0  0  0  0  0
    4.5250   -4.3998    4.5191 H   0  0  0  0  0  0  0  0  0  0  0  0
    5.3599   -1.7493    3.2379 H   0  0  0  0  0  0  0  0  0  0  0  0
    5.7596   -2.9595    1.4932 H   0  0  0  0  0  0  0  0  0  0  0  0
    3.8020   -1.2415    1.7611 H   0  0  0  0  0  0  0  0  0  0  0  0
    2.8949   -1.6166   -0.1937 H   0  0  0  0  0  0  0  0  0  0  0  0
    1.8122   -3.6740   -2.8720 H   0  0  0  0  0  0  0  0  0  0  0  0
    2.0738   -2.0059   -2.3934 H   0  0  0  0  0  0  0  0  0  0  0  0
    4.2257   -4.0826   -3.0204 H   0  0  0  0  0  0  0  0  0  0  0  0
    3.3167   -1.7407   -4.2836 H   0  0  0  0  0  0  0  0  0  0  0  0
    5.8632   -2.3802   -2.5555 H   0  0  0  0  0  0  0  0  0  0  0  0
    3.6631   -0.6716   -2.0186 H   0  0  0  0  0  0  0  0  0  0  0  0
    5.1623   -3.6913   -0.5943 H   0  0  0  0  0  0  0  0  0  0  0  0
    5.3116   -0.9259   -0.0210 H   0  0  0  0  0  0  0  0  0  0  0  0
    1.2659   -2.3610    2.2523 H   0  0  0  0  0  0  0  0  0  0  0  0
    2.5313    0.2445    3.1565 H   0  0  0  0  0  0  0  0  0  0  0  0
    1.6055   -0.1282    1.7641 H   0  0  0  0  0  0  0  0  0  0  0  0
   -0.0227    0.8010    2.8909 H   0  0  0  0  0  0  0  0  0  0  0  0
   -0.3012   -0.7757    3.5147 H   0  0  0  0  0  0  0  0  0  0  0  0
    1.3482    1.4593    4.8172 H   0  0  0  0  0  0  0  0  0  0  0  0
   -1.3962    0.4935    5.6901 H   0  0  0  0  0  0  0  0  0  0  0  0
   -0.8095    2.7117    3.7777 H   0  0  0  0  0  0  0  0  0  0  0  0
   -2.2863    1.7935    4.0673 H   0  0  0  0  0  0  0  0  0  0  0  0
   -1.3788    4.3234    5.2409 H   0  0  0  0  0  0  0  0  0  0  0  0
   -2.9985    3.6451    5.3174 H   0  0  0  0  0  0  0  0  0  0  0  0
   -1.0828    3.9257    8.8395 H   0  0  0  0  0  0  0  0  0  0  0  0
   -2.1862    4.9001    7.8839 H   0  0  0  0  0  0  0  0  0  0  0  0
   -0.4887    4.8020    7.4347 H   0  0  0  0  0  0  0  0  0  0  0  0
   -2.6421    1.9299    8.5511 H   0  0  0  0  0  0  0  0  0  0  0  0
   -3.1336    1.4001    6.9397 H   0  0  0  0  0  0  0  0  0  0  0  0
   -3.7271    2.9235    7.5901 H   0  0  0  0  0  0  0  0  0  0  0  0
    0.4080    2.7755    6.5196 H   0  0  0  0  0  0  0  0  0  0  0  0
    0.2086    1.7248    8.7503 H   0  0  0  0  0  0  0  0  0  0  0  0
   -0.7677    0.4492    8.0818 H   0  0  0  0  0  0  0  0  0  0  0  0
    2.0876    1.1911    7.3077 H   0  0  0  0  0  0  0  0  0  0  0  0
    1.6194   -0.2195    8.2035 H   0  0  0  0  0  0  0  0  0  0  0  0
    3.7474   -0.9862    4.3979 H   0  0  0  0  0  0  0  0  0  0  0  0
    2.1912   -4.9109    4.4774 H   0  0  0  0  0  0  0  0  0  0  0  0
    2.9130   -4.4185    3.0366 H   0  0  0  0  0  0  0  0  0  0  0  0
    1.2050   -4.3403    3.2127 H   0  0  0  0  0  0  0  0  0  0  0  0
    0.6278   -3.7143    5.4881 H   0  0  0  0  0  0  0  0  0  0  0  0
   -0.3995   -1.6354    5.4422 H   0  0  0  0  0  0  0  0  0  0  0  0
    0.6459   -2.1991    7.9204 H   0  0  0  0  0  0  0  0  0  0  0  0
  1  2  1  0
  1 39  1  0
  1 40  1  0
  1 41  1  0
  2 36  1  0
  2  3  1  0
  2 42  1  1
  3 33  1  0
  3  4  1  0
  3 43  1  1
  4  5  1  0
  4 44  1  0
  4 45  1  0
  5  6  1  0
  5  7  1  0
  5 46  1  1
  6 47  1  0
  7  8  1  0
  7 18  1  0
  7 48  1  6
  8  9  1  0
  9 16  1  0
  9 10  1  0
  9 49  1  1
 10 11  1  0
 11 12  1  0
 11 50  1  0
 11 51  1  0
 12 13  1  0
 12 14  1  0
 12 52  1  6
 13 53  1  0
 14 15  1  0
 14 16  1  0
 14 54  1  6
 15 55  1  0
 16 17  1  0
 16 56  1  6
 17 57  1  0
 18 34  1  0
 18 19  1  0
 18 58  1  6
 19 20  1  0
 19 59  1  0
 19 60  1  0
 20 21  1  0
 20 61  1  0
 20 62  1  0
 21 31  1  0
 21 22  1  0
 21 63  1  6
 22 28  1  0
 22 23  1  0
 22 64  1  1
 23 24  1  0
 23 65  1  0
 23 66  1  0
 24 25  1  0
 24 67  1  0
 24 68  1  0
 25 26  1  0
 25 27  1  0
 25 28  1  0
 26 69  1  0
 26 70  1  0
 26 71  1  0
 27 72  1  0
 27 73  1  0
 27 74  1  0
 28 29  1  0
 28 75  1  6
 29 30  1  0
 29 76  1  0
 29 77  1  0
 31 30  1  1
 30 78  1  0
 30 79  1  0
 31 37  1  0
 31 32  1  0
 32 33  1  0
 33 34  1  0
 33 80  1  6
 34 35  1  6
 34 36  1  0
 35 81  1  0
 35 82  1  0
 35 83  1  0
 36 37  1  0
 36 84  1  6
 37 38  1  0
 37 85  1  6
 38 86  1  0
M  END
>  <i_m_ct_stereo_status>  (196) 
1

>  <s_m_source_file>  (196) 
/var/tmp/pbs.5076255.sched01/tmp276pg2sv/48_ir7zhrj.sdf

>  <i_m_source_file_index>  (196) 
38

>  <i_lp_mmshare_version>  (196) 
48012

>  <i_f3d_flags>  (196) 
0

>  <s_epik_input>  (196) 
W0NIMl0xW0NIMl1DKFtDSDNdKShbQ0gzXSlbQ0BASF0oW0NIMl1bQ0gyXTIpW0NAQEhdMVtDQEBIXShbQ0BdMjM0KVtDSDJdW0NIMl1bQ0BASF01W0NAQF02KFtDSDNdKVtDQEBIXShPMylbQ0BASF0oW0NAQEhdKFtDSDNdKVtDQEhdNltDQEhdNFtPSF0pW0NIMl1bQ0BASF0oW09IXSlbQ0BIXTVPW0NAQEhdN09bQ0gyXVtDQEBIXShbT0hdKVtDQEBIXShbT0hdKVtDQEhdN1tPSF0=

>  <s_epik_cmdline>  (196) 
J2VwaWtfcHl0aG9uJywgJy1waHQnLCAnMi4wJywgJy1waCcsICc3LjAnLCAnLXRuJywgJzgnLCAnLW1hJywgJzIwMCcsICctaW1hZScsICc8aW5maWxlLm1hZT4nLCAnLW9tYWUnLCAnPG91dGZpbGUubWFlPic=

>  <r_lp_tautomer_probability>  (196) 
1

>  <r_epik_Ionization_Penalty>  (196) 
1.98799e-06

>  <r_epik_Ionization_Penalty_Charging>  (196) 
0

>  <r_epik_Ionization_Penalty_Neutral>  (196) 
1.98799e-06

>  <r_epik_State_Penalty>  (196) 
-0

>  <r_epik_Charging_Adjusted_Penalty>  (196) 
0

>  <i_epik_Tot_Q>  (196) 
0

>  <i_epik_Tot_abs_Q>  (196) 
0

>  <s_epik_Chemistry_Notes>  (196) 
This compound contains an acetal/aminal-like group ( X-CH(R)-Y where X, Y are N, S, or O) that may be acid/base labile, releasing an aldehyde.

>  <s_lp_Force_Field>  (196) 
OPLS3e

>  <r_lp_Energy>  (196) 
203.231

>  <b_lp_Chiralities_Consistent>  (196) 
1

>  <s_lp_Variant>  (196) 
53:0-1

>  <s_i_glide_gridfile>  (196) 
pfpi4k_grid

>  <i_i_glide_lignum>  (196) 
38

>  <i_i_glide_rotatable_bonds>  (196) 
7

>  <r_i_docking_score>  (196) 
-3.6403

>  <r_i_glide_ligand_efficiency>  (196) 
-0.0957974

>  <r_i_glide_ligand_efficiency_sa>  (196) 
-0.322069

>  <r_i_glide_ligand_efficiency_ln>  (196) 
-0.784956

>  <r_i_glide_gscore>  (196) 
-3.6403

>  <r_i_glide_lipo>  (196) 
-0.231086

>  <r_i_glide_hbond>  (196) 
0

>  <r_i_glide_metal>  (196) 
-0

>  <r_i_glide_rewards>  (196) 
-0.5

>  <r_i_glide_evdw>  (196) 
-34.8252

>  <r_i_glide_ecoul>  (196) 
-8.48269

>  <r_i_glide_erotb>  (196) 
0.143395

>  <r_i_glide_esite>  (196) 
-0.0389458

>  <r_i_glide_emodel>  (196) 
-56.6956

>  <r_i_glide_energy>  (196) 
-43.3079

>  <r_i_glide_einternal>  (196) 
4.65658

>  <r_i_glide_intrahb_reward>  (196) 
-0.5

>  <i_i_glide_confnum>  (196) 
4

>  <i_i_glide_posenum>  (196) 
8

>  <r_i_glide_eff_state_penalty>  (196) 
0

>  <ligand_id>  (196) 
53

>  <original_smiles>  (196) 
CC1C2CC(O)C(OC3OCC(O)C(O)C3O)C3CCC4C5CCC(C)(C)C5CCC45OC2C3(C)C1C5O

>  <smiles>  (196) 
[H]OC1([H])C([H])([H])OC([H])(OC2([H])C([H])(O[H])C([H])([H])C3([H])C4([H])OC56C([H])([H])C([H])([H])C7([H])C([H])(C([H])([H])C([H])([H])C7(C([H])([H])[H])C([H])([H])[H])C5([H])C([H])([H])C([H])([H])C2([H])C4(C([H])([H])[H])C([H])(C6([H])O[H])C3([H])C([H])([H])[H])C([H])(O[H])C1([H])O[H]

$$$$
53:0:2
     RDKit          3D

 86 92  0  0  1  0  0  0  0  0999 V2000
    2.5899   -3.2073    7.9178 C   0  0  0  0  0  0  0  0  0  0  0  0
    2.6260   -3.3843    6.3917 C   0  0  2  0  0  0  0  0  0  0  0  0
    3.8918   -2.7099    5.7321 C   0  0  1  0  0  0  0  0  0  0  0  0
    4.7524   -3.4186    4.6032 C   0  0  0  0  0  0  0  0  0  0  0  0
    4.8107   -2.7575    3.1294 C   0  0  1  0  0  0  0  0  0  0  0  0
    5.6497   -3.6011    2.3699 O   0  0  0  0  0  0  0  0  0  0  0  0
    3.5453   -2.2562    2.2181 C   0  0  1  0  0  0  0  0  0  0  0  0
    3.3578   -3.1861    1.1382 O   0  0  0  0  0  0  0  0  0  0  0  0
    3.3909   -2.6582   -0.1583 C   0  0  2  0  0  0  0  0  0  0  0  0
    2.5821   -3.4529   -0.9748 O   0  0  0  0  0  0  0  0  0  0  0  0
    2.4740   -3.0000   -2.3172 C   0  0  0  0  0  0  0  0  0  0  0  0
    3.8391   -3.0645   -3.0018 C   0  0  1  0  0  0  0  0  0  0  0  0
    3.7553   -2.5601   -4.3166 O   0  0  0  0  0  0  0  0  0  0  0  0
    4.8715   -2.2732   -2.1871 C   0  0  1  0  0  0  0  0  0  0  0  0
    4.6129   -0.8753   -2.2679 O   0  0  0  0  0  0  0  0  0  0  0  0
    4.8468   -2.7289   -0.7134 C   0  0  1  0  0  0  0  0  0  0  0  0
    5.7433   -1.8630   -0.0437 O   0  0  0  0  0  0  0  0  0  0  0  0
    2.0947   -1.9349    2.8639 C   0  0  2  0  0  0  0  0  0  0  0  0
    1.7916   -0.4173    2.8069 C   0  0  0  0  0  0  0  0  0  0  0  0
    0.5005    0.0153    3.4967 C   0  0  0  0  0  0  0  0  0  0  0  0
    0.6939    0.6137    4.9158 C   0  0  1  0  0  0  0  0  0  0  0  0
   -0.6230    1.2851    5.4207 C   0  0  2  0  0  0  0  0  0  0  0  0
   -1.3576    2.2964    4.5179 C   0  0  0  0  0  0  0  0  0  0  0  0
   -1.8492    3.4337    5.4384 C   0  0  0  0  0  0  0  0  0  0  0  0
   -1.5779    3.0084    6.8946 C   0  0  0  0  0  0  0  0  0  0  0  0
   -1.2525    4.2260    7.7828 C   0  0  0  0  0  0  0  0  0  0  0  0
   -2.8006    2.2801    7.4784 C   0  0  0  0  0  0  0  0  0  0  0  0
   -0.3613    2.0881    6.6921 C   0  0  1  0  0  0  0  0  0  0  0  0
    0.0505    1.1380    7.8100 C   0  0  0  0  0  0  0  0  0  0  0  0
    1.3311    0.3936    7.3828 C   0  0  0  0  0  0  0  0  0  0  0  0
    1.2615   -0.3689    6.0167 C   0  0  2  0  0  0  0  0  0  0  0  0
    2.6543   -0.6592    5.8491 O   0  0  0  0  0  0  0  0  0  0  0  0
    3.1417   -1.7070    4.9863 C   0  0  2  0  0  0  0  0  0  0  0  0
    2.1188   -2.6475    4.2357 C   0  0  2  0  0  0  0  0  0  0  0  0
    2.1504   -4.1740    3.7190 C   0  0  0  0  0  0  0  0  0  0  0  0
    1.3308   -2.9143    5.5404 C   0  0  2  0  0  0  0  0  0  0  0  0
    0.4976   -1.7184    6.0544 C   0  0  1  0  0  0  0  0  0  0  0  0
   -0.0777   -2.0271    7.3090 O   0  0  0  0  0  0  0  0  0  0  0  0
    2.6053   -2.1630    8.2102 H   0  0  0  0  0  0  0  0  0  0  0  0
    3.4696   -3.6684    8.3699 H   0  0  0  0  0  0  0  0  0  0  0  0
    1.7193   -3.6936    8.3552 H   0  0  0  0  0  0  0  0  0  0  0  0
    2.7693   -4.4605    6.3113 H   0  0  0  0  0  0  0  0  0  0  0  0
    4.5421   -2.2380    6.4669 H   0  0  0  0  0  0  0  0  0  0  0  0
    5.7779   -3.4313    4.9788 H   0  0  0  0  0  0  0  0  0  0  0  0
    4.5142   -4.4818    4.5453 H   0  0  0  0  0  0  0  0  0  0  0  0
    5.4291   -1.8677    3.2528 H   0  0  0  0  0  0  0  0  0  0  0  0
    6.5017   -3.6084    2.7764 H   0  0  0  0  0  0  0  0  0  0  0  0
    3.8972   -1.3212    1.7769 H   0  0  0  0  0  0  0  0  0  0  0  0
    2.9673   -1.6498   -0.1726 H   0  0  0  0  0  0  0  0  0  0  0  0
    1.7662   -3.6332   -2.8424 H   0  0  0  0  0  0  0  0  0  0  0  0
    2.0888   -1.9823   -2.3530 H   0  0  0  0  0  0  0  0  0  0  0  0
    4.1560   -4.1055   -3.0572 H   0  0  0  0  0  0  0  0  0  0  0  0
    2.8753   -2.7201   -4.6377 H   0  0  0  0  0  0  0  0  0  0  0  0
    5.8645   -2.4610   -2.6006 H   0  0  0  0  0  0  0  0  0  0  0  0
    3.6981   -0.7229   -2.0539 H   0  0  0  0  0  0  0  0  0  0  0  0
    5.1929   -3.7574   -0.6171 H   0  0  0  0  0  0  0  0  0  0  0  0
    5.3253   -1.0195    0.0360 H   0  0  0  0  0  0  0  0  0  0  0  0
    1.3289   -2.3893    2.2317 H   0  0  0  0  0  0  0  0  0  0  0  0
    2.6187    0.1966    3.1596 H   0  0  0  0  0  0  0  0  0  0  0  0
    1.7067   -0.1608    1.7539 H   0  0  0  0  0  0  0  0  0  0  0  0
    0.0726    0.7873    2.8597 H   0  0  0  0  0  0  0  0  0  0  0  0
   -0.2353   -0.7860    3.4734 H   0  0  0  0  0  0  0  0  0  0  0  0
    1.4228    1.4206    4.8068 H   0  0  0  0  0  0  0  0  0  0  0  0
   -1.3428    0.4973    5.6493 H   0  0  0  0  0  0  0  0  0  0  0  0
   -0.7093    2.7078    3.7417 H   0  0  0  0  0  0  0  0  0  0  0  0
   -2.2008    1.8115    4.0196 H   0  0  0  0  0  0  0  0  0  0  0  0
   -1.2691    4.3287    5.2009 H   0  0  0  0  0  0  0  0  0  0  0  0
   -2.8982    3.6797    5.2605 H   0  0  0  0  0  0  0  0  0  0  0  0
   -1.0240    3.9202    8.8038 H   0  0  0  0  0  0  0  0  0  0  0  0
   -2.0974    4.9140    7.8338 H   0  0  0  0  0  0  0  0  0  0  0  0
   -0.3962    4.7883    7.4094 H   0  0  0  0  0  0  0  0  0  0  0  0
   -2.6030    1.9428    8.4966 H   0  0  0  0  0  0  0  0  0  0  0  0
   -3.0812    1.4150    6.8793 H   0  0  0  0  0  0  0  0  0  0  0  0
   -3.6681    2.9421    7.5224 H   0  0  0  0  0  0  0  0  0  0  0  0
    0.4845    2.7492    6.5020 H   0  0  0  0  0  0  0  0  0  0  0  0
    0.2377    1.6937    8.7290 H   0  0  0  0  0  0  0  0  0  0  0  0
   -0.7485    0.4348    8.0396 H   0  0  0  0  0  0  0  0  0  0  0  0
    2.1254    1.1391    7.3059 H   0  0  0  0  0  0  0  0  0  0  0  0
    1.6339   -0.2650    8.1925 H   0  0  0  0  0  0  0  0  0  0  0  0
    3.8032   -1.0708    4.4089 H   0  0  0  0  0  0  0  0  0  0  0  0
    2.1812   -4.9633    4.4622 H   0  0  0  0  0  0  0  0  0  0  0  0
    2.9304   -4.4797    3.0304 H   0  0  0  0  0  0  0  0  0  0  0  0
    1.2210   -4.3781    3.1836 H   0  0  0  0  0  0  0  0  0  0  0  0
    0.6250   -3.7447    5.4573 H   0  0  0  0  0  0  0  0  0  0  0  0
   -0.3762   -1.6519    5.4081 H   0  0  0  0  0  0  0  0  0  0  0  0
    0.6311   -2.2434    7.8958 H   0  0  0  0  0  0  0  0  0  0  0  0
  1  2  1  0
  1 39  1  0
  1 40  1  0
  1 41  1  0
  2 36  1  0
  2  3  1  0
  2 42  1  1
  3 33  1  0
  3  4  1  0
  3 43  1  1
  4  5  1  0
  4 44  1  0
  4 45  1  0
  5  6  1  0
  5  7  1  0
  5 46  1  1
  6 47  1  0
  7  8  1  0
  7 18  1  0
  7 48  1  6
  8  9  1  0
  9 16  1  0
  9 10  1  0
  9 49  1  1
 10 11  1  0
 11 12  1  0
 11 50  1  0
 11 51  1  0
 12 13  1  0
 12 14  1  0
 12 52  1  6
 13 53  1  0
 14 15  1  0
 14 16  1  0
 14 54  1  6
 15 55  1  0
 16 17  1  0
 16 56  1  6
 17 57  1  0
 18 34  1  0
 18 19  1  0
 18 58  1  6
 19 20  1  0
 19 59  1  0
 19 60  1  0
 20 21  1  0
 20 61  1  0
 20 62  1  0
 21 31  1  0
 21 22  1  0
 21 63  1  6
 22 28  1  0
 22 23  1  0
 22 64  1  1
 23 24  1  0
 23 65  1  0
 23 66  1  0
 24 25  1  0
 24 67  1  0
 24 68  1  0
 25 26  1  0
 25 27  1  0
 25 28  1  0
 26 69  1  0
 26 70  1  0
 26 71  1  0
 27 72  1  0
 27 73  1  0
 27 74  1  0
 28 29  1  0
 28 75  1  6
 29 30  1  0
 29 76  1  0
 29 77  1  0
 31 30  1  1
 30 78  1  0
 30 79  1  0
 31 37  1  0
 31 32  1  0
 32 33  1  0
 33 34  1  0
 33 80  1  6
 34 35  1  6
 34 36  1  0
 35 81  1  0
 35 82  1  0
 35 83  1  0
 36 37  1  0
 36 84  1  6
 37 38  1  0
 37 85  1  6
 38 86  1  0
M  END
>  <i_m_ct_stereo_status>  (197) 
1

>  <s_m_source_file>  (197) 
/var/tmp/pbs.5076255.sched01/tmp276pg2sv/48_ir7zhrj.sdf

>  <i_m_source_file_index>  (197) 
38

>  <i_lp_mmshare_version>  (197) 
48012

>  <i_f3d_flags>  (197) 
0

>  <s_epik_input>  (197) 
W0NIMl0xW0NIMl1DKFtDSDNdKShbQ0gzXSlbQ0BASF0oW0NIMl1bQ0gyXTIpW0NAQEhdMVtDQEBIXShbQ0BdMjM0KVtDSDJdW0NIMl1bQ0BASF01W0NAQF02KFtDSDNdKVtDQEBIXShPMylbQ0BASF0oW0NAQEhdKFtDSDNdKVtDQEhdNltDQEhdNFtPSF0pW0NIMl1bQ0BASF0oW09IXSlbQ0BIXTVPW0NAQEhdN09bQ0gyXVtDQEBIXShbT0hdKVtDQEBIXShbT0hdKVtDQEhdN1tPSF0=

>  <s_epik_cmdline>  (197) 
J2VwaWtfcHl0aG9uJywgJy1waHQnLCAnMi4wJywgJy1waCcsICc3LjAnLCAnLXRuJywgJzgnLCAnLW1hJywgJzIwMCcsICctaW1hZScsICc8aW5maWxlLm1hZT4nLCAnLW9tYWUnLCAnPG91dGZpbGUubWFlPic=

>  <r_lp_tautomer_probability>  (197) 
1

>  <r_epik_Ionization_Penalty>  (197) 
1.98799e-06

>  <r_epik_Ionization_Penalty_Charging>  (197) 
0

>  <r_epik_Ionization_Penalty_Neutral>  (197) 
1.98799e-06

>  <r_epik_State_Penalty>  (197) 
-0

>  <r_epik_Charging_Adjusted_Penalty>  (197) 
0

>  <i_epik_Tot_Q>  (197) 
0

>  <i_epik_Tot_abs_Q>  (197) 
0

>  <s_epik_Chemistry_Notes>  (197) 
This compound contains an acetal/aminal-like group ( X-CH(R)-Y where X, Y are N, S, or O) that may be acid/base labile, releasing an aldehyde.

>  <s_lp_Force_Field>  (197) 
OPLS3e

>  <r_lp_Energy>  (197) 
203.231

>  <b_lp_Chiralities_Consistent>  (197) 
1

>  <s_lp_Variant>  (197) 
53:0-1

>  <s_i_glide_gridfile>  (197) 
pfpi4k_grid

>  <i_i_glide_lignum>  (197) 
38

>  <i_i_glide_rotatable_bonds>  (197) 
7

>  <r_i_docking_score>  (197) 
-3.15219

>  <r_i_glide_ligand_efficiency>  (197) 
-0.0829525

>  <r_i_glide_ligand_efficiency_sa>  (197) 
-0.278884

>  <r_i_glide_ligand_efficiency_ln>  (197) 
-0.679706

>  <r_i_glide_gscore>  (197) 
-3.15219

>  <r_i_glide_lipo>  (197) 
-0.242843

>  <r_i_glide_hbond>  (197) 
0

>  <r_i_glide_metal>  (197) 
-0

>  <r_i_glide_rewards>  (197) 
0

>  <r_i_glide_evdw>  (197) 
-34.9041

>  <r_i_glide_ecoul>  (197) 
-8.48705

>  <r_i_glide_erotb>  (197) 
0.143395

>  <r_i_glide_esite>  (197) 
-0.0344826

>  <r_i_glide_emodel>  (197) 
-49.8673

>  <r_i_glide_energy>  (197) 
-43.3911

>  <r_i_glide_einternal>  (197) 
5.06123

>  <r_i_glide_intrahb_reward>  (197) 
-0

>  <i_i_glide_confnum>  (197) 
4

>  <i_i_glide_posenum>  (197) 
13

>  <r_i_glide_eff_state_penalty>  (197) 
0

>  <ligand_id>  (197) 
53

>  <original_smiles>  (197) 
CC1C2CC(O)C(OC3OCC(O)C(O)C3O)C3CCC4C5CCC(C)(C)C5CCC45OC2C3(C)C1C5O

>  <smiles>  (197) 
[H]OC1([H])C([H])([H])OC([H])(OC2([H])C([H])(O[H])C([H])([H])C3([H])C4([H])OC56C([H])([H])C([H])([H])C7([H])C([H])(C([H])([H])C([H])([H])C7(C([H])([H])[H])C([H])([H])[H])C5([H])C([H])([H])C([H])([H])C2([H])C4(C([H])([H])[H])C([H])(C6([H])O[H])C3([H])C([H])([H])[H])C([H])(O[H])C1([H])O[H]

$$$$
54:0:0
     RDKit          3D

 60 66  0  0  1  0  0  0  0  0999 V2000
    4.6341   -6.1869    5.3936 C   0  0  0  0  0  0  0  0  0  0  0  0
    3.7186   -5.1326    5.6450 O   0  0  0  0  0  0  0  0  0  0  0  0
    3.4205   -4.2080    4.5980 C   0  0  2  0  0  0  0  0  0  0  0  0
    2.7748   -4.9204    3.3545 C   0  0  0  0  0  0  0  0  0  0  0  0
    2.2603   -3.8967    2.2774 C   0  0  0  0  0  0  0  0  0  0  0  0
    3.4093   -2.9670    1.8630 C   0  0  1  0  0  0  0  0  0  0  0  0
    4.1599   -3.9067    0.8394 C   0  0  0  0  0  0  0  0  0  0  0  0
    3.4230   -1.5133    1.3142 C   0  0  2  0  0  0  0  0  0  0  0  0
    4.8558   -1.4901    1.9900 C   0  0  0  0  0  0  0  0  0  0  0  0
    4.2484   -2.4206    3.0776 C   0  0  1  0  0  0  0  0  0  0  0  0
    4.2331   -1.4027    4.1803 C   0  0  0  0  0  0  0  0  0  0  0  0
    3.0629   -1.0243    4.7936 C   0  0  0  0  0  0  0  0  0  0  0  0
    3.0426   -0.1402    5.8974 C   0  0  0  0  0  0  0  0  0  0  0  0
    4.2885    0.0176    6.5619 C   0  0  0  0  0  0  0  0  0  0  0  0
    5.3683   -0.8329    6.2423 C   0  0  0  0  0  0  0  0  0  0  0  0
    6.4745   -0.9495    7.0396 O   0  0  0  0  0  0  0  0  0  0  0  0
    5.2046   -1.6498    5.1182 C   0  0  0  0  0  0  0  0  0  0  0  0
    5.6490   -2.9218    4.9662 O   0  0  0  0  0  0  0  0  0  0  0  0
    4.7581   -3.5274    4.0052 C   0  0  1  0  0  0  0  0  0  0  0  0
    1.9600   -1.9406    4.6553 C   0  0  0  0  0  0  0  0  0  0  0  0
    0.7170   -1.4802    4.5332 C   0  0  0  0  0  0  0  0  0  0  0  0
    0.4361   -0.3718    3.5214 C   0  0  0  0  0  0  0  0  0  0  0  0
    0.9868   -0.6770    2.0720 C   0  0  0  0  0  0  0  0  0  0  0  0
    2.4325   -0.4311    1.7319 N   0  0  1  0  0  0  0  0  0  0  0  0
    2.9737    0.8951    2.1343 C   0  0  0  0  0  0  0  0  0  0  0  0
   -0.3945   -2.1389    5.3624 C   0  0  0  0  0  0  0  0  0  0  0  0
    0.1651   -2.8556    6.6347 C   0  0  0  0  0  0  0  0  0  0  0  0
   -0.5585   -3.0115    7.6180 O   0  0  0  0  0  0  0  0  0  0  0  0
    1.6287   -3.3992    6.6264 C   0  0  0  0  0  0  0  0  0  0  0  0
    2.1965   -3.3362    5.1948 C   0  0  2  0  0  0  0  0  0  0  0  0
    4.7551   -6.7613    6.3123 H   0  0  0  0  0  0  0  0  0  0  0  0
    5.6238   -5.8324    5.1057 H   0  0  0  0  0  0  0  0  0  0  0  0
    4.2567   -6.8681    4.6329 H   0  0  0  0  0  0  0  0  0  0  0  0
    3.5056   -5.5893    2.8999 H   0  0  0  0  0  0  0  0  0  0  0  0
    1.9666   -5.5879    3.6549 H   0  0  0  0  0  0  0  0  0  0  0  0
    1.8448   -4.4406    1.4315 H   0  0  0  0  0  0  0  0  0  0  0  0
    1.4122   -3.3429    2.6451 H   0  0  0  0  0  0  0  0  0  0  0  0
    4.8835   -3.3969    0.1972 H   0  0  0  0  0  0  0  0  0  0  0  0
    3.4917   -4.3791    0.1163 H   0  0  0  0  0  0  0  0  0  0  0  0
    4.7245   -4.7056    1.3221 H   0  0  0  0  0  0  0  0  0  0  0  0
    3.5146   -1.4877    0.2262 H   0  0  0  0  0  0  0  0  0  0  0  0
    5.6599   -1.9503    1.4222 H   0  0  0  0  0  0  0  0  0  0  0  0
    5.2222   -0.5037    2.2986 H   0  0  0  0  0  0  0  0  0  0  0  0
    2.1261    0.2237    6.3381 H   0  0  0  0  0  0  0  0  0  0  0  0
    4.3459    0.6525    7.4316 H   0  0  0  0  0  0  0  0  0  0  0  0
    6.4705   -0.3633    7.7790 H   0  0  0  0  0  0  0  0  0  0  0  0
    5.3367   -4.2566    3.4366 H   0  0  0  0  0  0  0  0  0  0  0  0
   -0.6461   -0.2762    3.4434 H   0  0  0  0  0  0  0  0  0  0  0  0
    0.7842    0.5904    3.9034 H   0  0  0  0  0  0  0  0  0  0  0  0
    0.6647   -1.6481    1.7030 H   0  0  0  0  0  0  0  0  0  0  0  0
    0.4578    0.0183    1.4212 H   0  0  0  0  0  0  0  0  0  0  0  0
    3.3257    0.9192    3.1628 H   0  0  0  0  0  0  0  0  0  0  0  0
    2.2065    1.6645    2.0340 H   0  0  0  0  0  0  0  0  0  0  0  0
    3.8006    1.1698    1.4806 H   0  0  0  0  0  0  0  0  0  0  0  0
   -1.0802   -1.3653    5.7102 H   0  0  0  0  0  0  0  0  0  0  0  0
   -0.9836   -2.8308    4.7712 H   0  0  0  0  0  0  0  0  0  0  0  0
    2.2373   -2.7979    7.3017 H   0  0  0  0  0  0  0  0  0  0  0  0
    1.6254   -4.4177    7.0151 H   0  0  0  0  0  0  0  0  0  0  0  0
    1.3602   -3.8880    4.7726 H   0  0  0  0  0  0  0  0  0  0  0  0
    2.2119   -0.1948    0.7699 H   0  0  0  0  0  0  0  0  0  0  0  0
  1  2  1  0
  1 31  1  0
  1 32  1  0
  1 33  1  0
  3  2  1  1
  3 19  1  0
  3 30  1  0
  3  4  1  0
  4  5  1  0
  4 34  1  0
  4 35  1  0
  5  6  1  0
  5 36  1  0
  5 37  1  0
  6 10  1  0
  6  7  1  6
  6  8  1  0
  7 38  1  0
  7 39  1  0
  7 40  1  0
  8 24  1  0
  8  9  1  0
  8 41  1  6
 10  9  1  6
  9 42  1  0
  9 43  1  0
 10 19  1  0
 10 11  1  0
 11 17  2  0
 11 12  1  0
 12 13  2  0
 12 20  1  0
 13 14  1  0
 13 44  1  0
 14 15  2  0
 14 45  1  0
 15 16  1  0
 15 17  1  0
 16 46  1  0
 17 18  1  0
 18 19  1  0
 19 47  1  6
 20 30  1  0
 20 21  2  0
 21 22  1  0
 21 26  1  0
 22 23  1  0
 22 48  1  0
 22 49  1  0
 23 24  1  0
 23 50  1  0
 23 51  1  0
 24 25  1  0
 24 60  1  6
 25 52  1  0
 25 53  1  0
 25 54  1  0
 26 27  1  0
 26 55  1  0
 26 56  1  0
 27 28  2  0
 27 29  1  0
 29 30  1  0
 29 57  1  0
 29 58  1  0
 30 59  1  6
M  CHG  1  24   1
M  END
>  <i_m_ct_stereo_status>  (198) 
1

>  <s_m_source_file>  (198) 
/var/tmp/pbs.5076255.sched01/tmp276pg2sv/48_ir7zhrj.sdf

>  <i_m_source_file_index>  (198) 
39

>  <i_lp_mmshare_version>  (198) 
48012

>  <i_f3d_flags>  (198) 
0

>  <s_epik_input>  (198) 
W0NIMl0xQyg9TylbQ0gyXVtDQEBIXTJbQ0BAXShPW0NIM10pKFtDSDJdW0NIMl0zKVtDQEBIXTRPYyhjKFtPSF0pW2NIXVtjSF01KWM2YzVDMj1DMVtDSDJdW0NIMl1OKFtDSDNdKVtDQEBIXShbQ0gyXTcpW0NAXTMoW0NAXTQ2NylbQ0gzXQ==

>  <s_epik_cmdline>  (198) 
J2VwaWtfcHl0aG9uJywgJy1waHQnLCAnMi4wJywgJy1waCcsICc3LjAnLCAnLXRuJywgJzgnLCAnLW1hJywgJzIwMCcsICctaW1hZScsICc8aW5maWxlLm1hZT4nLCAnLW9tYWUnLCAnPG91dGZpbGUubWFlPic=

>  <r_lp_tautomer_probability>  (198) 
0.99995

>  <r_epik_Ionization_Penalty>  (198) 
0.0351123

>  <r_epik_Ionization_Penalty_Charging>  (198) 
0.0329402

>  <r_epik_Ionization_Penalty_Neutral>  (198) 
0.00217218

>  <r_epik_State_Penalty>  (198) 
0.0273171

>  <r_epik_Charging_Adjusted_Penalty>  (198) 
0.0602573

>  <i_epik_Tot_Q>  (198) 
1

>  <i_epik_Tot_abs_Q>  (198) 
1

>  <s_lp_Force_Field>  (198) 
OPLS3e

>  <r_lp_Energy>  (198) 
228.032

>  <b_lp_Chiralities_Consistent>  (198) 
1

>  <s_lp_Variant>  (198) 
54:0-1

>  <s_i_glide_gridfile>  (198) 
pfpi4k_grid

>  <i_i_glide_lignum>  (198) 
39

>  <i_i_glide_rotatable_bonds>  (198) 
2

>  <r_i_docking_score>  (198) 
-2.91183

>  <r_i_glide_ligand_efficiency>  (198) 
-0.0970609

>  <r_i_glide_ligand_efficiency_sa>  (198) 
-0.301591

>  <r_i_glide_ligand_efficiency_ln>  (198) 
-0.661599

>  <r_i_glide_gscore>  (198) 
-2.91183

>  <r_i_glide_lipo>  (198) 
-0.236021

>  <r_i_glide_hbond>  (198) 
-0.107214

>  <r_i_glide_metal>  (198) 
-0

>  <r_i_glide_rewards>  (198) 
-0.623795

>  <r_i_glide_evdw>  (198) 
-14.1822

>  <r_i_glide_ecoul>  (198) 
-7.70654

>  <r_i_glide_erotb>  (198) 
0

>  <r_i_glide_esite>  (198) 
-0.0797026

>  <r_i_glide_emodel>  (198) 
-26.0269

>  <r_i_glide_energy>  (198) 
-21.8888

>  <r_i_glide_einternal>  (198) 
0.00383119

>  <r_i_glide_intrahb_reward>  (198) 
-0

>  <i_i_glide_confnum>  (198) 
1

>  <i_i_glide_posenum>  (198) 
32

>  <r_i_glide_eff_state_penalty>  (198) 
0

>  <ligand_id>  (198) 
54

>  <original_smiles>  (198) 
COC12CCC3(C)C4CC35c3c(ccc(O)c3OC15)C1=C(CCN4C)CC(=O)CC12

>  <smiles>  (198) 
[H]Oc1c([H])c([H])c2c3c1OC1([H])C4(OC([H])([H])[H])C([H])([H])C([H])([H])C5(C([H])([H])[H])C31C([H])([H])C5([H])[N+]([H])(C([H])([H])[H])C([H])([H])C([H])([H])C1=C2C4([H])C([H])([H])C(=O)C1([H])[H]

$$$$
54:0:1
     RDKit          3D

 60 66  0  0  1  0  0  0  0  0999 V2000
    1.5965   -7.7819    1.8788 C   0  0  0  0  0  0  0  0  0  0  0  0
    2.9079   -7.2728    2.1224 O   0  0  0  0  0  0  0  0  0  0  0  0
    3.1695   -5.8872    1.8783 C   0  0  2  0  0  0  0  0  0  0  0  0
    2.4906   -5.3897    0.5448 C   0  0  0  0  0  0  0  0  0  0  0  0
    2.7179   -3.8656    0.2715 C   0  0  0  0  0  0  0  0  0  0  0  0
    4.2210   -3.5820    0.2558 C   0  0  1  0  0  0  0  0  0  0  0  0
    4.5828   -4.0589   -1.2041 C   0  0  0  0  0  0  0  0  0  0  0  0
    5.0249   -2.2938    0.5769 C   0  0  2  0  0  0  0  0  0  0  0  0
    6.1603   -3.3377    0.9445 C   0  0  0  0  0  0  0  0  0  0  0  0
    5.0090   -4.2554    1.4423 C   0  0  1  0  0  0  0  0  0  0  0  0
    5.2777   -4.1302    2.9092 C   0  0  0  0  0  0  0  0  0  0  0  0
    4.3706   -3.6073    3.7969 C   0  0  0  0  0  0  0  0  0  0  0  0
    4.6168   -3.5758    5.1898 C   0  0  0  0  0  0  0  0  0  0  0  0
    5.6538   -4.4329    5.6453 C   0  0  0  0  0  0  0  0  0  0  0  0
    6.2190   -5.3715    4.7616 C   0  0  0  0  0  0  0  0  0  0  0  0
    6.9912   -6.4074    5.2014 O   0  0  0  0  0  0  0  0  0  0  0  0
    5.8753   -5.2601    3.4121 C   0  0  0  0  0  0  0  0  0  0  0  0
    5.6975   -6.2736    2.5344 O   0  0  0  0  0  0  0  0  0  0  0  0
    4.7569   -5.7646    1.5536 C   0  0  1  0  0  0  0  0  0  0  0  0
    3.0056   -3.6312    3.3453 C   0  0  0  0  0  0  0  0  0  0  0  0
    2.1788   -2.6306    3.6642 C   0  0  0  0  0  0  0  0  0  0  0  0
    2.6365   -1.1924    3.4439 C   0  0  0  0  0  0  0  0  0  0  0  0
    3.1906   -0.9100    1.9873 C   0  0  0  0  0  0  0  0  0  0  0  0
    4.6201   -1.2753    1.6455 N   0  0  1  0  0  0  0  0  0  0  0  0
    5.6639   -0.8320    2.6170 C   0  0  0  0  0  0  0  0  0  0  0  0
    0.7751   -2.9811    4.1768 C   0  0  0  0  0  0  0  0  0  0  0  0
    0.7142   -4.4168    4.8020 C   0  0  0  0  0  0  0  0  0  0  0  0
   -0.1426   -4.6910    5.6367 O   0  0  0  0  0  0  0  0  0  0  0  0
    1.7209   -5.5048    4.3023 C   0  0  0  0  0  0  0  0  0  0  0  0
    2.4385   -5.0009    3.0273 C   0  0  2  0  0  0  0  0  0  0  0  0
    1.5079   -8.7907    2.2862 H   0  0  0  0  0  0  0  0  0  0  0  0
    1.4107   -7.8448    0.8100 H   0  0  0  0  0  0  0  0  0  0  0  0
    0.7993   -7.1773    2.3108 H   0  0  0  0  0  0  0  0  0  0  0  0
    2.8755   -5.9915   -0.2796 H   0  0  0  0  0  0  0  0  0  0  0  0
    1.4171   -5.5683    0.5248 H   0  0  0  0  0  0  0  0  0  0  0  0
    2.2302   -3.5882   -0.6614 H   0  0  0  0  0  0  0  0  0  0  0  0
    2.1983   -3.2639    1.0012 H   0  0  0  0  0  0  0  0  0  0  0  0
    5.5531   -3.7175   -1.5739 H   0  0  0  0  0  0  0  0  0  0  0  0
    3.8887   -3.6861   -1.9603 H   0  0  0  0  0  0  0  0  0  0  0  0
    4.6149   -5.1439   -1.2989 H   0  0  0  0  0  0  0  0  0  0  0  0
    5.2857   -1.7398   -0.3271 H   0  0  0  0  0  0  0  0  0  0  0  0
    6.7215   -3.7465    0.1089 H   0  0  0  0  0  0  0  0  0  0  0  0
    6.8937   -2.9967    1.6787 H   0  0  0  0  0  0  0  0  0  0  0  0
    3.9394   -3.1046    5.8778 H   0  0  0  0  0  0  0  0  0  0  0  0
    5.8773   -4.4805    6.6985 H   0  0  0  0  0  0  0  0  0  0  0  0
    7.2892   -6.9408    4.4806 H   0  0  0  0  0  0  0  0  0  0  0  0
    4.9673   -6.2715    0.6112 H   0  0  0  0  0  0  0  0  0  0  0  0
    1.7648   -0.5582    3.5896 H   0  0  0  0  0  0  0  0  0  0  0  0
    3.3451   -0.8993    4.2227 H   0  0  0  0  0  0  0  0  0  0  0  0
    2.4982   -1.2251    1.2035 H   0  0  0  0  0  0  0  0  0  0  0  0
    3.1839    0.1740    1.8930 H   0  0  0  0  0  0  0  0  0  0  0  0
    5.8078   -1.5397    3.4327 H   0  0  0  0  0  0  0  0  0  0  0  0
    5.3843    0.1302    3.0514 H   0  0  0  0  0  0  0  0  0  0  0  0
    6.6173   -0.6958    2.1027 H   0  0  0  0  0  0  0  0  0  0  0  0
    0.5043   -2.2880    4.9749 H   0  0  0  0  0  0  0  0  0  0  0  0
    0.0177   -2.8546    3.4065 H   0  0  0  0  0  0  0  0  0  0  0  0
    2.4452   -5.7231    5.0894 H   0  0  0  0  0  0  0  0  0  0  0  0
    1.1494   -6.4162    4.1417 H   0  0  0  0  0  0  0  0  0  0  0  0
    1.5193   -4.7469    2.5011 H   0  0  0  0  0  0  0  0  0  0  0  0
    4.7299   -0.4933    1.0088 H   0  0  0  0  0  0  0  0  0  0  0  0
  1  2  1  0
  1 31  1  0
  1 32  1  0
  1 33  1  0
  3  2  1  1
  3 19  1  0
  3 30  1  0
  3  4  1  0
  4  5  1  0
  4 34  1  0
  4 35  1  0
  5  6  1  0
  5 36  1  0
  5 37  1  0
  6 10  1  0
  6  7  1  6
  6  8  1  0
  7 38  1  0
  7 39  1  0
  7 40  1  0
  8 24  1  0
  8  9  1  0
  8 41  1  6
 10  9  1  6
  9 42  1  0
  9 43  1  0
 10 19  1  0
 10 11  1  0
 11 17  2  0
 11 12  1  0
 12 13  2  0
 12 20  1  0
 13 14  1  0
 13 44  1  0
 14 15  2  0
 14 45  1  0
 15 16  1  0
 15 17  1  0
 16 46  1  0
 17 18  1  0
 18 19  1  0
 19 47  1  6
 20 30  1  0
 20 21  2  0
 21 22  1  0
 21 26  1  0
 22 23  1  0
 22 48  1  0
 22 49  1  0
 23 24  1  0
 23 50  1  0
 23 51  1  0
 24 25  1  0
 24 60  1  6
 25 52  1  0
 25 53  1  0
 25 54  1  0
 26 27  1  0
 26 55  1  0
 26 56  1  0
 27 28  2  0
 27 29  1  0
 29 30  1  0
 29 57  1  0
 29 58  1  0
 30 59  1  6
M  CHG  1  24   1
M  END
>  <i_m_ct_stereo_status>  (199) 
1

>  <s_m_source_file>  (199) 
/var/tmp/pbs.5076255.sched01/tmp276pg2sv/48_ir7zhrj.sdf

>  <i_m_source_file_index>  (199) 
39

>  <i_lp_mmshare_version>  (199) 
48012

>  <i_f3d_flags>  (199) 
0

>  <s_epik_input>  (199) 
W0NIMl0xQyg9TylbQ0gyXVtDQEBIXTJbQ0BAXShPW0NIM10pKFtDSDJdW0NIMl0zKVtDQEBIXTRPYyhjKFtPSF0pW2NIXVtjSF01KWM2YzVDMj1DMVtDSDJdW0NIMl1OKFtDSDNdKVtDQEBIXShbQ0gyXTcpW0NAXTMoW0NAXTQ2NylbQ0gzXQ==

>  <s_epik_cmdline>  (199) 
J2VwaWtfcHl0aG9uJywgJy1waHQnLCAnMi4wJywgJy1waCcsICc3LjAnLCAnLXRuJywgJzgnLCAnLW1hJywgJzIwMCcsICctaW1hZScsICc8aW5maWxlLm1hZT4nLCAnLW9tYWUnLCAnPG91dGZpbGUubWFlPic=

>  <r_lp_tautomer_probability>  (199) 
0.99995

>  <r_epik_Ionization_Penalty>  (199) 
0.0351123

>  <r_epik_Ionization_Penalty_Charging>  (199) 
0.0329402

>  <r_epik_Ionization_Penalty_Neutral>  (199) 
0.00217218

>  <r_epik_State_Penalty>  (199) 
0.0273171

>  <r_epik_Charging_Adjusted_Penalty>  (199) 
0.0602573

>  <i_epik_Tot_Q>  (199) 
1

>  <i_epik_Tot_abs_Q>  (199) 
1

>  <s_lp_Force_Field>  (199) 
OPLS3e

>  <r_lp_Energy>  (199) 
228.032

>  <b_lp_Chiralities_Consistent>  (199) 
1

>  <s_lp_Variant>  (199) 
54:0-1

>  <s_i_glide_gridfile>  (199) 
pfpi4k_grid

>  <i_i_glide_lignum>  (199) 
39

>  <i_i_glide_rotatable_bonds>  (199) 
2

>  <r_i_docking_score>  (199) 
-2.62752

>  <r_i_glide_ligand_efficiency>  (199) 
-0.087584

>  <r_i_glide_ligand_efficiency_sa>  (199) 
-0.272144

>  <r_i_glide_ligand_efficiency_ln>  (199) 
-0.597001

>  <r_i_glide_gscore>  (199) 
-2.62752

>  <r_i_glide_lipo>  (199) 
-0.392725

>  <r_i_glide_hbond>  (199) 
0

>  <r_i_glide_metal>  (199) 
-0

>  <r_i_glide_rewards>  (199) 
-0.623795

>  <r_i_glide_evdw>  (199) 
-19.1142

>  <r_i_glide_ecoul>  (199) 
-4.35641

>  <r_i_glide_erotb>  (199) 
0

>  <r_i_glide_esite>  (199) 
-0.00182872

>  <r_i_glide_emodel>  (199) 
-25.9994

>  <r_i_glide_energy>  (199) 
-23.4706

>  <r_i_glide_einternal>  (199) 
2.29941

>  <r_i_glide_intrahb_reward>  (199) 
-0

>  <i_i_glide_confnum>  (199) 
2

>  <i_i_glide_posenum>  (199) 
15

>  <r_i_glide_eff_state_penalty>  (199) 
0

>  <ligand_id>  (199) 
54

>  <original_smiles>  (199) 
COC12CCC3(C)C4CC35c3c(ccc(O)c3OC15)C1=C(CCN4C)CC(=O)CC12

>  <smiles>  (199) 
[H]Oc1c([H])c([H])c2c3c1OC1([H])C4(OC([H])([H])[H])C([H])([H])C([H])([H])C5(C([H])([H])[H])C31C([H])([H])C5([H])[N+]([H])(C([H])([H])[H])C([H])([H])C([H])([H])C1=C2C4([H])C([H])([H])C(=O)C1([H])[H]

$$$$
54:0:2
     RDKit          3D

 60 66  0  0  1  0  0  0  0  0999 V2000
    3.6043   -7.7709    2.3177 C   0  0  0  0  0  0  0  0  0  0  0  0
    2.9625   -6.8988    1.3735 O   0  0  0  0  0  0  0  0  0  0  0  0
    3.2619   -5.5050    1.4766 C   0  0  2  0  0  0  0  0  0  0  0  0
    2.5069   -4.7460    0.3101 C   0  0  0  0  0  0  0  0  0  0  0  0
    2.6844   -3.1777    0.3785 C   0  0  0  0  0  0  0  0  0  0  0  0
    4.1779   -2.8439    0.3905 C   0  0  1  0  0  0  0  0  0  0  0  0
    4.5009   -2.9560   -1.1501 C   0  0  0  0  0  0  0  0  0  0  0  0
    4.9672   -1.6475    0.9836 C   0  0  2  0  0  0  0  0  0  0  0  0
    6.1290   -2.7198    1.0679 C   0  0  0  0  0  0  0  0  0  0  0  0
    5.0145   -3.7504    1.3621 C   0  0  1  0  0  0  0  0  0  0  0  0
    5.3220   -3.9664    2.8111 C   0  0  0  0  0  0  0  0  0  0  0  0
    4.4275   -3.7039    3.8191 C   0  0  0  0  0  0  0  0  0  0  0  0
    4.6955   -4.0037    5.1720 C   0  0  0  0  0  0  0  0  0  0  0  0
    5.7522   -4.9273    5.3878 C   0  0  0  0  0  0  0  0  0  0  0  0
    6.3303   -5.5964    4.2902 C   0  0  0  0  0  0  0  0  0  0  0  0
    7.1183   -6.7010    4.4558 O   0  0  0  0  0  0  0  0  0  0  0  0
    5.9863   -5.1498    3.0143 C   0  0  0  0  0  0  0  0  0  0  0  0
    5.8635   -5.8956    1.8933 O   0  0  0  0  0  0  0  0  0  0  0  0
    4.8240   -5.2451    1.1159 C   0  0  1  0  0  0  0  0  0  0  0  0
    3.0466   -3.6446    3.4139 C   0  0  0  0  0  0  0  0  0  0  0  0
    2.2119   -2.7657    3.9677 C   0  0  0  0  0  0  0  0  0  0  0  0
    2.6494   -1.3099    4.0862 C   0  0  0  0  0  0  0  0  0  0  0  0
    3.1640   -0.6842    2.7276 C   0  0  0  0  0  0  0  0  0  0  0  0
    4.5854   -0.9311    2.2767 N   0  0  1  0  0  0  0  0  0  0  0  0
    5.6495   -0.7090    3.3006 C   0  0  0  0  0  0  0  0  0  0  0  0
    0.8166   -3.2411    4.3993 C   0  0  0  0  0  0  0  0  0  0  0  0
    0.7709   -4.7804    4.6497 C   0  0  0  0  0  0  0  0  0  0  0  0
   -0.0526   -5.2585    5.4272 O   0  0  0  0  0  0  0  0  0  0  0  0
    1.7678   -5.6989    3.8860 C   0  0  0  0  0  0  0  0  0  0  0  0
    2.5049   -4.9066    2.7863 C   0  0  2  0  0  0  0  0  0  0  0  0
    3.1955   -8.7838    2.2428 H   0  0  0  0  0  0  0  0  0  0  0  0
    3.4779   -7.4544    3.3497 H   0  0  0  0  0  0  0  0  0  0  0  0
    4.6724   -7.8448    2.1472 H   0  0  0  0  0  0  0  0  0  0  0  0
    2.8756   -5.1023   -0.6501 H   0  0  0  0  0  0  0  0  0  0  0  0
    1.4518   -5.0149    0.2728 H   0  0  0  0  0  0  0  0  0  0  0  0
    2.1866   -2.7052   -0.4656 H   0  0  0  0  0  0  0  0  0  0  0  0
    2.1691   -2.7534    1.2274 H   0  0  0  0  0  0  0  0  0  0  0  0
    5.4607   -2.5215   -1.4464 H   0  0  0  0  0  0  0  0  0  0  0  0
    3.7893   -2.4172   -1.7790 H   0  0  0  0  0  0  0  0  0  0  0  0
    4.5299   -3.9874   -1.5060 H   0  0  0  0  0  0  0  0  0  0  0  0
    5.2079   -0.8930    0.2322 H   0  0  0  0  0  0  0  0  0  0  0  0
    6.6692   -2.9220    0.1496 H   0  0  0  0  0  0  0  0  0  0  0  0
    6.8764   -2.5504    1.8452 H   0  0  0  0  0  0  0  0  0  0  0  0
    4.0273   -3.7184    5.9667 H   0  0  0  0  0  0  0  0  0  0  0  0
    5.9994   -5.2243    6.3936 H   0  0  0  0  0  0  0  0  0  0  0  0
    7.4732   -7.0035    3.6348 H   0  0  0  0  0  0  0  0  0  0  0  0
    4.9801   -5.5029    0.0658 H   0  0  0  0  0  0  0  0  0  0  0  0
    1.7744   -0.7431    4.3929 H   0  0  0  0  0  0  0  0  0  0  0  0
    3.3746   -1.1984    4.8979 H   0  0  0  0  0  0  0  0  0  0  0  0
    2.4559   -0.8181    1.9060 H   0  0  0  0  0  0  0  0  0  0  0  0
    3.1431    0.3904    2.8937 H   0  0  0  0  0  0  0  0  0  0  0  0
    5.8077   -1.5813    3.9274 H   0  0  0  0  0  0  0  0  0  0  0  0
    5.3712    0.1189    3.9539 H   0  0  0  0  0  0  0  0  0  0  0  0
    6.5918   -0.4430    2.8199 H   0  0  0  0  0  0  0  0  0  0  0  0
    0.5655   -2.7682    5.3515 H   0  0  0  0  0  0  0  0  0  0  0  0
    0.0407   -2.9452    3.6980 H   0  0  0  0  0  0  0  0  0  0  0  0
    2.4786   -6.0824    4.6186 H   0  0  0  0  0  0  0  0  0  0  0  0
    1.2183   -6.5437    3.4719 H   0  0  0  0  0  0  0  0  0  0  0  0
    1.5759   -4.5522    2.3432 H   0  0  0  0  0  0  0  0  0  0  0  0
    4.6625   -0.0187    1.8446 H   0  0  0  0  0  0  0  0  0  0  0  0
  1  2  1  0
  1 31  1  0
  1 32  1  0
  1 33  1  0
  3  2  1  6
  3 19  1  0
  3 30  1  0
  3  4  1  0
  4  5  1  0
  4 34  1  0
  4 35  1  0
  5  6  1  0
  5 36  1  0
  5 37  1  0
  6 10  1  0
  6  7  1  6
  6  8  1  0
  7 38  1  0
  7 39  1  0
  7 40  1  0
  8 24  1  0
  8  9  1  0
  8 41  1  6
 10  9  1  6
  9 42  1  0
  9 43  1  0
 10 19  1  0
 10 11  1  0
 11 17  2  0
 11 12  1  0
 12 13  2  0
 12 20  1  0
 13 14  1  0
 13 44  1  0
 14 15  2  0
 14 45  1  0
 15 16  1  0
 15 17  1  0
 16 46  1  0
 17 18  1  0
 18 19  1  0
 19 47  1  6
 20 30  1  0
 20 21  2  0
 21 22  1  0
 21 26  1  0
 22 23  1  0
 22 48  1  0
 22 49  1  0
 23 24  1  0
 23 50  1  0
 23 51  1  0
 24 25  1  0
 24 60  1  6
 25 52  1  0
 25 53  1  0
 25 54  1  0
 26 27  1  0
 26 55  1  0
 26 56  1  0
 27 28  2  0
 27 29  1  0
 29 30  1  0
 29 57  1  0
 29 58  1  0
 30 59  1  6
M  CHG  1  24   1
M  END
>  <i_m_ct_stereo_status>  (200) 
1

>  <s_m_source_file>  (200) 
/var/tmp/pbs.5076255.sched01/tmp276pg2sv/48_ir7zhrj.sdf

>  <i_m_source_file_index>  (200) 
39

>  <i_lp_mmshare_version>  (200) 
48012

>  <i_f3d_flags>  (200) 
0

>  <s_epik_input>  (200) 
W0NIMl0xQyg9TylbQ0gyXVtDQEBIXTJbQ0BAXShPW0NIM10pKFtDSDJdW0NIMl0zKVtDQEBIXTRPYyhjKFtPSF0pW2NIXVtjSF01KWM2YzVDMj1DMVtDSDJdW0NIMl1OKFtDSDNdKVtDQEBIXShbQ0gyXTcpW0NAXTMoW0NAXTQ2NylbQ0gzXQ==

>  <s_epik_cmdline>  (200) 
J2VwaWtfcHl0aG9uJywgJy1waHQnLCAnMi4wJywgJy1waCcsICc3LjAnLCAnLXRuJywgJzgnLCAnLW1hJywgJzIwMCcsICctaW1hZScsICc8aW5maWxlLm1hZT4nLCAnLW9tYWUnLCAnPG91dGZpbGUubWFlPic=

>  <r_lp_tautomer_probability>  (200) 
0.99995

>  <r_epik_Ionization_Penalty>  (200) 
0.0351123

>  <r_epik_Ionization_Penalty_Charging>  (200) 
0.0329402

>  <r_epik_Ionization_Penalty_Neutral>  (200) 
0.00217218

>  <r_epik_State_Penalty>  (200) 
0.0273171

>  <r_epik_Charging_Adjusted_Penalty>  (200) 
0.0602573

>  <i_epik_Tot_Q>  (200) 
1

>  <i_epik_Tot_abs_Q>  (200) 
1

>  <s_lp_Force_Field>  (200) 
OPLS3e

>  <r_lp_Energy>  (200) 
228.032

>  <b_lp_Chiralities_Consistent>  (200) 
1

>  <s_lp_Variant>  (200) 
54:0-1

>  <s_i_glide_gridfile>  (200) 
pfpi4k_grid

>  <i_i_glide_lignum>  (200) 
39

>  <i_i_glide_rotatable_bonds>  (200) 
2

>  <r_i_docking_score>  (200) 
-2.50814

>  <r_i_glide_ligand_efficiency>  (200) 
-0.0836045

>  <r_i_glide_ligand_efficiency_sa>  (200) 
-0.259779

>  <r_i_glide_ligand_efficiency_ln>  (200) 
-0.569876

>  <r_i_glide_gscore>  (200) 
-2.50814

>  <r_i_glide_lipo>  (200) 
-0.441835

>  <r_i_glide_hbond>  (200) 
0

>  <r_i_glide_metal>  (200) 
-0

>  <r_i_glide_rewards>  (200) 
-0.623795

>  <r_i_glide_evdw>  (200) 
-17.0305

>  <r_i_glide_ecoul>  (200) 
-3.91137

>  <r_i_glide_erotb>  (200) 
0

>  <r_i_glide_esite>  (200) 
-0.00427533

>  <r_i_glide_emodel>  (200) 
-22.2235

>  <r_i_glide_energy>  (200) 
-20.9419

>  <r_i_glide_einternal>  (200) 
3.05995

>  <r_i_glide_intrahb_reward>  (200) 
-0

>  <i_i_glide_confnum>  (200) 
1

>  <i_i_glide_posenum>  (200) 
5

>  <r_i_glide_eff_state_penalty>  (200) 
0

>  <ligand_id>  (200) 
54

>  <original_smiles>  (200) 
COC12CCC3(C)C4CC35c3c(ccc(O)c3OC15)C1=C(CCN4C)CC(=O)CC12

>  <smiles>  (200) 
[H]Oc1c([H])c([H])c2c3c1OC1([H])C4(OC([H])([H])[H])C([H])([H])C([H])([H])C5(C([H])([H])[H])C31C([H])([H])C5([H])[N+]([H])(C([H])([H])[H])C([H])([H])C([H])([H])C1=C2C4([H])C([H])([H])C(=O)C1([H])[H]

$$$$
54:1:0
     RDKit          3D

 59 65  0  0  1  0  0  0  0  0999 V2000
    1.9301   -6.5651    1.7269 C   0  0  0  0  0  0  0  0  0  0  0  0
    1.7244   -5.6186    0.6677 O   0  0  0  0  0  0  0  0  0  0  0  0
    2.6955   -4.5620    0.5678 C   0  0  2  0  0  0  0  0  0  0  0  0
    2.3195   -3.6726   -0.6952 C   0  0  0  0  0  0  0  0  0  0  0  0
    3.2429   -2.4248   -0.8807 C   0  0  0  0  0  0  0  0  0  0  0  0
    4.6903   -2.8913   -0.9471 C   0  0  1  0  0  0  0  0  0  0  0  0
    4.8055   -3.2616   -2.4795 C   0  0  0  0  0  0  0  0  0  0  0  0
    5.9668   -2.2035   -0.4316 C   0  0  2  0  0  0  0  0  0  0  0  0
    6.4690   -3.6919   -0.3339 C   0  0  0  0  0  0  0  0  0  0  0  0
    5.0444   -3.9765    0.1474 C   0  0  1  0  0  0  0  0  0  0  0  0
    5.3830   -4.1339    1.6091 C   0  0  0  0  0  0  0  0  0  0  0  0
    4.8338   -3.3265    2.5853 C   0  0  0  0  0  0  0  0  0  0  0  0
    5.0188   -3.5600    3.9580 C   0  0  0  0  0  0  0  0  0  0  0  0
    5.4822   -4.8630    4.2881 C   0  0  0  0  0  0  0  0  0  0  0  0
    5.5544   -5.8584    3.2951 C   0  0  0  0  0  0  0  0  0  0  0  0
    5.6574   -7.1848    3.6084 O   0  0  0  0  0  0  0  0  0  0  0  0
    5.3908   -5.4564    1.9757 C   0  0  0  0  0  0  0  0  0  0  0  0
    4.7908   -6.1671    0.9885 O   0  0  0  0  0  0  0  0  0  0  0  0
    4.1394   -5.1778    0.1493 C   0  0  1  0  0  0  0  0  0  0  0  0
    3.6341   -2.6143    2.2029 C   0  0  0  0  0  0  0  0  0  0  0  0
    3.3850   -1.3538    2.5911 C   0  0  0  0  0  0  0  0  0  0  0  0
    4.4548   -0.2723    2.4359 C   0  0  0  0  0  0  0  0  0  0  0  0
    5.1399   -0.2531    1.0136 C   0  0  0  0  0  0  0  0  0  0  0  0
    6.0493   -1.3737    0.7913 N   0  0  0  0  0  0  0  0  0  0  0  0
    7.4153   -1.0691    1.1517 C   0  0  0  0  0  0  0  0  0  0  0  0
    1.9708   -1.0004    3.0907 C   0  0  0  0  0  0  0  0  0  0  0  0
    1.1976   -2.2568    3.5995 C   0  0  0  0  0  0  0  0  0  0  0  0
    0.3152   -2.1533    4.4545 O   0  0  0  0  0  0  0  0  0  0  0  0
    1.5444   -3.6527    3.0025 C   0  0  0  0  0  0  0  0  0  0  0  0
    2.4843   -3.5017    1.7875 C   0  0  2  0  0  0  0  0  0  0  0  0
    1.0648   -7.2244    1.8330 H   0  0  0  0  0  0  0  0  0  0  0  0
    2.0966   -6.0952    2.6933 H   0  0  0  0  0  0  0  0  0  0  0  0
    2.7898   -7.2045    1.5515 H   0  0  0  0  0  0  0  0  0  0  0  0
    2.3609   -4.2558   -1.6029 H   0  0  0  0  0  0  0  0  0  0  0  0
    1.2933   -3.3299   -0.7200 H   0  0  0  0  0  0  0  0  0  0  0  0
    2.9400   -1.8594   -1.7639 H   0  0  0  0  0  0  0  0  0  0  0  0
    3.0912   -1.7081   -0.0953 H   0  0  0  0  0  0  0  0  0  0  0  0
    5.8228   -3.3228   -2.8671 H   0  0  0  0  0  0  0  0  0  0  0  0
    4.3515   -2.5233   -3.1418 H   0  0  0  0  0  0  0  0  0  0  0  0
    4.3387   -4.2190   -2.7074 H   0  0  0  0  0  0  0  0  0  0  0  0
    6.4837   -1.6795   -1.2311 H   0  0  0  0  0  0  0  0  0  0  0  0
    6.7118   -4.1883   -1.2561 H   0  0  0  0  0  0  0  0  0  0  0  0
    7.2829   -3.8747    0.3731 H   0  0  0  0  0  0  0  0  0  0  0  0
    4.6568   -2.8732    4.7041 H   0  0  0  0  0  0  0  0  0  0  0  0
    5.6395   -5.1231    5.3194 H   0  0  0  0  0  0  0  0  0  0  0  0
    5.6517   -7.7248    2.8328 H   0  0  0  0  0  0  0  0  0  0  0  0
    4.1044   -5.5916   -0.8471 H   0  0  0  0  0  0  0  0  0  0  0  0
    3.9486    0.6834    2.5724 H   0  0  0  0  0  0  0  0  0  0  0  0
    5.1828   -0.3529    3.2415 H   0  0  0  0  0  0  0  0  0  0  0  0
    4.3972   -0.2070    0.2203 H   0  0  0  0  0  0  0  0  0  0  0  0
    5.7267    0.6497    0.8787 H   0  0  0  0  0  0  0  0  0  0  0  0
    7.4239   -0.6504    2.1640 H   0  0  0  0  0  0  0  0  0  0  0  0
    7.8895   -0.3638    0.4751 H   0  0  0  0  0  0  0  0  0  0  0  0
    8.0104   -1.9763    1.1266 H   0  0  0  0  0  0  0  0  0  0  0  0
    2.0604   -0.3314    3.9490 H   0  0  0  0  0  0  0  0  0  0  0  0
    1.3821   -0.4643    2.3485 H   0  0  0  0  0  0  0  0  0  0  0  0
    2.0237   -4.2328    3.7918 H   0  0  0  0  0  0  0  0  0  0  0  0
    0.6187   -4.1677    2.7438 H   0  0  0  0  0  0  0  0  0  0  0  0
    1.8481   -2.7665    1.2940 H   0  0  0  0  0  0  0  0  0  0  0  0
  1  2  1  0
  1 31  1  0
  1 32  1  0
  1 33  1  0
  3  2  1  1
  3 19  1  0
  3 30  1  0
  3  4  1  0
  4  5  1  0
  4 34  1  0
  4 35  1  0
  5  6  1  0
  5 36  1  0
  5 37  1  0
  6 10  1  0
  6  7  1  6
  6  8  1  0
  7 38  1  0
  7 39  1  0
  7 40  1  0
  8 24  1  0
  8  9  1  0
  8 41  1  6
 10  9  1  6
  9 42  1  0
  9 43  1  0
 10 19  1  0
 10 11  1  0
 11 17  2  0
 11 12  1  0
 12 13  2  0
 12 20  1  0
 13 14  1  0
 13 44  1  0
 14 15  2  0
 14 45  1  0
 15 16  1  0
 15 17  1  0
 16 46  1  0
 17 18  1  0
 18 19  1  0
 19 47  1  6
 20 30  1  0
 20 21  2  0
 21 22  1  0
 21 26  1  0
 22 23  1  0
 22 48  1  0
 22 49  1  0
 23 24  1  0
 23 50  1  0
 23 51  1  0
 24 25  1  0
 25 52  1  0
 25 53  1  0
 25 54  1  0
 26 27  1  0
 26 55  1  0
 26 56  1  0
 27 28  2  0
 27 29  1  0
 29 30  1  0
 29 57  1  0
 29 58  1  0
 30 59  1  6
M  END
>  <i_m_ct_stereo_status>  (201) 
1

>  <s_m_source_file>  (201) 
/var/tmp/pbs.5076255.sched01/tmp276pg2sv/48_ir7zhrj.sdf

>  <i_m_source_file_index>  (201) 
40

>  <i_lp_mmshare_version>  (201) 
48012

>  <i_f3d_flags>  (201) 
0

>  <s_epik_input>  (201) 
W0NIMl0xQyg9TylbQ0gyXVtDQEBIXTJbQ0BAXShPW0NIM10pKFtDSDJdW0NIMl0zKVtDQEBIXTRPYyhjKFtPSF0pW2NIXVtjSF01KWM2YzVDMj1DMVtDSDJdW0NIMl1OKFtDSDNdKVtDQEBIXShbQ0gyXTcpW0NAXTMoW0NAXTQ2NylbQ0gzXQ==

>  <s_epik_cmdline>  (201) 
J2VwaWtfcHl0aG9uJywgJy1waHQnLCAnMi4wJywgJy1waCcsICc3LjAnLCAnLXRuJywgJzgnLCAnLW1hJywgJzIwMCcsICctaW1hZScsICc8aW5maWxlLm1hZT4nLCAnLW9tYWUnLCAnPG91dGZpbGUubWFlPic=

>  <r_lp_tautomer_probability>  (201) 
0.99995

>  <r_epik_Ionization_Penalty>  (201) 
1.72929

>  <r_epik_Ionization_Penalty_Charging>  (201) 
0

>  <r_epik_Ionization_Penalty_Neutral>  (201) 
1.72929

>  <r_epik_State_Penalty>  (201) 
1.83657

>  <r_epik_Charging_Adjusted_Penalty>  (201) 
1.83657

>  <i_epik_Tot_Q>  (201) 
0

>  <i_epik_Tot_abs_Q>  (201) 
0

>  <s_lp_Force_Field>  (201) 
OPLS3e

>  <r_lp_Energy>  (201) 
213.41

>  <b_lp_Chiralities_Consistent>  (201) 
1

>  <s_lp_Variant>  (201) 
54:0-2

>  <s_i_glide_gridfile>  (201) 
pfpi4k_grid

>  <i_i_glide_lignum>  (201) 
40

>  <i_i_glide_rotatable_bonds>  (201) 
2

>  <r_i_docking_score>  (201) 
-2.87125

>  <r_i_glide_ligand_efficiency>  (201) 
-0.0957083

>  <r_i_glide_ligand_efficiency_sa>  (201) 
-0.297388

>  <r_i_glide_ligand_efficiency_ln>  (201) 
-0.652379

>  <r_i_glide_gscore>  (201) 
-2.87125

>  <r_i_glide_lipo>  (201) 
-0.618685

>  <r_i_glide_hbond>  (201) 
-0.121969

>  <r_i_glide_metal>  (201) 
-0

>  <r_i_glide_rewards>  (201) 
-0.693339

>  <r_i_glide_evdw>  (201) 
-17.5755

>  <r_i_glide_ecoul>  (201) 
-3.72322

>  <r_i_glide_erotb>  (201) 
0

>  <r_i_glide_esite>  (201) 
0

>  <r_i_glide_emodel>  (201) 
-21.8037

>  <r_i_glide_energy>  (201) 
-21.2987

>  <r_i_glide_einternal>  (201) 
2.87725

>  <r_i_glide_intrahb_reward>  (201) 
-0

>  <i_i_glide_confnum>  (201) 
1

>  <i_i_glide_posenum>  (201) 
10

>  <r_i_glide_eff_state_penalty>  (201) 
0

>  <ligand_id>  (201) 
54

>  <original_smiles>  (201) 
COC12CCC3(C)C4CC35c3c(ccc(O)c3OC15)C1=C(CCN4C)CC(=O)CC12

>  <smiles>  (201) 
[H]Oc1c([H])c([H])c2c3c1OC1([H])C4(OC([H])([H])[H])C([H])([H])C([H])([H])C5(C([H])([H])[H])C([H])(N(C([H])([H])[H])C([H])([H])C([H])([H])C6=C2C4([H])C([H])([H])C(=O)C6([H])[H])C([H])([H])C315

$$$$
54:1:1
     RDKit          3D

 59 65  0  0  1  0  0  0  0  0999 V2000
    1.3997   -6.5214    1.3568 C   0  0  0  0  0  0  0  0  0  0  0  0
    1.7859   -5.4696    0.4788 O   0  0  0  0  0  0  0  0  0  0  0  0
    3.1338   -4.9723    0.5816 C   0  0  2  0  0  0  0  0  0  0  0  0
    4.1886   -6.1305    0.3535 C   0  0  0  0  0  0  0  0  0  0  0  0
    5.6574   -5.6134    0.2465 C   0  0  0  0  0  0  0  0  0  0  0  0
    5.9864   -4.7856    1.4905 C   0  0  1  0  0  0  0  0  0  0  0  0
    6.4212   -5.9365    2.4887 C   0  0  0  0  0  0  0  0  0  0  0  0
    6.8783   -3.5460    1.6172 C   0  0  2  0  0  0  0  0  0  0  0  0
    5.8923   -3.2694    2.8476 C   0  0  0  0  0  0  0  0  0  0  0  0
    4.8103   -3.7998    1.9283 C   0  0  1  0  0  0  0  0  0  0  0  0
    4.2582   -2.4644    1.6114 C   0  0  0  0  0  0  0  0  0  0  0  0
    4.2889   -1.9440    0.3548 C   0  0  0  0  0  0  0  0  0  0  0  0
    3.6900   -0.7292    0.0297 C   0  0  0  0  0  0  0  0  0  0  0  0
    2.7499   -0.2555    0.9722 C   0  0  0  0  0  0  0  0  0  0  0  0
    2.3405   -1.0828    2.0550 C   0  0  0  0  0  0  0  0  0  0  0  0
    1.1963   -0.8143    2.7766 O   0  0  0  0  0  0  0  0  0  0  0  0
    3.0631   -2.2598    2.2584 C   0  0  0  0  0  0  0  0  0  0  0  0
    2.5711   -3.4716    2.6578 O   0  0  0  0  0  0  0  0  0  0  0  0
    3.4485   -4.4571    2.0803 C   0  0  1  0  0  0  0  0  0  0  0  0
    4.3769   -2.9262   -0.6969 C   0  0  0  0  0  0  0  0  0  0  0  0
    5.0802   -2.7302   -1.8313 C   0  0  0  0  0  0  0  0  0  0  0  0
    6.4653   -2.1320   -1.7892 C   0  0  0  0  0  0  0  0  0  0  0  0
    7.4312   -2.8056   -0.7718 C   0  0  0  0  0  0  0  0  0  0  0  0
    7.0676   -2.4662    0.5952 N   0  0  0  0  0  0  0  0  0  0  0  0
    7.7890   -1.2779    1.0252 C   0  0  0  0  0  0  0  0  0  0  0  0
    4.4843   -3.1695   -3.1770 C   0  0  0  0  0  0  0  0  0  0  0  0
    2.9314   -3.2893   -3.1062 C   0  0  0  0  0  0  0  0  0  0  0  0
    2.2669   -3.1239   -4.1150 O   0  0  0  0  0  0  0  0  0  0  0  0
    2.2534   -3.6641   -1.7475 C   0  0  0  0  0  0  0  0  0  0  0  0
    3.3173   -3.9949   -0.6932 C   0  0  2  0  0  0  0  0  0  0  0  0
    0.3426   -6.7077    1.1837 H   0  0  0  0  0  0  0  0  0  0  0  0
    1.5242   -6.2665    2.4112 H   0  0  0  0  0  0  0  0  0  0  0  0
    1.9367   -7.4435    1.1403 H   0  0  0  0  0  0  0  0  0  0  0  0
    4.1349   -6.8351    1.1830 H   0  0  0  0  0  0  0  0  0  0  0  0
    3.9555   -6.7107   -0.5293 H   0  0  0  0  0  0  0  0  0  0  0  0
    6.3551   -6.4330    0.1235 H   0  0  0  0  0  0  0  0  0  0  0  0
    5.8300   -5.0368   -0.6379 H   0  0  0  0  0  0  0  0  0  0  0  0
    7.0160   -5.5979    3.3303 H   0  0  0  0  0  0  0  0  0  0  0  0
    7.0623   -6.6879    2.0398 H   0  0  0  0  0  0  0  0  0  0  0  0
    5.5617   -6.4593    2.9030 H   0  0  0  0  0  0  0  0  0  0  0  0
    7.8657   -3.8872    1.8953 H   0  0  0  0  0  0  0  0  0  0  0  0
    5.9920   -3.8653    3.7411 H   0  0  0  0  0  0  0  0  0  0  0  0
    5.8537   -2.2167    3.1290 H   0  0  0  0  0  0  0  0  0  0  0  0
    3.7520   -0.4207   -0.9915 H   0  0  0  0  0  0  0  0  0  0  0  0
    2.1631    0.5994    0.7342 H   0  0  0  0  0  0  0  0  0  0  0  0
    0.7876    0.0048    2.5209 H   0  0  0  0  0  0  0  0  0  0  0  0
    3.5631   -5.2905    2.7581 H   0  0  0  0  0  0  0  0  0  0  0  0
    6.9492   -2.3408   -2.7280 H   0  0  0  0  0  0  0  0  0  0  0  0
    6.3093   -1.0668   -1.6585 H   0  0  0  0  0  0  0  0  0  0  0  0
    7.4614   -3.8831   -0.9093 H   0  0  0  0  0  0  0  0  0  0  0  0
    8.4567   -2.4860   -0.9659 H   0  0  0  0  0  0  0  0  0  0  0  0
    7.6676   -0.4336    0.3279 H   0  0  0  0  0  0  0  0  0  0  0  0
    8.8465   -1.4651    1.1429 H   0  0  0  0  0  0  0  0  0  0  0  0
    7.3817   -0.9638    1.9784 H   0  0  0  0  0  0  0  0  0  0  0  0
    4.6700   -2.4092   -3.9416 H   0  0  0  0  0  0  0  0  0  0  0  0
    4.9104   -4.0910   -3.5842 H   0  0  0  0  0  0  0  0  0  0  0  0
    1.6598   -2.8181   -1.4187 H   0  0  0  0  0  0  0  0  0  0  0  0
    1.5574   -4.4876   -1.9101 H   0  0  0  0  0  0  0  0  0  0  0  0
    3.8686   -4.6593   -1.3143 H   0  0  0  0  0  0  0  0  0  0  0  0
  1  2  1  0
  1 31  1  0
  1 32  1  0
  1 33  1  0
  3  2  1  1
  3 19  1  0
  3 30  1  0
  3  4  1  0
  4  5  1  0
  4 34  1  0
  4 35  1  0
  5  6  1  0
  5 36  1  0
  5 37  1  0
  6 10  1  0
  6  7  1  1
  6  8  1  0
  7 38  1  0
  7 39  1  0
  7 40  1  0
  8 24  1  0
  8  9  1  0
  8 41  1  1
 10  9  1  1
  9 42  1  0
  9 43  1  0
 10 19  1  0
 10 11  1  0
 11 17  2  0
 11 12  1  0
 12 13  2  0
 12 20  1  0
 13 14  1  0
 13 44  1  0
 14 15  2  0
 14 45  1  0
 15 16  1  0
 15 17  1  0
 16 46  1  0
 17 18  1  0
 18 19  1  0
 19 47  1  1
 20 30  1  0
 20 21  2  0
 21 22  1  0
 21 26  1  0
 22 23  1  0
 22 48  1  0
 22 49  1  0
 23 24  1  0
 23 50  1  0
 23 51  1  0
 24 25  1  0
 25 52  1  0
 25 53  1  0
 25 54  1  0
 26 27  1  0
 26 55  1  0
 26 56  1  0
 27 28  2  0
 27 29  1  0
 29 30  1  0
 29 57  1  0
 29 58  1  0
 30 59  1  6
M  END
>  <i_m_ct_stereo_status>  (202) 
1

>  <s_m_source_file>  (202) 
/var/tmp/pbs.5076255.sched01/tmp276pg2sv/48_ir7zhrj.sdf

>  <i_m_source_file_index>  (202) 
40

>  <i_lp_mmshare_version>  (202) 
48012

>  <i_f3d_flags>  (202) 
0

>  <s_epik_input>  (202) 
W0NIMl0xQyg9TylbQ0gyXVtDQEBIXTJbQ0BAXShPW0NIM10pKFtDSDJdW0NIMl0zKVtDQEBIXTRPYyhjKFtPSF0pW2NIXVtjSF01KWM2YzVDMj1DMVtDSDJdW0NIMl1OKFtDSDNdKVtDQEBIXShbQ0gyXTcpW0NAXTMoW0NAXTQ2NylbQ0gzXQ==

>  <s_epik_cmdline>  (202) 
J2VwaWtfcHl0aG9uJywgJy1waHQnLCAnMi4wJywgJy1waCcsICc3LjAnLCAnLXRuJywgJzgnLCAnLW1hJywgJzIwMCcsICctaW1hZScsICc8aW5maWxlLm1hZT4nLCAnLW9tYWUnLCAnPG91dGZpbGUubWFlPic=

>  <r_lp_tautomer_probability>  (202) 
0.99995

>  <r_epik_Ionization_Penalty>  (202) 
1.72929

>  <r_epik_Ionization_Penalty_Charging>  (202) 
0

>  <r_epik_Ionization_Penalty_Neutral>  (202) 
1.72929

>  <r_epik_State_Penalty>  (202) 
1.83657

>  <r_epik_Charging_Adjusted_Penalty>  (202) 
1.83657

>  <i_epik_Tot_Q>  (202) 
0

>  <i_epik_Tot_abs_Q>  (202) 
0

>  <s_lp_Force_Field>  (202) 
OPLS3e

>  <r_lp_Energy>  (202) 
213.41

>  <b_lp_Chiralities_Consistent>  (202) 
1

>  <s_lp_Variant>  (202) 
54:0-2

>  <s_i_glide_gridfile>  (202) 
pfpi4k_grid

>  <i_i_glide_lignum>  (202) 
40

>  <i_i_glide_rotatable_bonds>  (202) 
2

>  <r_i_docking_score>  (202) 
-2.20349

>  <r_i_glide_ligand_efficiency>  (202) 
-0.0734495

>  <r_i_glide_ligand_efficiency_sa>  (202) 
-0.228225

>  <r_i_glide_ligand_efficiency_ln>  (202) 
-0.500656

>  <r_i_glide_gscore>  (202) 
-2.20349

>  <r_i_glide_lipo>  (202) 
-0.632713

>  <r_i_glide_hbond>  (202) 
-0.107763

>  <r_i_glide_metal>  (202) 
-0

>  <r_i_glide_rewards>  (202) 
-0.738877

>  <r_i_glide_evdw>  (202) 
-13.3398

>  <r_i_glide_ecoul>  (202) 
-0.380949

>  <r_i_glide_erotb>  (202) 
0

>  <r_i_glide_esite>  (202) 
0

>  <r_i_glide_emodel>  (202) 
-15.071

>  <r_i_glide_energy>  (202) 
-13.7208

>  <r_i_glide_einternal>  (202) 
0.0638667

>  <r_i_glide_intrahb_reward>  (202) 
-0

>  <i_i_glide_confnum>  (202) 
2

>  <i_i_glide_posenum>  (202) 
3

>  <r_i_glide_eff_state_penalty>  (202) 
0

>  <ligand_id>  (202) 
54

>  <original_smiles>  (202) 
COC12CCC3(C)C4CC35c3c(ccc(O)c3OC15)C1=C(CCN4C)CC(=O)CC12

>  <smiles>  (202) 
[H]Oc1c([H])c([H])c2c3c1OC1([H])C4(OC([H])([H])[H])C([H])([H])C([H])([H])C5(C([H])([H])[H])C([H])(N(C([H])([H])[H])C([H])([H])C([H])([H])C6=C2C4([H])C([H])([H])C(=O)C6([H])[H])C([H])([H])C315

$$$$
54:1:2
     RDKit          3D

 59 65  0  0  1  0  0  0  0  0999 V2000
    1.1177   -1.0942    3.1827 C   0  0  0  0  0  0  0  0  0  0  0  0
    0.7923   -2.4881    3.3557 O   0  0  0  0  0  0  0  0  0  0  0  0
    1.9034   -3.3776    3.5138 C   0  0  2  0  0  0  0  0  0  0  0  0
    1.3152   -4.8405    3.6882 C   0  0  0  0  0  0  0  0  0  0  0  0
    2.4309   -5.9441    3.8217 C   0  0  0  0  0  0  0  0  0  0  0  0
    3.3821   -5.5790    4.9679 C   0  0  1  0  0  0  0  0  0  0  0  0
    2.5838   -6.1751    6.1861 C   0  0  0  0  0  0  0  0  0  0  0  0
    4.9053   -5.7838    5.1084 C   0  0  2  0  0  0  0  0  0  0  0  0
    4.7720   -4.5269    6.0515 C   0  0  0  0  0  0  0  0  0  0  0  0
    3.7719   -4.0497    4.9787 C   0  0  1  0  0  0  0  0  0  0  0  0
    4.6797   -3.0481    4.3204 C   0  0  0  0  0  0  0  0  0  0  0  0
    5.0166   -3.1399    2.9723 C   0  0  0  0  0  0  0  0  0  0  0  0
    5.7351   -2.1426    2.2789 C   0  0  0  0  0  0  0  0  0  0  0  0
    5.7669   -0.8742    2.9315 C   0  0  0  0  0  0  0  0  0  0  0  0
    4.9702   -0.6622    4.0900 C   0  0  0  0  0  0  0  0  0  0  0  0
    4.7284    0.5985    4.5552 O   0  0  0  0  0  0  0  0  0  0  0  0
    4.3562   -1.7608    4.6610 C   0  0  0  0  0  0  0  0  0  0  0  0
    3.1506   -1.8007    5.2804 O   0  0  0  0  0  0  0  0  0  0  0  0
    2.5917   -3.1067    4.9592 C   0  0  1  0  0  0  0  0  0  0  0  0
    4.1632   -3.9809    2.1546 C   0  0  0  0  0  0  0  0  0  0  0  0
    4.6367   -4.7685    1.1820 C   0  0  0  0  0  0  0  0  0  0  0  0
    5.8227   -5.6987    1.4419 C   0  0  0  0  0  0  0  0  0  0  0  0
    5.7038   -6.5276    2.7773 C   0  0  0  0  0  0  0  0  0  0  0  0
    5.8993   -5.7296    3.9923 N   0  0  0  0  0  0  0  0  0  0  0  0
    7.2773   -5.7498    4.4612 C   0  0  0  0  0  0  0  0  0  0  0  0
    3.8991   -4.8021   -0.1719 C   0  0  0  0  0  0  0  0  0  0  0  0
    3.0693   -3.5050   -0.4071 C   0  0  0  0  0  0  0  0  0  0  0  0
    2.8603   -3.0985   -1.5490 O   0  0  0  0  0  0  0  0  0  0  0  0
    2.5142   -2.7286    0.8145 C   0  0  0  0  0  0  0  0  0  0  0  0
    2.7257   -3.5269    2.1149 C   0  0  2  0  0  0  0  0  0  0  0  0
    0.2289   -0.5311    2.8860 H   0  0  0  0  0  0  0  0  0  0  0  0
    1.8763   -0.9107    2.4307 H   0  0  0  0  0  0  0  0  0  0  0  0
    1.4922   -0.6341    4.0883 H   0  0  0  0  0  0  0  0  0  0  0  0
    0.6832   -4.8621    4.5794 H   0  0  0  0  0  0  0  0  0  0  0  0
    0.6299   -5.1178    2.8901 H   0  0  0  0  0  0  0  0  0  0  0  0
    1.9853   -6.9305    3.9496 H   0  0  0  0  0  0  0  0  0  0  0  0
    2.9773   -6.0675    2.8991 H   0  0  0  0  0  0  0  0  0  0  0  0
    3.1792   -6.3287    7.0883 H   0  0  0  0  0  0  0  0  0  0  0  0
    2.1860   -7.1721    6.0051 H   0  0  0  0  0  0  0  0  0  0  0  0
    1.7407   -5.5466    6.4847 H   0  0  0  0  0  0  0  0  0  0  0  0
    5.1196   -6.6802    5.6913 H   0  0  0  0  0  0  0  0  0  0  0  0
    4.3510   -4.6600    7.0489 H   0  0  0  0  0  0  0  0  0  0  0  0
    5.6881   -3.9443    6.1577 H   0  0  0  0  0  0  0  0  0  0  0  0
    6.0818   -2.2695    1.2660 H   0  0  0  0  0  0  0  0  0  0  0  0
    6.2788   -0.0611    2.4812 H   0  0  0  0  0  0  0  0  0  0  0  0
    4.1258    0.5798    5.2740 H   0  0  0  0  0  0  0  0  0  0  0  0
    1.8677   -3.3686    5.7299 H   0  0  0  0  0  0  0  0  0  0  0  0
    5.8527   -6.4091    0.6144 H   0  0  0  0  0  0  0  0  0  0  0  0
    6.7573   -5.1433    1.4008 H   0  0  0  0  0  0  0  0  0  0  0  0
    4.7532   -7.0541    2.8224 H   0  0  0  0  0  0  0  0  0  0  0  0
    6.4458   -7.3267    2.7743 H   0  0  0  0  0  0  0  0  0  0  0  0
    7.9550   -5.4985    3.6433 H   0  0  0  0  0  0  0  0  0  0  0  0
    7.5555   -6.7221    4.8627 H   0  0  0  0  0  0  0  0  0  0  0  0
    7.4247   -5.0054    5.2438 H   0  0  0  0  0  0  0  0  0  0  0  0
    4.6364   -4.8326   -0.9766 H   0  0  0  0  0  0  0  0  0  0  0  0
    3.2789   -5.6846   -0.2981 H   0  0  0  0  0  0  0  0  0  0  0  0
    3.0520   -1.7803    0.8472 H   0  0  0  0  0  0  0  0  0  0  0  0
    1.4622   -2.5050    0.6584 H   0  0  0  0  0  0  0  0  0  0  0  0
    2.2383   -4.4095    1.7036 H   0  0  0  0  0  0  0  0  0  0  0  0
  1  2  1  0
  1 31  1  0
  1 32  1  0
  1 33  1  0
  3  2  1  6
  3 19  1  0
  3 30  1  0
  3  4  1  0
  4  5  1  0
  4 34  1  0
  4 35  1  0
  5  6  1  0
  5 36  1  0
  5 37  1  0
  6 10  1  0
  6  7  1  1
  6  8  1  0
  7 38  1  0
  7 39  1  0
  7 40  1  0
  8 24  1  0
  8  9  1  0
  8 41  1  1
 10  9  1  1
  9 42  1  0
  9 43  1  0
 10 19  1  0
 10 11  1  0
 11 17  2  0
 11 12  1  0
 12 13  2  0
 12 20  1  0
 13 14  1  0
 13 44  1  0
 14 15  2  0
 14 45  1  0
 15 16  1  0
 15 17  1  0
 16 46  1  0
 17 18  1  0
 18 19  1  0
 19 47  1  1
 20 30  1  0
 20 21  2  0
 21 22  1  0
 21 26  1  0
 22 23  1  0
 22 48  1  0
 22 49  1  0
 23 24  1  0
 23 50  1  0
 23 51  1  0
 24 25  1  0
 25 52  1  0
 25 53  1  0
 25 54  1  0
 26 27  1  0
 26 55  1  0
 26 56  1  0
 27 28  2  0
 27 29  1  0
 29 30  1  0
 29 57  1  0
 29 58  1  0
 30 59  1  6
M  END
>  <i_m_ct_stereo_status>  (203) 
1

>  <s_m_source_file>  (203) 
/var/tmp/pbs.5076255.sched01/tmp276pg2sv/48_ir7zhrj.sdf

>  <i_m_source_file_index>  (203) 
40

>  <i_lp_mmshare_version>  (203) 
48012

>  <i_f3d_flags>  (203) 
0

>  <s_epik_input>  (203) 
W0NIMl0xQyg9TylbQ0gyXVtDQEBIXTJbQ0BAXShPW0NIM10pKFtDSDJdW0NIMl0zKVtDQEBIXTRPYyhjKFtPSF0pW2NIXVtjSF01KWM2YzVDMj1DMVtDSDJdW0NIMl1OKFtDSDNdKVtDQEBIXShbQ0gyXTcpW0NAXTMoW0NAXTQ2NylbQ0gzXQ==

>  <s_epik_cmdline>  (203) 
J2VwaWtfcHl0aG9uJywgJy1waHQnLCAnMi4wJywgJy1waCcsICc3LjAnLCAnLXRuJywgJzgnLCAnLW1hJywgJzIwMCcsICctaW1hZScsICc8aW5maWxlLm1hZT4nLCAnLW9tYWUnLCAnPG91dGZpbGUubWFlPic=

>  <r_lp_tautomer_probability>  (203) 
0.99995

>  <r_epik_Ionization_Penalty>  (203) 
1.72929

>  <r_epik_Ionization_Penalty_Charging>  (203) 
0

>  <r_epik_Ionization_Penalty_Neutral>  (203) 
1.72929

>  <r_epik_State_Penalty>  (203) 
1.83657

>  <r_epik_Charging_Adjusted_Penalty>  (203) 
1.83657

>  <i_epik_Tot_Q>  (203) 
0

>  <i_epik_Tot_abs_Q>  (203) 
0

>  <s_lp_Force_Field>  (203) 
OPLS3e

>  <r_lp_Energy>  (203) 
213.41

>  <b_lp_Chiralities_Consistent>  (203) 
1

>  <s_lp_Variant>  (203) 
54:0-2

>  <s_i_glide_gridfile>  (203) 
pfpi4k_grid

>  <i_i_glide_lignum>  (203) 
40

>  <i_i_glide_rotatable_bonds>  (203) 
2

>  <r_i_docking_score>  (203) 
-1.54997

>  <r_i_glide_ligand_efficiency>  (203) 
-0.0516656

>  <r_i_glide_ligand_efficiency_sa>  (203) 
-0.160537

>  <r_i_glide_ligand_efficiency_ln>  (203) 
-0.352169

>  <r_i_glide_gscore>  (203) 
-1.54997

>  <r_i_glide_lipo>  (203) 
-0.444118

>  <r_i_glide_hbond>  (203) 
0

>  <r_i_glide_metal>  (203) 
-0

>  <r_i_glide_rewards>  (203) 
-0.653046

>  <r_i_glide_evdw>  (203) 
-15.9178

>  <r_i_glide_ecoul>  (203) 
2.28725

>  <r_i_glide_erotb>  (203) 
0

>  <r_i_glide_esite>  (203) 
0

>  <r_i_glide_emodel>  (203) 
-12.4583

>  <r_i_glide_energy>  (203) 
-13.6306

>  <r_i_glide_einternal>  (203) 
2.91571

>  <r_i_glide_intrahb_reward>  (203) 
-0

>  <i_i_glide_confnum>  (203) 
2

>  <i_i_glide_posenum>  (203) 
6

>  <r_i_glide_eff_state_penalty>  (203) 
0

>  <ligand_id>  (203) 
54

>  <original_smiles>  (203) 
COC12CCC3(C)C4CC35c3c(ccc(O)c3OC15)C1=C(CCN4C)CC(=O)CC12

>  <smiles>  (203) 
[H]Oc1c([H])c([H])c2c3c1OC1([H])C4(OC([H])([H])[H])C([H])([H])C([H])([H])C5(C([H])([H])[H])C([H])(N(C([H])([H])[H])C([H])([H])C([H])([H])C6=C2C4([H])C([H])([H])C(=O)C6([H])[H])C([H])([H])C315

$$$$
55:0:0
     RDKit          3D

 25 26  0  0  1  0  0  0  0  0999 V2000
    5.1042   -3.4229   -2.5559 C   0  0  0  0  0  0  0  0  0  0  0  0
    4.6666   -2.7789   -1.2188 C   0  0  0  0  0  0  0  0  0  0  0  0
    4.5189   -1.2540   -1.4029 C   0  0  0  0  0  0  0  0  0  0  0  0
    3.0821   -3.4544   -0.6988 S   0  0  0  0  0  0  0  0  0  0  0  0
    3.8049   -4.8873    0.1627 C   0  0  2  0  0  0  0  0  0  0  0  0
    3.3423   -5.1419    1.5660 C   0  0  0  0  0  0  0  0  0  0  0  0
    2.1516   -5.1393    1.9076 O   0  0  0  0  0  0  0  0  0  0  0  0
    4.3609   -5.3669    2.3650 N   0  0  0  0  0  0  0  0  0  0  0  0
    5.5724   -5.1609    1.5905 C   0  0  0  0  0  0  0  0  0  0  0  0
    5.2651   -4.6729    0.2241 N   0  0  0  0  0  0  0  0  0  0  0  0
    5.5999   -3.2322   -0.0362 C   0  0  1  0  0  0  0  0  0  0  0  0
    7.0985   -2.9703   -0.2346 C   0  0  0  0  0  0  0  0  0  0  0  0
    7.4217   -1.8556   -0.7008 O   0  0  0  0  0  0  0  0  0  0  0  0
    7.9060   -3.8661    0.0879 O   0  0  0  0  0  0  0  0  0  0  0  0
    6.0631   -3.0450   -2.9014 H   0  0  0  0  0  0  0  0  0  0  0  0
    4.3718   -3.2326   -3.3361 H   0  0  0  0  0  0  0  0  0  0  0  0
    5.1920   -4.5001   -2.4635 H   0  0  0  0  0  0  0  0  0  0  0  0
    5.4304   -0.7731   -1.7445 H   0  0  0  0  0  0  0  0  0  0  0  0
    4.1983   -0.7584   -0.4824 H   0  0  0  0  0  0  0  0  0  0  0  0
    3.7618   -1.0366   -2.1599 H   0  0  0  0  0  0  0  0  0  0  0  0
    3.5925   -5.7443   -0.4670 H   0  0  0  0  0  0  0  0  0  0  0  0
    4.3301   -5.6613    3.3195 H   0  0  0  0  0  0  0  0  0  0  0  0
    6.3254   -4.5950    2.1327 H   0  0  0  0  0  0  0  0  0  0  0  0
    6.0058   -6.1552    1.4212 H   0  0  0  0  0  0  0  0  0  0  0  0
    5.3008   -2.6399    0.8360 H   0  0  0  0  0  0  0  0  0  0  0  0
  1  2  1  0
  1 15  1  0
  1 16  1  0
  1 17  1  0
  2 11  1  0
  2  3  1  0
  2  4  1  0
  3 18  1  0
  3 19  1  0
  3 20  1  0
  4  5  1  0
  5 10  1  0
  5  6  1  0
  5 21  1  6
  6  7  2  0
  6  8  1  0
  8  9  1  0
  8 22  1  0
  9 10  1  0
  9 23  1  0
  9 24  1  0
 10 11  1  0
 11 12  1  0
 11 25  1  1
 12 13  2  0
 12 14  1  0
M  CHG  1  14  -1
M  END
>  <i_m_ct_stereo_status>  (204) 
1

>  <s_m_source_file>  (204) 
/var/tmp/pbs.5076255.sched01/tmp276pg2sv/48_ir7zhrj.sdf

>  <i_m_source_file_index>  (204) 
41

>  <i_lp_mmshare_version>  (204) 
48012

>  <i_f3d_flags>  (204) 
0

>  <s_epik_input>  (204) 
W0NIM11DKFMxKShbQ0gzXSlbQ0BIXShDKD1PKVtPSF0pTihbQ0BIXTEyKVtDSDJdW05IXUMyPU8=

>  <s_epik_cmdline>  (204) 
J2VwaWtfcHl0aG9uJywgJy1waHQnLCAnMi4wJywgJy1waCcsICc3LjAnLCAnLXRuJywgJzgnLCAnLW1hJywgJzIwMCcsICctaW1hZScsICc8aW5maWxlLm1hZT4nLCAnLW9tYWUnLCAnPG91dGZpbGUubWFlPic=

>  <r_lp_tautomer_probability>  (204) 
1

>  <r_epik_Ionization_Penalty>  (204) 
8.56073e-05

>  <r_epik_Ionization_Penalty_Charging>  (204) 
5.2069e-05

>  <r_epik_Ionization_Penalty_Neutral>  (204) 
3.35383e-05

>  <r_epik_State_Penalty>  (204) 
-0

>  <r_epik_Charging_Adjusted_Penalty>  (204) 
5.2069e-05

>  <i_epik_Tot_Q>  (204) 
-1

>  <i_epik_Tot_abs_Q>  (204) 
1

>  <s_epik_Chemistry_Notes>  (204) 
This compound contains an acetal/aminal-like group ( X-CH(R)-Y where X, Y are N, S, or O) that may be acid/base labile, releasing an aldehyde.

>  <s_lp_Force_Field>  (204) 
OPLS3e

>  <r_lp_Energy>  (204) 
-2.12532

>  <b_lp_Chiralities_Consistent>  (204) 
1

>  <s_lp_Variant>  (204) 
55:0-1

>  <s_i_glide_gridfile>  (204) 
pfpi4k_grid

>  <i_i_glide_lignum>  (204) 
41

>  <i_i_glide_rotatable_bonds>  (204) 
1

>  <r_i_docking_score>  (204) 
-3.90753

>  <r_i_glide_ligand_efficiency>  (204) 
-0.279109

>  <r_i_glide_ligand_efficiency_sa>  (204) 
-0.672693

>  <r_i_glide_ligand_efficiency_ln>  (204) 
-1.07378

>  <r_i_glide_gscore>  (204) 
-3.90753

>  <r_i_glide_lipo>  (204) 
-0.280107

>  <r_i_glide_hbond>  (204) 
-0.2

>  <r_i_glide_metal>  (204) 
-0

>  <r_i_glide_rewards>  (204) 
-2.12531

>  <r_i_glide_evdw>  (204) 
-17.6894

>  <r_i_glide_ecoul>  (204) 
-2.78431

>  <r_i_glide_erotb>  (204) 
0

>  <r_i_glide_esite>  (204) 
0

>  <r_i_glide_emodel>  (204) 
-28.1205

>  <r_i_glide_energy>  (204) 
-20.4737

>  <r_i_glide_einternal>  (204) 
0.521653

>  <r_i_glide_intrahb_reward>  (204) 
-0

>  <i_i_glide_confnum>  (204) 
2

>  <i_i_glide_posenum>  (204) 
25

>  <r_i_glide_eff_state_penalty>  (204) 
0

>  <ligand_id>  (204) 
55

>  <original_smiles>  (204) 
CC1(C)SC2C(=O)NCN2C1C(=O)O

>  <smiles>  (204) 
[H]N1C(=O)C2([H])SC(C([H])([H])[H])(C([H])([H])[H])C([H])(C(=O)[O-])N2C1([H])[H]

$$$$
55:0:1
     RDKit          3D

 25 26  0  0  1  0  0  0  0  0999 V2000
   -0.3953    2.6555    6.3197 C   0  0  0  0  0  0  0  0  0  0  0  0
   -0.8458    2.1946    4.9082 C   0  0  0  0  0  0  0  0  0  0  0  0
   -2.1408    2.9226    4.4962 C   0  0  0  0  0  0  0  0  0  0  0  0
    0.4452    2.6294    3.7342 S   0  0  0  0  0  0  0  0  0  0  0  0
    1.3855    1.1001    3.9669 C   0  0  2  0  0  0  0  0  0  0  0  0
    1.8042    0.3760    2.6997 C   0  0  0  0  0  0  0  0  0  0  0  0
    2.3532    0.9115    1.7374 O   0  0  0  0  0  0  0  0  0  0  0  0
    1.5020   -0.9034    2.8119 N   0  0  0  0  0  0  0  0  0  0  0  0
    0.8120   -1.1238    4.0655 C   0  0  0  0  0  0  0  0  0  0  0  0
    0.5487    0.1542    4.7282 N   0  0  0  0  0  0  0  0  0  0  0  0
   -0.8659    0.6447    4.7113 C   0  0  1  0  0  0  0  0  0  0  0  0
   -1.7921   -0.1565    5.6544 C   0  0  0  0  0  0  0  0  0  0  0  0
   -2.3189    0.4368    6.6181 O   0  0  0  0  0  0  0  0  0  0  0  0
   -2.0021   -1.3768    5.3941 O   0  0  0  0  0  0  0  0  0  0  0  0
   -1.1456    2.4983    7.0914 H   0  0  0  0  0  0  0  0  0  0  0  0
   -0.1622    3.7230    6.3337 H   0  0  0  0  0  0  0  0  0  0  0  0
    0.5031    2.1196    6.6287 H   0  0  0  0  0  0  0  0  0  0  0  0
   -2.9642    2.6871    5.1638 H   0  0  0  0  0  0  0  0  0  0  0  0
   -2.4503    2.6822    3.4748 H   0  0  0  0  0  0  0  0  0  0  0  0
   -1.9907    4.0054    4.5342 H   0  0  0  0  0  0  0  0  0  0  0  0
    2.2651    1.3778    4.5445 H   0  0  0  0  0  0  0  0  0  0  0  0
    1.7679   -1.6210    2.1554 H   0  0  0  0  0  0  0  0  0  0  0  0
   -0.0567   -1.7794    3.9246 H   0  0  0  0  0  0  0  0  0  0  0  0
    1.5132   -1.6491    4.7163 H   0  0  0  0  0  0  0  0  0  0  0  0
   -1.2793    0.4522    3.7208 H   0  0  0  0  0  0  0  0  0  0  0  0
  1  2  1  0
  1 15  1  0
  1 16  1  0
  1 17  1  0
  2 11  1  0
  2  3  1  0
  2  4  1  0
  3 18  1  0
  3 19  1  0
  3 20  1  0
  4  5  1  0
  5 10  1  0
  5  6  1  0
  5 21  1  1
  6  7  2  0
  6  8  1  0
  8  9  1  0
  8 22  1  0
  9 10  1  0
  9 23  1  0
  9 24  1  0
 10 11  1  0
 11 12  1  0
 11 25  1  6
 12 13  2  0
 12 14  1  0
M  CHG  1  14  -1
M  END
>  <i_m_ct_stereo_status>  (205) 
1

>  <s_m_source_file>  (205) 
/var/tmp/pbs.5076255.sched01/tmp276pg2sv/48_ir7zhrj.sdf

>  <i_m_source_file_index>  (205) 
41

>  <i_lp_mmshare_version>  (205) 
48012

>  <i_f3d_flags>  (205) 
0

>  <s_epik_input>  (205) 
W0NIM11DKFMxKShbQ0gzXSlbQ0BIXShDKD1PKVtPSF0pTihbQ0BIXTEyKVtDSDJdW05IXUMyPU8=

>  <s_epik_cmdline>  (205) 
J2VwaWtfcHl0aG9uJywgJy1waHQnLCAnMi4wJywgJy1waCcsICc3LjAnLCAnLXRuJywgJzgnLCAnLW1hJywgJzIwMCcsICctaW1hZScsICc8aW5maWxlLm1hZT4nLCAnLW9tYWUnLCAnPG91dGZpbGUubWFlPic=

>  <r_lp_tautomer_probability>  (205) 
1

>  <r_epik_Ionization_Penalty>  (205) 
8.56073e-05

>  <r_epik_Ionization_Penalty_Charging>  (205) 
5.2069e-05

>  <r_epik_Ionization_Penalty_Neutral>  (205) 
3.35383e-05

>  <r_epik_State_Penalty>  (205) 
-0

>  <r_epik_Charging_Adjusted_Penalty>  (205) 
5.2069e-05

>  <i_epik_Tot_Q>  (205) 
-1

>  <i_epik_Tot_abs_Q>  (205) 
1

>  <s_epik_Chemistry_Notes>  (205) 
This compound contains an acetal/aminal-like group ( X-CH(R)-Y where X, Y are N, S, or O) that may be acid/base labile, releasing an aldehyde.

>  <s_lp_Force_Field>  (205) 
OPLS3e

>  <r_lp_Energy>  (205) 
-2.12532

>  <b_lp_Chiralities_Consistent>  (205) 
1

>  <s_lp_Variant>  (205) 
55:0-1

>  <s_i_glide_gridfile>  (205) 
pfpi4k_grid

>  <i_i_glide_lignum>  (205) 
41

>  <i_i_glide_rotatable_bonds>  (205) 
1

>  <r_i_docking_score>  (205) 
-3.83632

>  <r_i_glide_ligand_efficiency>  (205) 
-0.274023

>  <r_i_glide_ligand_efficiency_sa>  (205) 
-0.660435

>  <r_i_glide_ligand_efficiency_ln>  (205) 
-1.05421

>  <r_i_glide_gscore>  (205) 
-3.83632

>  <r_i_glide_lipo>  (205) 
0

>  <r_i_glide_hbond>  (205) 
-0.2

>  <r_i_glide_metal>  (205) 
-0

>  <r_i_glide_rewards>  (205) 
-1.94147

>  <r_i_glide_evdw>  (205) 
-14.9102

>  <r_i_glide_ecoul>  (205) 
-5.49177

>  <r_i_glide_erotb>  (205) 
0

>  <r_i_glide_esite>  (205) 
-0.125572

>  <r_i_glide_emodel>  (205) 
-27.4013

>  <r_i_glide_energy>  (205) 
-20.402

>  <r_i_glide_einternal>  (205) 
2.4532

>  <r_i_glide_intrahb_reward>  (205) 
-0

>  <i_i_glide_confnum>  (205) 
2

>  <i_i_glide_posenum>  (205) 
40

>  <r_i_glide_eff_state_penalty>  (205) 
0

>  <ligand_id>  (205) 
55

>  <original_smiles>  (205) 
CC1(C)SC2C(=O)NCN2C1C(=O)O

>  <smiles>  (205) 
[H]N1C(=O)C2([H])SC(C([H])([H])[H])(C([H])([H])[H])C([H])(C(=O)[O-])N2C1([H])[H]

$$$$
55:0:2
     RDKit          3D

 25 26  0  0  1  0  0  0  0  0999 V2000
   -2.5293    2.8778    4.1640 C   0  0  0  0  0  0  0  0  0  0  0  0
   -1.3226    2.1951    4.8456 C   0  0  0  0  0  0  0  0  0  0  0  0
   -1.7586    1.5878    6.1979 C   0  0  0  0  0  0  0  0  0  0  0  0
   -0.6976    0.8730    3.7886 S   0  0  0  0  0  0  0  0  0  0  0  0
    0.3807    1.9728    2.8272 C   0  0  2  0  0  0  0  0  0  0  0  0
    1.8278    1.5527    2.6697 C   0  0  0  0  0  0  0  0  0  0  0  0
    2.1928    0.4331    2.3594 O   0  0  0  0  0  0  0  0  0  0  0  0
    2.6162    2.5837    2.9407 N   0  0  0  0  0  0  0  0  0  0  0  0
    1.8103    3.6926    3.3810 C   0  0  0  0  0  0  0  0  0  0  0  0
    0.4058    3.2789    3.5185 N   0  0  0  0  0  0  0  0  0  0  0  0
   -0.0786    3.1307    4.9270 C   0  0  1  0  0  0  0  0  0  0  0  0
   -0.3440    4.4823    5.6222 C   0  0  0  0  0  0  0  0  0  0  0  0
   -0.3572    4.4839    6.8722 O   0  0  0  0  0  0  0  0  0  0  0  0
   -0.5443    5.4740    4.8972 O   0  0  0  0  0  0  0  0  0  0  0  0
   -2.9469    3.6680    4.7802 H   0  0  0  0  0  0  0  0  0  0  0  0
   -3.3195    2.1581    3.9575 H   0  0  0  0  0  0  0  0  0  0  0  0
   -2.2517    3.3109    3.2021 H   0  0  0  0  0  0  0  0  0  0  0  0
   -2.1651    2.3413    6.8704 H   0  0  0  0  0  0  0  0  0  0  0  0
   -0.9269    1.0894    6.7005 H   0  0  0  0  0  0  0  0  0  0  0  0
   -2.5356    0.8332    6.0413 H   0  0  0  0  0  0  0  0  0  0  0  0
   -0.0935    2.0780    1.8540 H   0  0  0  0  0  0  0  0  0  0  0  0
    3.6193    2.6088    2.7822 H   0  0  0  0  0  0  0  0  0  0  0  0
    2.2473    4.1976    4.2530 H   0  0  0  0  0  0  0  0  0  0  0  0
    1.8263    4.4227    2.5541 H   0  0  0  0  0  0  0  0  0  0  0  0
    0.6866    2.6194    5.5150 H   0  0  0  0  0  0  0  0  0  0  0  0
  1  2  1  0
  1 15  1  0
  1 16  1  0
  1 17  1  0
  2 11  1  0
  2  3  1  0
  2  4  1  0
  3 18  1  0
  3 19  1  0
  3 20  1  0
  4  5  1  0
  5 10  1  0
  5  6  1  0
  5 21  1  6
  6  7  2  0
  6  8  1  0
  8  9  1  0
  8 22  1  0
  9 10  1  0
  9 23  1  0
  9 24  1  0
 10 11  1  0
 11 12  1  0
 11 25  1  1
 12 13  2  0
 12 14  1  0
M  CHG  1  14  -1
M  END
>  <i_m_ct_stereo_status>  (206) 
1

>  <s_m_source_file>  (206) 
/var/tmp/pbs.5076255.sched01/tmp276pg2sv/48_ir7zhrj.sdf

>  <i_m_source_file_index>  (206) 
41

>  <i_lp_mmshare_version>  (206) 
48012

>  <i_f3d_flags>  (206) 
0

>  <s_epik_input>  (206) 
W0NIM11DKFMxKShbQ0gzXSlbQ0BIXShDKD1PKVtPSF0pTihbQ0BIXTEyKVtDSDJdW05IXUMyPU8=

>  <s_epik_cmdline>  (206) 
J2VwaWtfcHl0aG9uJywgJy1waHQnLCAnMi4wJywgJy1waCcsICc3LjAnLCAnLXRuJywgJzgnLCAnLW1hJywgJzIwMCcsICctaW1hZScsICc8aW5maWxlLm1hZT4nLCAnLW9tYWUnLCAnPG91dGZpbGUubWFlPic=

>  <r_lp_tautomer_probability>  (206) 
1

>  <r_epik_Ionization_Penalty>  (206) 
8.56073e-05

>  <r_epik_Ionization_Penalty_Charging>  (206) 
5.2069e-05

>  <r_epik_Ionization_Penalty_Neutral>  (206) 
3.35383e-05

>  <r_epik_State_Penalty>  (206) 
-0

>  <r_epik_Charging_Adjusted_Penalty>  (206) 
5.2069e-05

>  <i_epik_Tot_Q>  (206) 
-1

>  <i_epik_Tot_abs_Q>  (206) 
1

>  <s_epik_Chemistry_Notes>  (206) 
This compound contains an acetal/aminal-like group ( X-CH(R)-Y where X, Y are N, S, or O) that may be acid/base labile, releasing an aldehyde.

>  <s_lp_Force_Field>  (206) 
OPLS3e

>  <r_lp_Energy>  (206) 
-2.12532

>  <b_lp_Chiralities_Consistent>  (206) 
1

>  <s_lp_Variant>  (206) 
55:0-1

>  <s_i_glide_gridfile>  (206) 
pfpi4k_grid

>  <i_i_glide_lignum>  (206) 
41

>  <i_i_glide_rotatable_bonds>  (206) 
1

>  <r_i_docking_score>  (206) 
-3.53335

>  <r_i_glide_ligand_efficiency>  (206) 
-0.252382

>  <r_i_glide_ligand_efficiency_sa>  (206) 
-0.608276

>  <r_i_glide_ligand_efficiency_ln>  (206) 
-0.970951

>  <r_i_glide_gscore>  (206) 
-3.53335

>  <r_i_glide_lipo>  (206) 
0

>  <r_i_glide_hbond>  (206) 
-0.332448

>  <r_i_glide_metal>  (206) 
-0

>  <r_i_glide_rewards>  (206) 
-1.94306

>  <r_i_glide_evdw>  (206) 
-16.2141

>  <r_i_glide_ecoul>  (206) 
-2.23139

>  <r_i_glide_erotb>  (206) 
0

>  <r_i_glide_esite>  (206) 
-0.112422

>  <r_i_glide_emodel>  (206) 
-25.6501

>  <r_i_glide_energy>  (206) 
-18.4455

>  <r_i_glide_einternal>  (206) 
0.00299024

>  <r_i_glide_intrahb_reward>  (206) 
-0

>  <i_i_glide_confnum>  (206) 
1

>  <i_i_glide_posenum>  (206) 
14

>  <r_i_glide_eff_state_penalty>  (206) 
0

>  <ligand_id>  (206) 
55

>  <original_smiles>  (206) 
CC1(C)SC2C(=O)NCN2C1C(=O)O

>  <smiles>  (206) 
[H]N1C(=O)C2([H])SC(C([H])([H])[H])(C([H])([H])[H])C([H])(C(=O)[O-])N2C1([H])[H]

$$$$
56:0:0
     RDKit          3D

 17 18  0  0  1  0  0  0  0  0999 V2000
    3.1474    0.0021   -5.2231 C   0  0  0  0  0  0  0  0  0  0  0  0
    3.3505   -0.7200   -3.9094 C   0  0  0  0  0  0  0  0  0  0  0  0
    4.2132   -0.1916   -2.9321 C   0  0  0  0  0  0  0  0  0  0  0  0
    4.4761   -0.7376   -1.7531 N   0  0  0  0  0  0  0  0  0  0  0  0
    3.7638   -1.8266   -1.4310 C   0  0  0  0  0  0  0  0  0  0  0  0
    3.8058   -2.5514   -0.3108 N   0  0  0  0  0  0  0  0  0  0  0  0
    2.8814   -3.5692   -0.4880 C   0  0  0  0  0  0  0  0  0  0  0  0
    2.2751   -3.4661   -1.7137 C   0  0  0  0  0  0  0  0  0  0  0  0
    2.8460   -2.3917   -2.3467 N   0  0  0  0  0  0  0  0  0  0  0  0
    2.6553   -1.8640   -3.5881 C   0  0  0  0  0  0  0  0  0  0  0  0
    3.7734    0.8923   -5.2863 H   0  0  0  0  0  0  0  0  0  0  0  0
    2.1103    0.3171   -5.3443 H   0  0  0  0  0  0  0  0  0  0  0  0
    3.4141   -0.6556   -6.0471 H   0  0  0  0  0  0  0  0  0  0  0  0
    4.6966    0.7550   -3.1214 H   0  0  0  0  0  0  0  0  0  0  0  0
    2.7524   -4.3302    0.2683 H   0  0  0  0  0  0  0  0  0  0  0  0
    1.5722   -4.0863   -2.2487 H   0  0  0  0  0  0  0  0  0  0  0  0
    1.9204   -2.3320   -4.2410 H   0  0  0  0  0  0  0  0  0  0  0  0
  1  2  1  0
  1 11  1  0
  1 12  1  0
  1 13  1  0
  2 10  2  0
  2  3  1  0
  3  4  2  0
  3 14  1  0
  4  5  1  0
  5  9  1  0
  5  6  2  0
  6  7  1  0
  7  8  2  0
  7 15  1  0
  8  9  1  0
  8 16  1  0
  9 10  1  0
 10 17  1  0
M  END
>  <i_m_ct_stereo_status>  (207) 
1

>  <s_m_source_file>  (207) 
/var/tmp/pbs.5076255.sched01/tmp276pg2sv/48_ir7zhrj.sdf

>  <i_m_source_file_index>  (207) 
42

>  <i_lp_mmshare_version>  (207) 
48012

>  <i_f3d_flags>  (207) 
0

>  <s_epik_input>  (207) 
bjFbY0hdYyhbQ0gzXSlbY0hdbihjMTIpW2NIXVtjSF1uMg==

>  <s_epik_cmdline>  (207) 
J2VwaWtfcHl0aG9uJywgJy1waHQnLCAnMi4wJywgJy1waCcsICc3LjAnLCAnLXRuJywgJzgnLCAnLW1hJywgJzIwMCcsICctaW1hZScsICc8aW5maWxlLm1hZT4nLCAnLW9tYWUnLCAnPG91dGZpbGUubWFlPic=

>  <r_epik_Ionization_Penalty>  (207) 
0.00041242

>  <r_epik_Ionization_Penalty_Charging>  (207) 
0.00041242

>  <r_epik_Ionization_Penalty_Neutral>  (207) 
4.36195e-12

>  <r_epik_State_Penalty>  (207) 
0.000253287

>  <r_epik_Charging_Adjusted_Penalty>  (207) 
0.000665707

>  <i_epik_Tot_Q>  (207) 
0

>  <i_epik_Tot_abs_Q>  (207) 
0

>  <s_lp_Force_Field>  (207) 
OPLS3e

>  <r_lp_Energy>  (207) 
13.3267

>  <b_lp_Chiralities_Consistent>  (207) 
1

>  <s_lp_Variant>  (207) 
56:0-1

>  <s_i_glide_gridfile>  (207) 
pfpi4k_grid

>  <i_i_glide_lignum>  (207) 
42

>  <i_i_glide_rotatable_bonds>  (207) 
0

>  <r_i_docking_score>  (207) 
-4.14596

>  <r_i_glide_ligand_efficiency>  (207) 
-0.414596

>  <r_i_glide_ligand_efficiency_sa>  (207) 
-0.89322

>  <r_i_glide_ligand_efficiency_ln>  (207) 
-1.25537

>  <r_i_glide_gscore>  (207) 
-4.14596

>  <r_i_glide_lipo>  (207) 
-0.825335

>  <r_i_glide_hbond>  (207) 
0

>  <r_i_glide_metal>  (207) 
-0

>  <r_i_glide_rewards>  (207) 
-2.25

>  <r_i_glide_evdw>  (207) 
-15.4059

>  <r_i_glide_ecoul>  (207) 
-1.22761

>  <r_i_glide_erotb>  (207) 
0

>  <r_i_glide_esite>  (207) 
-0.116193

>  <r_i_glide_emodel>  (207) 
-22.2793

>  <r_i_glide_energy>  (207) 
-16.6335

>  <r_i_glide_einternal>  (207) 
0

>  <r_i_glide_intrahb_reward>  (207) 
-0

>  <i_i_glide_confnum>  (207) 
2

>  <i_i_glide_posenum>  (207) 
37

>  <r_i_glide_eff_state_penalty>  (207) 
0

>  <ligand_id>  (207) 
56

>  <original_smiles>  (207) 
Cc1cnc2nccn2c1

>  <smiles>  (207) 
[H]c1nc2nc([H])c([H])n2c([H])c1C([H])([H])[H]

$$$$
56:0:1
     RDKit          3D

 17 18  0  0  1  0  0  0  0  0999 V2000
    0.7439   -0.1108    2.2117 C   0  0  0  0  0  0  0  0  0  0  0  0
   -0.0430    0.1559    3.4844 C   0  0  0  0  0  0  0  0  0  0  0  0
   -0.3219   -0.8843    4.4091 C   0  0  0  0  0  0  0  0  0  0  0  0
   -1.0254   -0.7212    5.5259 N   0  0  0  0  0  0  0  0  0  0  0  0
   -1.4633    0.5231    5.7964 C   0  0  0  0  0  0  0  0  0  0  0  0
   -2.1593    0.9434    6.8565 N   0  0  0  0  0  0  0  0  0  0  0  0
   -2.3647    2.3033    6.6706 C   0  0  0  0  0  0  0  0  0  0  0  0
   -1.8025    2.7204    5.4946 C   0  0  0  0  0  0  0  0  0  0  0  0
   -1.2163    1.6054    4.9185 N   0  0  0  0  0  0  0  0  0  0  0  0
   -0.5140    1.4195    3.7625 C   0  0  0  0  0  0  0  0  0  0  0  0
    1.0267   -1.1597    2.1359 H   0  0  0  0  0  0  0  0  0  0  0  0
    1.6564    0.4851    2.1905 H   0  0  0  0  0  0  0  0  0  0  0  0
    0.1544    0.1429    1.3294 H   0  0  0  0  0  0  0  0  0  0  0  0
    0.0297   -1.8924    4.2057 H   0  0  0  0  0  0  0  0  0  0  0  0
   -2.9210    2.8671    7.4051 H   0  0  0  0  0  0  0  0  0  0  0  0
   -1.7479    3.6758    4.9974 H   0  0  0  0  0  0  0  0  0  0  0  0
   -0.3540    2.2802    3.1149 H   0  0  0  0  0  0  0  0  0  0  0  0
  1  2  1  0
  1 11  1  0
  1 12  1  0
  1 13  1  0
  2 10  2  0
  2  3  1  0
  3  4  2  0
  3 14  1  0
  4  5  1  0
  5  9  1  0
  5  6  2  0
  6  7  1  0
  7  8  2  0
  7 15  1  0
  8  9  1  0
  8 16  1  0
  9 10  1  0
 10 17  1  0
M  END
>  <i_m_ct_stereo_status>  (208) 
1

>  <s_m_source_file>  (208) 
/var/tmp/pbs.5076255.sched01/tmp276pg2sv/48_ir7zhrj.sdf

>  <i_m_source_file_index>  (208) 
42

>  <i_lp_mmshare_version>  (208) 
48012

>  <i_f3d_flags>  (208) 
0

>  <s_epik_input>  (208) 
bjFbY0hdYyhbQ0gzXSlbY0hdbihjMTIpW2NIXVtjSF1uMg==

>  <s_epik_cmdline>  (208) 
J2VwaWtfcHl0aG9uJywgJy1waHQnLCAnMi4wJywgJy1waCcsICc3LjAnLCAnLXRuJywgJzgnLCAnLW1hJywgJzIwMCcsICctaW1hZScsICc8aW5maWxlLm1hZT4nLCAnLW9tYWUnLCAnPG91dGZpbGUubWFlPic=

>  <r_epik_Ionization_Penalty>  (208) 
0.00041242

>  <r_epik_Ionization_Penalty_Charging>  (208) 
0.00041242

>  <r_epik_Ionization_Penalty_Neutral>  (208) 
4.36195e-12

>  <r_epik_State_Penalty>  (208) 
0.000253287

>  <r_epik_Charging_Adjusted_Penalty>  (208) 
0.000665707

>  <i_epik_Tot_Q>  (208) 
0

>  <i_epik_Tot_abs_Q>  (208) 
0

>  <s_lp_Force_Field>  (208) 
OPLS3e

>  <r_lp_Energy>  (208) 
13.3267

>  <b_lp_Chiralities_Consistent>  (208) 
1

>  <s_lp_Variant>  (208) 
56:0-1

>  <s_i_glide_gridfile>  (208) 
pfpi4k_grid

>  <i_i_glide_lignum>  (208) 
42

>  <i_i_glide_rotatable_bonds>  (208) 
0

>  <r_i_docking_score>  (208) 
-4.02827

>  <r_i_glide_ligand_efficiency>  (208) 
-0.402827

>  <r_i_glide_ligand_efficiency_sa>  (208) 
-0.867865

>  <r_i_glide_ligand_efficiency_ln>  (208) 
-1.21973

>  <r_i_glide_gscore>  (208) 
-4.02827

>  <r_i_glide_lipo>  (208) 
-0.105359

>  <r_i_glide_hbond>  (208) 
-0.16

>  <r_i_glide_metal>  (208) 
-0

>  <r_i_glide_rewards>  (208) 
-2.25

>  <r_i_glide_evdw>  (208) 
-11.6187

>  <r_i_glide_ecoul>  (208) 
-5.74286

>  <r_i_glide_erotb>  (208) 
0

>  <r_i_glide_esite>  (208) 
-0.0705505

>  <r_i_glide_emodel>  (208) 
-22.9096

>  <r_i_glide_energy>  (208) 
-17.3615

>  <r_i_glide_einternal>  (208) 
0

>  <r_i_glide_intrahb_reward>  (208) 
-0

>  <i_i_glide_confnum>  (208) 
1

>  <i_i_glide_posenum>  (208) 
3

>  <r_i_glide_eff_state_penalty>  (208) 
0

>  <ligand_id>  (208) 
56

>  <original_smiles>  (208) 
Cc1cnc2nccn2c1

>  <smiles>  (208) 
[H]c1nc2nc([H])c([H])n2c([H])c1C([H])([H])[H]

$$$$
56:0:2
     RDKit          3D

 17 18  0  0  1  0  0  0  0  0999 V2000
    3.4926   -0.1251   -4.6988 C   0  0  0  0  0  0  0  0  0  0  0  0
    3.4798   -1.0484   -3.4948 C   0  0  0  0  0  0  0  0  0  0  0  0
    2.6868   -2.2253   -3.4745 C   0  0  0  0  0  0  0  0  0  0  0  0
    2.6157   -3.0579   -2.4461 N   0  0  0  0  0  0  0  0  0  0  0  0
    3.3400   -2.7535   -1.3548 C   0  0  0  0  0  0  0  0  0  0  0  0
    3.4451   -3.4276   -0.2081 N   0  0  0  0  0  0  0  0  0  0  0  0
    4.3216   -2.7028    0.5925 C   0  0  0  0  0  0  0  0  0  0  0  0
    4.7625   -1.5817   -0.0588 C   0  0  0  0  0  0  0  0  0  0  0  0
    4.1538   -1.5922   -1.3067 N   0  0  0  0  0  0  0  0  0  0  0  0
    4.2165   -0.7450   -2.3733 C   0  0  0  0  0  0  0  0  0  0  0  0
    2.8530   -0.5023   -5.4906 H   0  0  0  0  0  0  0  0  0  0  0  0
    4.4993   -0.0400   -5.0983 H   0  0  0  0  0  0  0  0  0  0  0  0
    3.1360    0.8690   -4.4310 H   0  0  0  0  0  0  0  0  0  0  0  0
    2.0716   -2.4857   -4.3295 H   0  0  0  0  0  0  0  0  0  0  0  0
    4.5632   -3.0532    1.5877 H   0  0  0  0  0  0  0  0  0  0  0  0
    5.4271   -0.7799    0.2293 H   0  0  0  0  0  0  0  0  0  0  0  0
    4.8353    0.1410   -2.2775 H   0  0  0  0  0  0  0  0  0  0  0  0
  1  2  1  0
  1 11  1  0
  1 12  1  0
  1 13  1  0
  2 10  2  0
  2  3  1  0
  3  4  2  0
  3 14  1  0
  4  5  1  0
  5  9  1  0
  5  6  2  0
  6  7  1  0
  7  8  2  0
  7 15  1  0
  8  9  1  0
  8 16  1  0
  9 10  1  0
 10 17  1  0
M  END
>  <i_m_ct_stereo_status>  (209) 
1

>  <s_m_source_file>  (209) 
/var/tmp/pbs.5076255.sched01/tmp276pg2sv/48_ir7zhrj.sdf

>  <i_m_source_file_index>  (209) 
42

>  <i_lp_mmshare_version>  (209) 
48012

>  <i_f3d_flags>  (209) 
0

>  <s_epik_input>  (209) 
bjFbY0hdYyhbQ0gzXSlbY0hdbihjMTIpW2NIXVtjSF1uMg==

>  <s_epik_cmdline>  (209) 
J2VwaWtfcHl0aG9uJywgJy1waHQnLCAnMi4wJywgJy1waCcsICc3LjAnLCAnLXRuJywgJzgnLCAnLW1hJywgJzIwMCcsICctaW1hZScsICc8aW5maWxlLm1hZT4nLCAnLW9tYWUnLCAnPG91dGZpbGUubWFlPic=

>  <r_epik_Ionization_Penalty>  (209) 
0.00041242

>  <r_epik_Ionization_Penalty_Charging>  (209) 
0.00041242

>  <r_epik_Ionization_Penalty_Neutral>  (209) 
4.36195e-12

>  <r_epik_State_Penalty>  (209) 
0.000253287

>  <r_epik_Charging_Adjusted_Penalty>  (209) 
0.000665707

>  <i_epik_Tot_Q>  (209) 
0

>  <i_epik_Tot_abs_Q>  (209) 
0

>  <s_lp_Force_Field>  (209) 
OPLS3e

>  <r_lp_Energy>  (209) 
13.3267

>  <b_lp_Chiralities_Consistent>  (209) 
1

>  <s_lp_Variant>  (209) 
56:0-1

>  <s_i_glide_gridfile>  (209) 
pfpi4k_grid

>  <i_i_glide_lignum>  (209) 
42

>  <i_i_glide_rotatable_bonds>  (209) 
0

>  <r_i_docking_score>  (209) 
-3.74396

>  <r_i_glide_ligand_efficiency>  (209) 
-0.374396

>  <r_i_glide_ligand_efficiency_sa>  (209) 
-0.806612

>  <r_i_glide_ligand_efficiency_ln>  (209) 
-1.13365

>  <r_i_glide_gscore>  (209) 
-3.74396

>  <r_i_glide_lipo>  (209) 
-0.656671

>  <r_i_glide_hbond>  (209) 
0

>  <r_i_glide_metal>  (209) 
-0

>  <r_i_glide_rewards>  (209) 
-2.25

>  <r_i_glide_evdw>  (209) 
-18.2452

>  <r_i_glide_ecoul>  (209) 
0.955907

>  <r_i_glide_erotb>  (209) 
0

>  <r_i_glide_esite>  (209) 
-0.0684158

>  <r_i_glide_emodel>  (209) 
-22.4462

>  <r_i_glide_energy>  (209) 
-17.2893

>  <r_i_glide_einternal>  (209) 
0

>  <r_i_glide_intrahb_reward>  (209) 
-0

>  <i_i_glide_confnum>  (209) 
1

>  <i_i_glide_posenum>  (209) 
15

>  <r_i_glide_eff_state_penalty>  (209) 
0

>  <ligand_id>  (209) 
56

>  <original_smiles>  (209) 
Cc1cnc2nccn2c1

>  <smiles>  (209) 
[H]c1nc2nc([H])c([H])n2c([H])c1C([H])([H])[H]

$$$$
57:0:0
     RDKit          3D

 38 43  0  0  1  0  0  0  0  0999 V2000
    6.0994    1.5693    6.8104 O   0  0  0  0  0  0  0  0  0  0  0  0
    5.0477    1.4795    6.1860 C   0  0  0  0  0  0  0  0  0  0  0  0
    3.8498    2.2300    6.5638 C   0  0  0  0  0  0  0  0  0  0  0  0
    2.7507    2.1950    5.7967 C   0  0  0  0  0  0  0  0  0  0  0  0
    2.6454    1.4608    4.5167 C   0  0  0  0  0  0  0  0  0  0  0  0
    3.7643    0.7014    4.0531 C   0  0  0  0  0  0  0  0  0  0  0  0
    3.7288    0.0765    2.7598 C   0  0  0  0  0  0  0  0  0  0  0  0
    4.6794   -0.6482    1.9187 C   0  0  0  0  0  0  0  0  0  0  0  0
    6.0514   -0.9960    1.9279 C   0  0  0  0  0  0  0  0  0  0  0  0
    6.6403   -1.7282    0.8785 C   0  0  0  0  0  0  0  0  0  0  0  0
    5.8635   -2.1499   -0.2124 C   0  0  0  0  0  0  0  0  0  0  0  0
    4.4980   -1.7971   -0.2815 C   0  0  0  0  0  0  0  0  0  0  0  0
    3.9195   -1.0444    0.7545 C   0  0  0  0  0  0  0  0  0  0  0  0
    2.6378   -0.5283    0.9199 N   0  0  0  0  0  0  0  0  0  0  0  0
    2.5282    0.1434    2.0641 C   0  0  0  0  0  0  0  0  0  0  0  0
    1.4185    0.8354    2.5496 C   0  0  0  0  0  0  0  0  0  0  0  0
    0.2282    0.9946    1.9811 N   0  0  0  0  0  0  0  0  0  0  0  0
   -0.6087    1.7750    2.7764 C   0  0  0  0  0  0  0  0  0  0  0  0
   -1.9292    2.2041    2.5987 C   0  0  0  0  0  0  0  0  0  0  0  0
   -2.5509    3.0037    3.5790 C   0  0  0  0  0  0  0  0  0  0  0  0
   -1.8458    3.3694    4.7402 C   0  0  0  0  0  0  0  0  0  0  0  0
   -0.5142    2.9458    4.9205 C   0  0  0  0  0  0  0  0  0  0  0  0
    0.1421    2.1442    3.9551 C   0  0  0  0  0  0  0  0  0  0  0  0
    1.4392    1.5169    3.7590 C   0  0  0  0  0  0  0  0  0  0  0  0
    4.9370    0.5423    4.9693 C   0  0  0  0  0  0  0  0  0  0  0  0
    5.7957   -0.3264    4.8531 O   0  0  0  0  0  0  0  0  0  0  0  0
    1.8403   -0.6271    0.2761 H   0  0  0  0  0  0  0  0  0  0  0  0
    0.0548    0.6088    1.0555 H   0  0  0  0  0  0  0  0  0  0  0  0
    3.8769    2.7888    7.4834 H   0  0  0  0  0  0  0  0  0  0  0  0
    1.9020    2.7700    6.1341 H   0  0  0  0  0  0  0  0  0  0  0  0
    6.6832   -0.6496    2.7270 H   0  0  0  0  0  0  0  0  0  0  0  0
    7.6896   -1.9546    0.9223 H   0  0  0  0  0  0  0  0  0  0  0  0
    6.3069   -2.7313   -1.0028 H   0  0  0  0  0  0  0  0  0  0  0  0
    3.8876   -2.0956   -1.1199 H   0  0  0  0  0  0  0  0  0  0  0  0
   -2.4694    1.8989    1.7121 H   0  0  0  0  0  0  0  0  0  0  0  0
   -3.5689    3.3194    3.4312 H   0  0  0  0  0  0  0  0  0  0  0  0
   -2.3100    3.9663    5.5040 H   0  0  0  0  0  0  0  0  0  0  0  0
   -0.0078    3.2396    5.8229 H   0  0  0  0  0  0  0  0  0  0  0  0
  1  2  2  0
  2 25  1  0
  2  3  1  0
  3  4  2  0
  3 29  1  0
  4  5  1  0
  4 30  1  0
  5 24  2  0
  5  6  1  0
  6  7  2  0
  6 25  1  0
  7 15  1  0
  7  8  1  0
  8 13  2  0
  8  9  1  0
  9 10  2  0
  9 31  1  0
 10 11  1  0
 10 32  1  0
 11 12  2  0
 11 33  1  0
 12 13  1  0
 12 34  1  0
 13 14  1  0
 14 27  1  0
 14 15  1  0
 15 16  2  0
 16 24  1  0
 16 17  1  0
 17 28  1  0
 17 18  1  0
 18 23  2  0
 18 19  1  0
 19 20  2  0
 19 35  1  0
 20 21  1  0
 20 36  1  0
 21 22  2  0
 21 37  1  0
 22 23  1  0
 22 38  1  0
 23 24  1  0
 25 26  2  0
M  END
>  <i_m_ct_stereo_status>  (210) 
1

>  <s_m_source_file>  (210) 
/var/tmp/pbs.5076255.sched01/tmp276pg2sv/48_ir7zhrj.sdf

>  <i_m_source_file_index>  (210) 
43

>  <i_lp_mmshare_version>  (210) 
48012

>  <i_f3d_flags>  (210) 
0

>  <s_epik_input>  (210) 
W0NIXTE9W0NIXUMoPU8pQyg9TyljKGMxMiljM2M0YyhbY0hdW2NIXVtjSF1bY0hdNClbbkhdYzNjNWMyYzZjKFtuSF01KVtjSF1bY0hdW2NIXVtjSF02

>  <s_epik_cmdline>  (210) 
J2VwaWtfcHl0aG9uJywgJy1waHQnLCAnMi4wJywgJy1waCcsICc3LjAnLCAnLXRuJywgJzgnLCAnLW1hJywgJzIwMCcsICctaW1hZScsICc8aW5maWxlLm1hZT4nLCAnLW9tYWUnLCAnPG91dGZpbGUubWFlPic=

>  <r_lp_tautomer_probability>  (210) 
1

>  <r_epik_Ionization_Penalty>  (210) 
4.34426e-09

>  <r_epik_Ionization_Penalty_Charging>  (210) 
0

>  <r_epik_Ionization_Penalty_Neutral>  (210) 
4.34426e-09

>  <r_epik_State_Penalty>  (210) 
-0

>  <r_epik_Charging_Adjusted_Penalty>  (210) 
0

>  <i_epik_Tot_Q>  (210) 
0

>  <i_epik_Tot_abs_Q>  (210) 
0

>  <s_lp_Force_Field>  (210) 
OPLS3e

>  <r_lp_Energy>  (210) 
48.4213

>  <b_lp_Chiralities_Consistent>  (210) 
1

>  <s_lp_Variant>  (210) 
57:0-1

>  <s_i_glide_gridfile>  (210) 
pfpi4k_grid

>  <i_i_glide_lignum>  (210) 
43

>  <i_i_glide_rotatable_bonds>  (210) 
0

>  <r_i_docking_score>  (210) 
-3.84024

>  <r_i_glide_ligand_efficiency>  (210) 
-0.147702

>  <r_i_glide_ligand_efficiency_sa>  (210) 
-0.437566

>  <r_i_glide_ligand_efficiency_ln>  (210) 
-0.901869

>  <r_i_glide_gscore>  (210) 
-3.84024

>  <r_i_glide_lipo>  (210) 
-0.265109

>  <r_i_glide_hbond>  (210) 
-0.245499

>  <r_i_glide_metal>  (210) 
-0

>  <r_i_glide_rewards>  (210) 
-1.20365

>  <r_i_glide_evdw>  (210) 
-23.1244

>  <r_i_glide_ecoul>  (210) 
-5.5115

>  <r_i_glide_erotb>  (210) 
0

>  <r_i_glide_esite>  (210) 
-0.143039

>  <r_i_glide_emodel>  (210) 
-36.6016

>  <r_i_glide_energy>  (210) 
-28.6359

>  <r_i_glide_einternal>  (210) 
0

>  <r_i_glide_intrahb_reward>  (210) 
-0

>  <i_i_glide_confnum>  (210) 
1

>  <i_i_glide_posenum>  (210) 
8

>  <r_i_glide_eff_state_penalty>  (210) 
0

>  <ligand_id>  (210) 
57

>  <original_smiles>  (210) 
O=C1C=Cc2c(c3c4ccccc4[nH]c3c3[nH]c4ccccc4c23)C1=O

>  <smiles>  (210) 
[H]C1=C([H])c2c(c3c4c([H])c([H])c([H])c([H])c4n([H])c3c3c2c2c([H])c([H])c([H])c([H])c2n3[H])C(=O)C1=O

$$$$
57:0:1
     RDKit          3D

 38 43  0  0  1  0  0  0  0  0999 V2000
   -0.9392   -4.0697    7.8967 O   0  0  0  0  0  0  0  0  0  0  0  0
   -0.2272   -3.9505    6.9032 C   0  0  0  0  0  0  0  0  0  0  0  0
    0.5301   -5.0555    6.3282 C   0  0  0  0  0  0  0  0  0  0  0  0
    1.2046   -4.8981    5.1766 C   0  0  0  0  0  0  0  0  0  0  0  0
    1.2321   -3.6501    4.3823 C   0  0  0  0  0  0  0  0  0  0  0  0
    0.5145   -2.5158    4.8538 C   0  0  0  0  0  0  0  0  0  0  0  0
    0.4173   -1.3225    4.0662 C   0  0  0  0  0  0  0  0  0  0  0  0
   -0.3186   -0.0664    4.1479 C   0  0  0  0  0  0  0  0  0  0  0  0
   -1.3015    0.5489    4.9626 C   0  0  0  0  0  0  0  0  0  0  0  0
   -1.7687    1.8587    4.7171 C   0  0  0  0  0  0  0  0  0  0  0  0
   -1.2779    2.5834    3.6139 C   0  0  0  0  0  0  0  0  0  0  0  0
   -0.3408    1.9841    2.7474 C   0  0  0  0  0  0  0  0  0  0  0  0
    0.1259    0.6866    2.9936 C   0  0  0  0  0  0  0  0  0  0  0  0
    0.9972   -0.1329    2.2902 N   0  0  0  0  0  0  0  0  0  0  0  0
    1.1650   -1.3069    2.8963 C   0  0  0  0  0  0  0  0  0  0  0  0
    1.9131   -2.4015    2.4588 C   0  0  0  0  0  0  0  0  0  0  0  0
    2.6195   -2.5377    1.3398 N   0  0  0  0  0  0  0  0  0  0  0  0
    3.1920   -3.8021    1.2404 C   0  0  0  0  0  0  0  0  0  0  0  0
    4.0120   -4.3895    0.2671 C   0  0  0  0  0  0  0  0  0  0  0  0
    4.4733   -5.7140    0.4328 C   0  0  0  0  0  0  0  0  0  0  0  0
    4.0976   -6.4494    1.5738 C   0  0  0  0  0  0  0  0  0  0  0  0
    3.2599   -5.8650    2.5473 C   0  0  0  0  0  0  0  0  0  0  0  0
    2.7855   -4.5364    2.4215 C   0  0  0  0  0  0  0  0  0  0  0  0
    1.9615   -3.6016    3.1590 C   0  0  0  0  0  0  0  0  0  0  0  0
   -0.0922   -2.5733    6.2156 C   0  0  0  0  0  0  0  0  0  0  0  0
   -0.4396   -1.5900    6.8699 O   0  0  0  0  0  0  0  0  0  0  0  0
    1.4358    0.0143    1.3865 H   0  0  0  0  0  0  0  0  0  0  0  0
    2.6225   -1.7649    0.6793 H   0  0  0  0  0  0  0  0  0  0  0  0
    0.5448   -5.9872    6.8668 H   0  0  0  0  0  0  0  0  0  0  0  0
    1.7474   -5.7536    4.8029 H   0  0  0  0  0  0  0  0  0  0  0  0
   -1.7297    0.0018    5.7897 H   0  0  0  0  0  0  0  0  0  0  0  0
   -2.5041    2.2857    5.3807 H   0  0  0  0  0  0  0  0  0  0  0  0
   -1.6210    3.5887    3.4111 H   0  0  0  0  0  0  0  0  0  0  0  0
    0.0299    2.5239    1.8844 H   0  0  0  0  0  0  0  0  0  0  0  0
    4.2953   -3.8161   -0.6096 H   0  0  0  0  0  0  0  0  0  0  0  0
    5.1118   -6.1601   -0.3159 H   0  0  0  0  0  0  0  0  0  0  0  0
    4.4435   -7.4609    1.7270 H   0  0  0  0  0  0  0  0  0  0  0  0
    3.0007   -6.4559    3.4160 H   0  0  0  0  0  0  0  0  0  0  0  0
  1  2  2  0
  2 25  1  0
  2  3  1  0
  3  4  2  0
  3 29  1  0
  4  5  1  0
  4 30  1  0
  5 24  2  0
  5  6  1  0
  6  7  2  0
  6 25  1  0
  7 15  1  0
  7  8  1  0
  8 13  2  0
  8  9  1  0
  9 10  2  0
  9 31  1  0
 10 11  1  0
 10 32  1  0
 11 12  2  0
 11 33  1  0
 12 13  1  0
 12 34  1  0
 13 14  1  0
 14 27  1  0
 14 15  1  0
 15 16  2  0
 16 24  1  0
 16 17  1  0
 17 28  1  0
 17 18  1  0
 18 23  2  0
 18 19  1  0
 19 20  2  0
 19 35  1  0
 20 21  1  0
 20 36  1  0
 21 22  2  0
 21 37  1  0
 22 23  1  0
 22 38  1  0
 23 24  1  0
 25 26  2  0
M  END
>  <i_m_ct_stereo_status>  (211) 
1

>  <s_m_source_file>  (211) 
/var/tmp/pbs.5076255.sched01/tmp276pg2sv/48_ir7zhrj.sdf

>  <i_m_source_file_index>  (211) 
43

>  <i_lp_mmshare_version>  (211) 
48012

>  <i_f3d_flags>  (211) 
0

>  <s_epik_input>  (211) 
W0NIXTE9W0NIXUMoPU8pQyg9TyljKGMxMiljM2M0YyhbY0hdW2NIXVtjSF1bY0hdNClbbkhdYzNjNWMyYzZjKFtuSF01KVtjSF1bY0hdW2NIXVtjSF02

>  <s_epik_cmdline>  (211) 
J2VwaWtfcHl0aG9uJywgJy1waHQnLCAnMi4wJywgJy1waCcsICc3LjAnLCAnLXRuJywgJzgnLCAnLW1hJywgJzIwMCcsICctaW1hZScsICc8aW5maWxlLm1hZT4nLCAnLW9tYWUnLCAnPG91dGZpbGUubWFlPic=

>  <r_lp_tautomer_probability>  (211) 
1

>  <r_epik_Ionization_Penalty>  (211) 
4.34426e-09

>  <r_epik_Ionization_Penalty_Charging>  (211) 
0

>  <r_epik_Ionization_Penalty_Neutral>  (211) 
4.34426e-09

>  <r_epik_State_Penalty>  (211) 
-0

>  <r_epik_Charging_Adjusted_Penalty>  (211) 
0

>  <i_epik_Tot_Q>  (211) 
0

>  <i_epik_Tot_abs_Q>  (211) 
0

>  <s_lp_Force_Field>  (211) 
OPLS3e

>  <r_lp_Energy>  (211) 
48.4213

>  <b_lp_Chiralities_Consistent>  (211) 
1

>  <s_lp_Variant>  (211) 
57:0-1

>  <s_i_glide_gridfile>  (211) 
pfpi4k_grid

>  <i_i_glide_lignum>  (211) 
43

>  <i_i_glide_rotatable_bonds>  (211) 
0

>  <r_i_docking_score>  (211) 
-3.07556

>  <r_i_glide_ligand_efficiency>  (211) 
-0.118291

>  <r_i_glide_ligand_efficiency_sa>  (211) 
-0.350436

>  <r_i_glide_ligand_efficiency_ln>  (211) 
-0.722286

>  <r_i_glide_gscore>  (211) 
-3.07556

>  <r_i_glide_lipo>  (211) 
-0.191088

>  <r_i_glide_hbond>  (211) 
0

>  <r_i_glide_metal>  (211) 
-0

>  <r_i_glide_rewards>  (211) 
-1.11584

>  <r_i_glide_evdw>  (211) 
-23.6163

>  <r_i_glide_ecoul>  (211) 
-3.0874

>  <r_i_glide_erotb>  (211) 
0

>  <r_i_glide_esite>  (211) 
-0.124708

>  <r_i_glide_emodel>  (211) 
-33.0749

>  <r_i_glide_energy>  (211) 
-26.7037

>  <r_i_glide_einternal>  (211) 
0

>  <r_i_glide_intrahb_reward>  (211) 
-0

>  <i_i_glide_confnum>  (211) 
1

>  <i_i_glide_posenum>  (211) 
2

>  <r_i_glide_eff_state_penalty>  (211) 
0

>  <ligand_id>  (211) 
57

>  <original_smiles>  (211) 
O=C1C=Cc2c(c3c4ccccc4[nH]c3c3[nH]c4ccccc4c23)C1=O

>  <smiles>  (211) 
[H]C1=C([H])c2c(c3c4c([H])c([H])c([H])c([H])c4n([H])c3c3c2c2c([H])c([H])c([H])c([H])c2n3[H])C(=O)C1=O

$$$$
57:0:2
     RDKit          3D

 38 43  0  0  1  0  0  0  0  0999 V2000
   -0.7470   -3.9386    6.6350 O   0  0  0  0  0  0  0  0  0  0  0  0
    0.0002   -3.4060    5.8184 C   0  0  0  0  0  0  0  0  0  0  0  0
    0.9594   -4.1641    5.0129 C   0  0  0  0  0  0  0  0  0  0  0  0
    1.6754   -3.5616    4.0528 C   0  0  0  0  0  0  0  0  0  0  0  0
    1.5544   -2.1347    3.6865 C   0  0  0  0  0  0  0  0  0  0  0  0
    0.6351   -1.3104    4.4034 C   0  0  0  0  0  0  0  0  0  0  0  0
    0.4162    0.0463    3.9965 C   0  0  0  0  0  0  0  0  0  0  0  0
   -0.4929    1.1198    4.3892 C   0  0  0  0  0  0  0  0  0  0  0  0
   -1.5961    1.3065    5.2509 C   0  0  0  0  0  0  0  0  0  0  0  0
   -2.2204    2.5591    5.3770 C   0  0  0  0  0  0  0  0  0  0  0  0
   -1.7866    3.6509    4.6117 C   0  0  0  0  0  0  0  0  0  0  0  0
   -0.7212    3.5000    3.7029 C   0  0  0  0  0  0  0  0  0  0  0  0
   -0.0903    2.2530    3.5837 C   0  0  0  0  0  0  0  0  0  0  0  0
    0.9355    1.8139    2.7568 N   0  0  0  0  0  0  0  0  0  0  0  0
    1.2212    0.5343    2.9767 C   0  0  0  0  0  0  0  0  0  0  0  0
    2.1595   -0.2606    2.3179 C   0  0  0  0  0  0  0  0  0  0  0  0
    2.9741    0.0725    1.3236 N   0  0  0  0  0  0  0  0  0  0  0  0
    3.7455   -1.0109    0.9085 C   0  0  0  0  0  0  0  0  0  0  0  0
    4.7206   -1.1374   -0.0932 C   0  0  0  0  0  0  0  0  0  0  0  0
    5.3625   -2.3786   -0.2911 C   0  0  0  0  0  0  0  0  0  0  0  0
    5.0217   -3.4842    0.5153 C   0  0  0  0  0  0  0  0  0  0  0  0
    4.0366   -3.3585    1.5156 C   0  0  0  0  0  0  0  0  0  0  0  0
    3.3701   -2.1328    1.7419 C   0  0  0  0  0  0  0  0  0  0  0  0
    2.3461   -1.5992    2.6274 C   0  0  0  0  0  0  0  0  0  0  0  0
   -0.0415   -1.8834    5.6103 C   0  0  0  0  0  0  0  0  0  0  0  0
   -0.5885   -1.2167    6.4862 O   0  0  0  0  0  0  0  0  0  0  0  0
    1.4202    2.3429    2.0411 H   0  0  0  0  0  0  0  0  0  0  0  0
    2.9464    1.0132    0.9553 H   0  0  0  0  0  0  0  0  0  0  0  0
    1.0808   -5.2105    5.2270 H   0  0  0  0  0  0  0  0  0  0  0  0
    2.3640   -4.1739    3.4965 H   0  0  0  0  0  0  0  0  0  0  0  0
   -2.0036    0.4769    5.8001 H   0  0  0  0  0  0  0  0  0  0  0  0
   -3.0624    2.6588    6.0450 H   0  0  0  0  0  0  0  0  0  0  0  0
   -2.2893    4.5945    4.6986 H   0  0  0  0  0  0  0  0  0  0  0  0
   -0.3881    4.3250    3.0847 H   0  0  0  0  0  0  0  0  0  0  0  0
    4.9688   -0.2798   -0.7033 H   0  0  0  0  0  0  0  0  0  0  0  0
    6.1115   -2.4852   -1.0567 H   0  0  0  0  0  0  0  0  0  0  0  0
    5.5046   -4.4369    0.3811 H   0  0  0  0  0  0  0  0  0  0  0  0
    3.8095   -4.2231    2.1159 H   0  0  0  0  0  0  0  0  0  0  0  0
  1  2  2  0
  2 25  1  0
  2  3  1  0
  3  4  2  0
  3 29  1  0
  4  5  1  0
  4 30  1  0
  5 24  2  0
  5  6  1  0
  6  7  2  0
  6 25  1  0
  7 15  1  0
  7  8  1  0
  8 13  2  0
  8  9  1  0
  9 10  2  0
  9 31  1  0
 10 11  1  0
 10 32  1  0
 11 12  2  0
 11 33  1  0
 12 13  1  0
 12 34  1  0
 13 14  1  0
 14 27  1  0
 14 15  1  0
 15 16  2  0
 16 24  1  0
 16 17  1  0
 17 28  1  0
 17 18  1  0
 18 23  2  0
 18 19  1  0
 19 20  2  0
 19 35  1  0
 20 21  1  0
 20 36  1  0
 21 22  2  0
 21 37  1  0
 22 23  1  0
 22 38  1  0
 23 24  1  0
 25 26  2  0
M  END
>  <i_m_ct_stereo_status>  (212) 
1

>  <s_m_source_file>  (212) 
/var/tmp/pbs.5076255.sched01/tmp276pg2sv/48_ir7zhrj.sdf

>  <i_m_source_file_index>  (212) 
43

>  <i_lp_mmshare_version>  (212) 
48012

>  <i_f3d_flags>  (212) 
0

>  <s_epik_input>  (212) 
W0NIXTE9W0NIXUMoPU8pQyg9TyljKGMxMiljM2M0YyhbY0hdW2NIXVtjSF1bY0hdNClbbkhdYzNjNWMyYzZjKFtuSF01KVtjSF1bY0hdW2NIXVtjSF02

>  <s_epik_cmdline>  (212) 
J2VwaWtfcHl0aG9uJywgJy1waHQnLCAnMi4wJywgJy1waCcsICc3LjAnLCAnLXRuJywgJzgnLCAnLW1hJywgJzIwMCcsICctaW1hZScsICc8aW5maWxlLm1hZT4nLCAnLW9tYWUnLCAnPG91dGZpbGUubWFlPic=

>  <r_lp_tautomer_probability>  (212) 
1

>  <r_epik_Ionization_Penalty>  (212) 
4.34426e-09

>  <r_epik_Ionization_Penalty_Charging>  (212) 
0

>  <r_epik_Ionization_Penalty_Neutral>  (212) 
4.34426e-09

>  <r_epik_State_Penalty>  (212) 
-0

>  <r_epik_Charging_Adjusted_Penalty>  (212) 
0

>  <i_epik_Tot_Q>  (212) 
0

>  <i_epik_Tot_abs_Q>  (212) 
0

>  <s_lp_Force_Field>  (212) 
OPLS3e

>  <r_lp_Energy>  (212) 
48.4213

>  <b_lp_Chiralities_Consistent>  (212) 
1

>  <s_lp_Variant>  (212) 
57:0-1

>  <s_i_glide_gridfile>  (212) 
pfpi4k_grid

>  <i_i_glide_lignum>  (212) 
43

>  <i_i_glide_rotatable_bonds>  (212) 
0

>  <r_i_docking_score>  (212) 
-2.83589

>  <r_i_glide_ligand_efficiency>  (212) 
-0.109073

>  <r_i_glide_ligand_efficiency_sa>  (212) 
-0.323127

>  <r_i_glide_ligand_efficiency_ln>  (212) 
-0.665999

>  <r_i_glide_gscore>  (212) 
-2.83589

>  <r_i_glide_lipo>  (212) 
-0.100072

>  <r_i_glide_hbond>  (212) 
0

>  <r_i_glide_metal>  (212) 
-0

>  <r_i_glide_rewards>  (212) 
-1.11584

>  <r_i_glide_evdw>  (212) 
-26.6029

>  <r_i_glide_ecoul>  (212) 
-1.34156

>  <r_i_glide_erotb>  (212) 
0

>  <r_i_glide_esite>  (212) 
-0.0885931

>  <r_i_glide_emodel>  (212) 
-33.8288

>  <r_i_glide_energy>  (212) 
-27.9445

>  <r_i_glide_einternal>  (212) 
0

>  <r_i_glide_intrahb_reward>  (212) 
-0

>  <i_i_glide_confnum>  (212) 
1

>  <i_i_glide_posenum>  (212) 
25

>  <r_i_glide_eff_state_penalty>  (212) 
0

>  <ligand_id>  (212) 
57

>  <original_smiles>  (212) 
O=C1C=Cc2c(c3c4ccccc4[nH]c3c3[nH]c4ccccc4c23)C1=O

>  <smiles>  (212) 
[H]C1=C([H])c2c(c3c4c([H])c([H])c([H])c([H])c4n([H])c3c3c2c2c([H])c([H])c([H])c([H])c2n3[H])C(=O)C1=O

$$$$
58:0:0
     RDKit          3D

 27 29  0  0  1  0  0  0  0  0999 V2000
   -1.8399   -8.3473    2.9742 C   0  0  0  0  0  0  0  0  0  0  0  0
   -0.4986   -7.9134    2.4990 C   0  0  0  0  0  0  0  0  0  0  0  0
   -0.1740   -6.6822    2.0658 N   0  0  0  0  0  0  0  0  0  0  0  0
    1.1672   -6.8256    1.7491 C   0  0  0  0  0  0  0  0  0  0  0  0
    2.1217   -5.9193    1.2419 C   0  0  0  0  0  0  0  0  0  0  0  0
    3.4523   -6.3458    0.9930 C   0  0  0  0  0  0  0  0  0  0  0  0
    4.4837   -5.3879    0.4832 C   0  0  0  0  0  0  0  0  0  0  0  0
    5.6617   -5.5500    0.7912 O   0  0  0  0  0  0  0  0  0  0  0  0
    4.0180   -4.4027   -0.3137 N   0  0  0  0  0  0  0  0  0  0  0  0
    4.8463   -3.4012   -0.8288 N   0  0  0  0  0  0  0  0  0  0  0  0
    6.1796   -3.3688   -0.9715 C   0  0  0  0  0  0  0  0  0  0  0  0
    6.6061   -2.2344   -1.5223 N   0  0  0  0  0  0  0  0  0  0  0  0
    5.4557   -1.4754   -1.7562 N   0  0  0  0  0  0  0  0  0  0  0  0
    4.4364   -2.2290   -1.3327 C   0  0  0  0  0  0  0  0  0  0  0  0
    3.8348   -7.6797    1.2799 C   0  0  0  0  0  0  0  0  0  0  0  0
    2.8969   -8.5958    1.7870 C   0  0  0  0  0  0  0  0  0  0  0  0
    1.5848   -8.1477    2.0140 C   0  0  0  0  0  0  0  0  0  0  0  0
    0.5025   -8.8463    2.5034 O   0  0  0  0  0  0  0  0  0  0  0  0
   -2.5370   -7.5088    2.9570 H   0  0  0  0  0  0  0  0  0  0  0  0
   -1.7704   -8.7271    3.9954 H   0  0  0  0  0  0  0  0  0  0  0  0
   -2.2237   -9.1402    2.3305 H   0  0  0  0  0  0  0  0  0  0  0  0
    1.8306   -4.8961    1.0676 H   0  0  0  0  0  0  0  0  0  0  0  0
    3.0474   -4.2825   -0.5543 H   0  0  0  0  0  0  0  0  0  0  0  0
    6.8638   -4.1599   -0.7007 H   0  0  0  0  0  0  0  0  0  0  0  0
    3.4065   -1.8987   -1.3819 H   0  0  0  0  0  0  0  0  0  0  0  0
    4.8537   -7.9989    1.1012 H   0  0  0  0  0  0  0  0  0  0  0  0
    3.1816   -9.6189    1.9903 H   0  0  0  0  0  0  0  0  0  0  0  0
  1  2  1  0
  1 19  1  0
  1 20  1  0
  1 21  1  0
  2 18  1  0
  2  3  2  0
  3  4  1  0
  4 17  2  0
  4  5  1  0
  5  6  2  0
  5 22  1  0
  6  7  1  0
  6 15  1  0
  7  8  2  0
  7  9  1  0
  9 10  1  0
  9 23  1  0
 10 14  1  0
 10 11  1  0
 11 12  2  0
 11 24  1  0
 12 13  1  0
 13 14  2  0
 14 25  1  0
 15 16  2  0
 15 26  1  0
 16 17  1  0
 16 27  1  0
 17 18  1  0
M  END
>  <i_m_ct_stereo_status>  (213) 
1

>  <s_m_source_file>  (213) 
/var/tmp/pbs.5076255.sched01/tmp276pg2sv/48_ir7zhrj.sdf

>  <i_m_source_file_index>  (213) 
44

>  <i_lp_mmshare_version>  (213) 
48012

>  <i_f3d_flags>  (213) 
0

>  <s_epik_input>  (213) 
W0NIM11jKG4xKW9jKGMxMilbY0hdW2NIXWMoW2NIXTIpQyg9TylbTkhdbjNbY0hdbm5bY0hdMw==

>  <s_epik_cmdline>  (213) 
J2VwaWtfcHl0aG9uJywgJy1waHQnLCAnMi4wJywgJy1waCcsICc3LjAnLCAnLXRuJywgJzgnLCAnLW1hJywgJzIwMCcsICctaW1hZScsICc8aW5maWxlLm1hZT4nLCAnLW9tYWUnLCAnPG91dGZpbGUubWFlPic=

>  <r_lp_tautomer_probability>  (213) 
1

>  <r_epik_Ionization_Penalty>  (213) 
0.000120214

>  <r_epik_Ionization_Penalty_Charging>  (213) 
0

>  <r_epik_Ionization_Penalty_Neutral>  (213) 
0.000120214

>  <r_epik_State_Penalty>  (213) 
-0

>  <r_epik_Charging_Adjusted_Penalty>  (213) 
0

>  <i_epik_Tot_Q>  (213) 
0

>  <i_epik_Tot_abs_Q>  (213) 
0

>  <s_lp_Force_Field>  (213) 
OPLS3e

>  <r_lp_Energy>  (213) 
10.9502

>  <b_lp_Chiralities_Consistent>  (213) 
1

>  <s_lp_Variant>  (213) 
58:0-1

>  <s_i_glide_gridfile>  (213) 
pfpi4k_grid

>  <i_i_glide_lignum>  (213) 
44

>  <i_i_glide_rotatable_bonds>  (213) 
3

>  <r_i_docking_score>  (213) 
-3.94587

>  <r_i_glide_ligand_efficiency>  (213) 
-0.219215

>  <r_i_glide_ligand_efficiency_sa>  (213) 
-0.574506

>  <r_i_glide_ligand_efficiency_ln>  (213) 
-1.01427

>  <r_i_glide_gscore>  (213) 
-3.94587

>  <r_i_glide_lipo>  (213) 
-0.0807103

>  <r_i_glide_hbond>  (213) 
-0.163755

>  <r_i_glide_metal>  (213) 
-0

>  <r_i_glide_rewards>  (213) 
-2.06907

>  <r_i_glide_evdw>  (213) 
-25.4934

>  <r_i_glide_ecoul>  (213) 
-7.10063

>  <r_i_glide_erotb>  (213) 
0.880463

>  <r_i_glide_esite>  (213) 
-0.173032

>  <r_i_glide_emodel>  (213) 
-41.374

>  <r_i_glide_energy>  (213) 
-32.594

>  <r_i_glide_einternal>  (213) 
0.195117

>  <r_i_glide_intrahb_reward>  (213) 
-0

>  <i_i_glide_confnum>  (213) 
6

>  <i_i_glide_posenum>  (213) 
24

>  <r_i_glide_eff_state_penalty>  (213) 
0

>  <ligand_id>  (213) 
58

>  <original_smiles>  (213) 
Cc1nc2cc(C(=O)Nn3cnnc3)ccc2o1

>  <smiles>  (213) 
[H]c1c(C(=O)N([H])n2c([H])nnc2[H])c([H])c2nc(C([H])([H])[H])oc2c1[H]

$$$$
58:0:1
     RDKit          3D

 27 29  0  0  1  0  0  0  0  0999 V2000
   -1.7907   -8.6982    3.0785 C   0  0  0  0  0  0  0  0  0  0  0  0
   -0.5249   -8.0220    2.6983 C   0  0  0  0  0  0  0  0  0  0  0  0
   -0.3314   -6.6943    2.6114 N   0  0  0  0  0  0  0  0  0  0  0  0
    0.9976   -6.6100    2.2405 C   0  0  0  0  0  0  0  0  0  0  0  0
    1.8441   -5.5105    1.9869 C   0  0  0  0  0  0  0  0  0  0  0  0
    3.1746   -5.7207    1.5536 C   0  0  0  0  0  0  0  0  0  0  0  0
    4.0581   -4.5453    1.2980 C   0  0  0  0  0  0  0  0  0  0  0  0
    4.0708   -3.6064    2.0903 O   0  0  0  0  0  0  0  0  0  0  0  0
    4.7473   -4.6006    0.1424 N   0  0  0  0  0  0  0  0  0  0  0  0
    5.6457   -3.5959   -0.2396 N   0  0  0  0  0  0  0  0  0  0  0  0
    6.3280   -2.7194    0.5141 C   0  0  0  0  0  0  0  0  0  0  0  0
    7.1230   -1.9335   -0.2170 N   0  0  0  0  0  0  0  0  0  0  0  0
    6.9469   -2.3452   -1.5341 N   0  0  0  0  0  0  0  0  0  0  0  0
    6.0593   -3.3433   -1.4857 C   0  0  0  0  0  0  0  0  0  0  0  0
    3.6818   -7.0330    1.4073 C   0  0  0  0  0  0  0  0  0  0  0  0
    2.8577   -8.1424    1.6800 C   0  0  0  0  0  0  0  0  0  0  0  0
    1.5381   -7.9056    2.0923 C   0  0  0  0  0  0  0  0  0  0  0  0
    0.5541   -8.8145    2.4220 O   0  0  0  0  0  0  0  0  0  0  0  0
   -2.5570   -7.9680    3.3428 H   0  0  0  0  0  0  0  0  0  0  0  0
   -1.6046   -9.3387    3.9392 H   0  0  0  0  0  0  0  0  0  0  0  0
   -2.1540   -9.3171    2.2554 H   0  0  0  0  0  0  0  0  0  0  0  0
    1.4747   -4.5041    2.1197 H   0  0  0  0  0  0  0  0  0  0  0  0
    4.5994   -5.3072   -0.5636 H   0  0  0  0  0  0  0  0  0  0  0  0
    6.2843   -2.6541    1.5930 H   0  0  0  0  0  0  0  0  0  0  0  0
    5.7217   -3.8710   -2.3688 H   0  0  0  0  0  0  0  0  0  0  0  0
    4.7085   -7.1895    1.1082 H   0  0  0  0  0  0  0  0  0  0  0  0
    3.2309   -9.1508    1.5737 H   0  0  0  0  0  0  0  0  0  0  0  0
  1  2  1  0
  1 19  1  0
  1 20  1  0
  1 21  1  0
  2 18  1  0
  2  3  2  0
  3  4  1  0
  4 17  2  0
  4  5  1  0
  5  6  2  0
  5 22  1  0
  6  7  1  0
  6 15  1  0
  7  8  2  0
  7  9  1  0
  9 10  1  0
  9 23  1  0
 10 14  1  0
 10 11  1  0
 11 12  2  0
 11 24  1  0
 12 13  1  0
 13 14  2  0
 14 25  1  0
 15 16  2  0
 15 26  1  0
 16 17  1  0
 16 27  1  0
 17 18  1  0
M  END
>  <i_m_ct_stereo_status>  (214) 
1

>  <s_m_source_file>  (214) 
/var/tmp/pbs.5076255.sched01/tmp276pg2sv/48_ir7zhrj.sdf

>  <i_m_source_file_index>  (214) 
44

>  <i_lp_mmshare_version>  (214) 
48012

>  <i_f3d_flags>  (214) 
0

>  <s_epik_input>  (214) 
W0NIM11jKG4xKW9jKGMxMilbY0hdW2NIXWMoW2NIXTIpQyg9TylbTkhdbjNbY0hdbm5bY0hdMw==

>  <s_epik_cmdline>  (214) 
J2VwaWtfcHl0aG9uJywgJy1waHQnLCAnMi4wJywgJy1waCcsICc3LjAnLCAnLXRuJywgJzgnLCAnLW1hJywgJzIwMCcsICctaW1hZScsICc8aW5maWxlLm1hZT4nLCAnLW9tYWUnLCAnPG91dGZpbGUubWFlPic=

>  <r_lp_tautomer_probability>  (214) 
1

>  <r_epik_Ionization_Penalty>  (214) 
0.000120214

>  <r_epik_Ionization_Penalty_Charging>  (214) 
0

>  <r_epik_Ionization_Penalty_Neutral>  (214) 
0.000120214

>  <r_epik_State_Penalty>  (214) 
-0

>  <r_epik_Charging_Adjusted_Penalty>  (214) 
0

>  <i_epik_Tot_Q>  (214) 
0

>  <i_epik_Tot_abs_Q>  (214) 
0

>  <s_lp_Force_Field>  (214) 
OPLS3e

>  <r_lp_Energy>  (214) 
10.9502

>  <b_lp_Chiralities_Consistent>  (214) 
1

>  <s_lp_Variant>  (214) 
58:0-1

>  <s_i_glide_gridfile>  (214) 
pfpi4k_grid

>  <i_i_glide_lignum>  (214) 
44

>  <i_i_glide_rotatable_bonds>  (214) 
3

>  <r_i_docking_score>  (214) 
-3.86801

>  <r_i_glide_ligand_efficiency>  (214) 
-0.21489

>  <r_i_glide_ligand_efficiency_sa>  (214) 
-0.56317

>  <r_i_glide_ligand_efficiency_ln>  (214) 
-0.994253

>  <r_i_glide_gscore>  (214) 
-3.86801

>  <r_i_glide_lipo>  (214) 
-0.090883

>  <r_i_glide_hbond>  (214) 
-0.16

>  <r_i_glide_metal>  (214) 
-0

>  <r_i_glide_rewards>  (214) 
-2.17932

>  <r_i_glide_evdw>  (214) 
-21.0224

>  <r_i_glide_ecoul>  (214) 
-7.52995

>  <r_i_glide_erotb>  (214) 
0.880463

>  <r_i_glide_esite>  (214) 
-0.137658

>  <r_i_glide_emodel>  (214) 
-36.7696

>  <r_i_glide_energy>  (214) 
-28.5524

>  <r_i_glide_einternal>  (214) 
0.984957

>  <r_i_glide_intrahb_reward>  (214) 
-0

>  <i_i_glide_confnum>  (214) 
3

>  <i_i_glide_posenum>  (214) 
33

>  <r_i_glide_eff_state_penalty>  (214) 
0

>  <ligand_id>  (214) 
58

>  <original_smiles>  (214) 
Cc1nc2cc(C(=O)Nn3cnnc3)ccc2o1

>  <smiles>  (214) 
[H]c1c(C(=O)N([H])n2c([H])nnc2[H])c([H])c2nc(C([H])([H])[H])oc2c1[H]

$$$$
58:0:2
     RDKit          3D

 27 29  0  0  1  0  0  0  0  0999 V2000
   -0.3034   -8.6978    2.5679 C   0  0  0  0  0  0  0  0  0  0  0  0
    0.7165   -7.7610    2.0206 C   0  0  0  0  0  0  0  0  0  0  0  0
    0.4882   -6.7409    1.1743 N   0  0  0  0  0  0  0  0  0  0  0  0
    1.7593   -6.2324    0.9639 C   0  0  0  0  0  0  0  0  0  0  0  0
    2.2376   -5.1692    0.1682 C   0  0  0  0  0  0  0  0  0  0  0  0
    3.6156   -4.8321    0.1663 C   0  0  0  0  0  0  0  0  0  0  0  0
    4.1119   -3.6660   -0.6360 C   0  0  0  0  0  0  0  0  0  0  0  0
    5.0910   -3.0270   -0.2485 O   0  0  0  0  0  0  0  0  0  0  0  0
    3.4612   -3.4494   -1.7976 N   0  0  0  0  0  0  0  0  0  0  0  0
    3.6966   -2.3168   -2.5735 N   0  0  0  0  0  0  0  0  0  0  0  0
    4.1687   -1.1180   -2.2135 C   0  0  0  0  0  0  0  0  0  0  0  0
    4.2116   -0.2581   -3.2345 N   0  0  0  0  0  0  0  0  0  0  0  0
    3.7190   -0.9561   -4.3286 N   0  0  0  0  0  0  0  0  0  0  0  0
    3.4040   -2.1699   -3.8689 C   0  0  0  0  0  0  0  0  0  0  0  0
    4.5252   -5.5603    0.9673 C   0  0  0  0  0  0  0  0  0  0  0  0
    4.0647   -6.6320    1.7594 C   0  0  0  0  0  0  0  0  0  0  0  0
    2.6943   -6.9469    1.7399 C   0  0  0  0  0  0  0  0  0  0  0  0
    2.0141   -7.9365    2.4211 O   0  0  0  0  0  0  0  0  0  0  0  0
   -1.2914   -8.4399    2.1833 H   0  0  0  0  0  0  0  0  0  0  0  0
   -0.3129   -8.6327    3.6583 H   0  0  0  0  0  0  0  0  0  0  0  0
   -0.0647   -9.7222    2.2743 H   0  0  0  0  0  0  0  0  0  0  0  0
    1.5439   -4.6110   -0.4408 H   0  0  0  0  0  0  0  0  0  0  0  0
    2.8214   -4.1118   -2.2260 H   0  0  0  0  0  0  0  0  0  0  0  0
    4.4655   -0.8411   -1.2144 H   0  0  0  0  0  0  0  0  0  0  0  0
    2.9836   -2.9397   -4.4998 H   0  0  0  0  0  0  0  0  0  0  0  0
    5.5769   -5.2922    0.9735 H   0  0  0  0  0  0  0  0  0  0  0  0
    4.7490   -7.1947    2.3741 H   0  0  0  0  0  0  0  0  0  0  0  0
  1  2  1  0
  1 19  1  0
  1 20  1  0
  1 21  1  0
  2 18  1  0
  2  3  2  0
  3  4  1  0
  4 17  2  0
  4  5  1  0
  5  6  2  0
  5 22  1  0
  6  7  1  0
  6 15  1  0
  7  8  2  0
  7  9  1  0
  9 10  1  0
  9 23  1  0
 10 14  1  0
 10 11  1  0
 11 12  2  0
 11 24  1  0
 12 13  1  0
 13 14  2  0
 14 25  1  0
 15 16  2  0
 15 26  1  0
 16 17  1  0
 16 27  1  0
 17 18  1  0
M  END
>  <i_m_ct_stereo_status>  (215) 
1

>  <s_m_source_file>  (215) 
/var/tmp/pbs.5076255.sched01/tmp276pg2sv/48_ir7zhrj.sdf

>  <i_m_source_file_index>  (215) 
44

>  <i_lp_mmshare_version>  (215) 
48012

>  <i_f3d_flags>  (215) 
0

>  <s_epik_input>  (215) 
W0NIM11jKG4xKW9jKGMxMilbY0hdW2NIXWMoW2NIXTIpQyg9TylbTkhdbjNbY0hdbm5bY0hdMw==

>  <s_epik_cmdline>  (215) 
J2VwaWtfcHl0aG9uJywgJy1waHQnLCAnMi4wJywgJy1waCcsICc3LjAnLCAnLXRuJywgJzgnLCAnLW1hJywgJzIwMCcsICctaW1hZScsICc8aW5maWxlLm1hZT4nLCAnLW9tYWUnLCAnPG91dGZpbGUubWFlPic=

>  <r_lp_tautomer_probability>  (215) 
1

>  <r_epik_Ionization_Penalty>  (215) 
0.000120214

>  <r_epik_Ionization_Penalty_Charging>  (215) 
0

>  <r_epik_Ionization_Penalty_Neutral>  (215) 
0.000120214

>  <r_epik_State_Penalty>  (215) 
-0

>  <r_epik_Charging_Adjusted_Penalty>  (215) 
0

>  <i_epik_Tot_Q>  (215) 
0

>  <i_epik_Tot_abs_Q>  (215) 
0

>  <s_lp_Force_Field>  (215) 
OPLS3e

>  <r_lp_Energy>  (215) 
10.9502

>  <b_lp_Chiralities_Consistent>  (215) 
1

>  <s_lp_Variant>  (215) 
58:0-1

>  <s_i_glide_gridfile>  (215) 
pfpi4k_grid

>  <i_i_glide_lignum>  (215) 
44

>  <i_i_glide_rotatable_bonds>  (215) 
3

>  <r_i_docking_score>  (215) 
-3.82265

>  <r_i_glide_ligand_efficiency>  (215) 
-0.21237

>  <r_i_glide_ligand_efficiency_sa>  (215) 
-0.556566

>  <r_i_glide_ligand_efficiency_ln>  (215) 
-0.982593

>  <r_i_glide_gscore>  (215) 
-3.82265

>  <r_i_glide_lipo>  (215) 
-0.104152

>  <r_i_glide_hbond>  (215) 
-0.302128

>  <r_i_glide_metal>  (215) 
-0

>  <r_i_glide_rewards>  (215) 
-1.90326

>  <r_i_glide_evdw>  (215) 
-27.5025

>  <r_i_glide_ecoul>  (215) 
-6.59639

>  <r_i_glide_erotb>  (215) 
0.880463

>  <r_i_glide_esite>  (215) 
-0.0289893

>  <r_i_glide_emodel>  (215) 
-42.0172

>  <r_i_glide_energy>  (215) 
-34.0989

>  <r_i_glide_einternal>  (215) 
1.26067

>  <r_i_glide_intrahb_reward>  (215) 
-0

>  <i_i_glide_confnum>  (215) 
1

>  <i_i_glide_posenum>  (215) 
30

>  <r_i_glide_eff_state_penalty>  (215) 
0

>  <ligand_id>  (215) 
58

>  <original_smiles>  (215) 
Cc1nc2cc(C(=O)Nn3cnnc3)ccc2o1

>  <smiles>  (215) 
[H]c1c(C(=O)N([H])n2c([H])nnc2[H])c([H])c2nc(C([H])([H])[H])oc2c1[H]

$$$$
59:0:0
     RDKit          3D

 55 60  0  0  1  0  0  0  0  0999 V2000
    6.1959   -5.0385    2.6102 C   0  0  0  0  0  0  0  0  0  0  0  0
    5.6484   -3.6365    2.3089 C   0  0  0  0  0  0  0  0  0  0  0  0
    5.8581   -3.0675    1.0864 C   0  0  0  0  0  0  0  0  0  0  0  0
    6.5846   -3.8189   -0.0207 C   0  0  0  0  0  0  0  0  0  0  0  0
    5.9342   -3.3715   -1.3279 C   0  0  1  0  0  0  0  0  0  0  0  0
    4.6830   -4.1792   -1.6502 C   0  0  0  0  0  0  0  0  0  0  0  0
    5.5544   -1.9463   -0.9989 C   0  0  0  0  0  0  0  0  0  0  0  0
    5.4016   -1.0865   -1.8472 O   0  0  0  0  0  0  0  0  0  0  0  0
    5.4717   -1.6925    0.5104 C   0  0  2  0  0  0  0  0  0  0  0  0
    6.5213   -0.7963    0.7728 O   0  0  0  0  0  0  0  0  0  0  0  0
    4.1165   -1.0023    0.8853 C   0  0  1  0  0  0  0  0  0  0  0  0
    3.0107   -1.7568    0.3897 O   0  0  0  0  0  0  0  0  0  0  0  0
    3.9742   -0.8559    2.4036 C   0  0  1  0  0  0  0  0  0  0  0  0
    2.7165   -0.3456    3.1155 C   0  0  2  0  0  0  0  0  0  0  0  0
    2.2148    0.8526    3.8601 C   0  0  1  0  0  0  0  0  0  0  0  0
    2.8676    2.1658    4.1428 C   0  0  0  0  0  0  0  0  0  0  0  0
    1.8216    2.0242    3.1503 O   0  0  0  0  0  0  0  0  0  0  0  0
    1.2417    0.2173    4.7992 C   0  0  0  0  0  0  0  0  0  0  0  0
   -0.0665    0.5084    4.8216 C   0  0  0  0  0  0  0  0  0  0  0  0
   -0.9978   -0.5608    5.2135 C   0  0  0  0  0  0  0  0  0  0  0  0
   -2.1075   -0.3329    5.6780 O   0  0  0  0  0  0  0  0  0  0  0  0
   -0.5252   -1.9460    5.0245 C   0  0  0  0  0  0  0  0  0  0  0  0
    0.7977   -2.2131    4.9616 C   0  0  0  0  0  0  0  0  0  0  0  0
    1.8577   -1.1496    5.2063 C   0  0  2  0  0  0  0  0  0  0  0  0
    2.1238   -1.1333    6.7282 C   0  0  0  0  0  0  0  0  0  0  0  0
    3.1528   -1.1925    4.3133 C   0  0  2  0  0  0  0  0  0  0  0  0
    4.1539   -0.5621    5.1110 O   0  0  0  0  0  0  0  0  0  0  0  0
    3.7160   -2.1750    3.2228 C   0  0  1  0  0  0  0  0  0  0  0  0
    2.7505   -3.1019    2.7502 O   0  0  0  0  0  0  0  0  0  0  0  0
    4.9740   -2.9780    3.4778 C   0  0  0  0  0  0  0  0  0  0  0  0
    5.4177   -3.1476    4.6126 O   0  0  0  0  0  0  0  0  0  0  0  0
    6.0209   -5.3650    3.6386 H   0  0  0  0  0  0  0  0  0  0  0  0
    7.2771   -5.0737    2.4463 H   0  0  0  0  0  0  0  0  0  0  0  0
    5.7305   -5.7812    1.9559 H   0  0  0  0  0  0  0  0  0  0  0  0
    7.6298   -3.4969   -0.0274 H   0  0  0  0  0  0  0  0  0  0  0  0
    6.5853   -4.9060    0.0852 H   0  0  0  0  0  0  0  0  0  0  0  0
    6.6358   -3.4168   -2.1658 H   0  0  0  0  0  0  0  0  0  0  0  0
    4.1832   -3.7946   -2.5405 H   0  0  0  0  0  0  0  0  0  0  0  0
    3.9581   -4.1595   -0.8370 H   0  0  0  0  0  0  0  0  0  0  0  0
    4.9609   -5.2173   -1.8352 H   0  0  0  0  0  0  0  0  0  0  0  0
    6.5193   -0.5446    1.6831 H   0  0  0  0  0  0  0  0  0  0  0  0
    4.0885   -0.0121    0.4009 H   0  0  0  0  0  0  0  0  0  0  0  0
    2.3210   -1.1829    0.0464 H   0  0  0  0  0  0  0  0  0  0  0  0
    4.8436   -0.3217    2.7881 H   0  0  0  0  0  0  0  0  0  0  0  0
    1.8815   -0.7606    2.5498 H   0  0  0  0  0  0  0  0  0  0  0  0
    2.5846    2.6522    5.0821 H   0  0  0  0  0  0  0  0  0  0  0  0
    3.8562    2.3717    3.7524 H   0  0  0  0  0  0  0  0  0  0  0  0
   -0.4751    1.4076    4.3653 H   0  0  0  0  0  0  0  0  0  0  0  0
   -1.2721   -2.7142    4.9252 H   0  0  0  0  0  0  0  0  0  0  0  0
    1.1548   -3.2199    4.7896 H   0  0  0  0  0  0  0  0  0  0  0  0
    1.1813   -1.1083    7.2784 H   0  0  0  0  0  0  0  0  0  0  0  0
    2.6759   -0.2465    7.0485 H   0  0  0  0  0  0  0  0  0  0  0  0
    2.6690   -2.0214    7.0415 H   0  0  0  0  0  0  0  0  0  0  0  0
    4.8726   -0.3715    4.5331 H   0  0  0  0  0  0  0  0  0  0  0  0
    2.9945   -3.2968    1.8557 H   0  0  0  0  0  0  0  0  0  0  0  0
  1  2  1  0
  1 32  1  0
  1 33  1  0
  1 34  1  0
  2 30  1  0
  2  3  2  0
  3  9  1  0
  3  4  1  0
  4  5  1  0
  4 35  1  0
  4 36  1  0
  5  6  1  0
  5  7  1  0
  5 37  1  6
  6 38  1  0
  6 39  1  0
  6 40  1  0
  7  8  2  0
  7  9  1  0
  9 10  1  1
  9 11  1  0
 10 41  1  0
 11 12  1  0
 11 13  1  0
 11 42  1  6
 12 43  1  0
 13 28  1  0
 13 14  1  0
 13 44  1  1
 14 26  1  0
 14 15  1  0
 14 45  1  6
 15 17  1  6
 15 16  1  0
 15 18  1  0
 16 17  1  0
 16 46  1  0
 16 47  1  0
 18 24  1  0
 18 19  2  0
 19 20  1  0
 19 48  1  0
 20 21  2  0
 20 22  1  0
 22 23  2  0
 22 49  1  0
 23 24  1  0
 23 50  1  0
 24 25  1  1
 24 26  1  0
 25 51  1  0
 25 52  1  0
 25 53  1  0
 26 27  1  1
 26 28  1  0
 27 54  1  0
 28 29  1  6
 28 30  1  0
 29 55  1  0
 30 31  2  0
M  END
>  <i_m_ct_stereo_status>  (216) 
1

>  <s_m_source_file>  (216) 
/var/tmp/pbs.5076255.sched01/tmp276pg2sv/48_ir7zhrj.sdf

>  <i_m_source_file_index>  (216) 
45

>  <i_lp_mmshare_version>  (216) 
48012

>  <i_f3d_flags>  (216) 
0

>  <s_epik_input>  (216) 
W0NIMl0xW0NAQEhdKFtDSDNdKUMoPU8pW0NAQF0oW09IXSkoW0NASF0yW09IXSlDMT1DKFtDSDNdKUMoPU8pW0NAXShbT0hdKShbQ0BASF0yW0NAQEhdM1tDQEBdNDVbQ0gyXU80KVtDQF0zKFtPSF0pW0NAQF02KFtDSDNdKUM1PVtDSF1DKD1PKVtDSF09W0NIXTY=

>  <s_epik_cmdline>  (216) 
J2VwaWtfcHl0aG9uJywgJy1waHQnLCAnMi4wJywgJy1waCcsICc3LjAnLCAnLXRuJywgJzgnLCAnLW1hJywgJzIwMCcsICctaW1hZScsICc8aW5maWxlLm1hZT4nLCAnLW9tYWUnLCAnPG91dGZpbGUubWFlPic=

>  <r_lp_tautomer_probability>  (216) 
1

>  <r_epik_Ionization_Penalty>  (216) 
0.000421165

>  <r_epik_Ionization_Penalty_Charging>  (216) 
0

>  <r_epik_Ionization_Penalty_Neutral>  (216) 
0.000421165

>  <r_epik_State_Penalty>  (216) 
-0

>  <r_epik_Charging_Adjusted_Penalty>  (216) 
0

>  <i_epik_Tot_Q>  (216) 
0

>  <i_epik_Tot_abs_Q>  (216) 
0

>  <s_lp_Force_Field>  (216) 
OPLS3e

>  <r_lp_Energy>  (216) 
91.619

>  <b_lp_Chiralities_Consistent>  (216) 
1

>  <s_lp_Variant>  (216) 
59:0-1

>  <s_i_glide_gridfile>  (216) 
pfpi4k_grid

>  <i_i_glide_lignum>  (216) 
45

>  <i_i_glide_rotatable_bonds>  (216) 
4

>  <r_i_docking_score>  (216) 
-3.83517

>  <r_i_glide_ligand_efficiency>  (216) 
-0.123715

>  <r_i_glide_ligand_efficiency_sa>  (216) 
-0.388637

>  <r_i_glide_ligand_efficiency_ln>  (216) 
-0.864949

>  <r_i_glide_gscore>  (216) 
-3.83517

>  <r_i_glide_lipo>  (216) 
-0.465697

>  <r_i_glide_hbond>  (216) 
-0.0837057

>  <r_i_glide_metal>  (216) 
-0

>  <r_i_glide_rewards>  (216) 
-1.05034

>  <r_i_glide_evdw>  (216) 
-24.8608

>  <r_i_glide_ecoul>  (216) 
-6.12805

>  <r_i_glide_erotb>  (216) 
0

>  <r_i_glide_esite>  (216) 
-0.0731837

>  <r_i_glide_emodel>  (216) 
-41.4753

>  <r_i_glide_energy>  (216) 
-30.9889

>  <r_i_glide_einternal>  (216) 
3.38669

>  <r_i_glide_intrahb_reward>  (216) 
-0.5

>  <i_i_glide_confnum>  (216) 
2

>  <i_i_glide_posenum>  (216) 
2

>  <r_i_glide_eff_state_penalty>  (216) 
0

>  <ligand_id>  (216) 
59

>  <original_smiles>  (216) 
CC1=C2CC(C)C(=O)C2(O)C(O)C2C3C4(CO4)C4=CC(=O)C=CC4(C)C3(O)C2(O)C1=O

>  <smiles>  (216) 
[H]OC12C(=O)C([H])(C([H])([H])[H])C([H])([H])C1=C(C([H])([H])[H])C(=O)C1(O[H])C([H])(C2([H])O[H])C2([H])C3(OC3([H])[H])C3=C([H])C(=O)C([H])=C([H])C3(C([H])([H])[H])C12O[H]

$$$$
59:0:1
     RDKit          3D

 55 60  0  0  1  0  0  0  0  0999 V2000
    6.1869   -5.0292    2.6454 C   0  0  0  0  0  0  0  0  0  0  0  0
    5.6442   -3.6300    2.3333 C   0  0  0  0  0  0  0  0  0  0  0  0
    5.8564   -3.0703    1.1046 C   0  0  0  0  0  0  0  0  0  0  0  0
    6.5829   -3.8356    0.0028 C   0  0  0  0  0  0  0  0  0  0  0  0
    5.9312   -3.3960   -1.3068 C   0  0  1  0  0  0  0  0  0  0  0  0
    4.6781   -4.2075   -1.6191 C   0  0  0  0  0  0  0  0  0  0  0  0
    5.5581   -1.9701   -0.9911 C   0  0  0  0  0  0  0  0  0  0  0  0
    5.3983   -1.1183   -1.8621 O   0  0  0  0  0  0  0  0  0  0  0  0
    5.4786   -1.7001    0.5112 C   0  0  2  0  0  0  0  0  0  0  0  0
    6.5279   -0.8048    0.7725 O   0  0  0  0  0  0  0  0  0  0  0  0
    4.1324   -0.9953    0.8844 C   0  0  1  0  0  0  0  0  0  0  0  0
    3.0431   -1.7455    0.3828 O   0  0  0  0  0  0  0  0  0  0  0  0
    3.9776   -0.8505    2.4006 C   0  0  1  0  0  0  0  0  0  0  0  0
    2.7199   -0.3318    3.1095 C   0  0  2  0  0  0  0  0  0  0  0  0
    2.2195    0.8763    3.8428 C   0  0  1  0  0  0  0  0  0  0  0  0
    2.8744    2.1941    4.1165 C   0  0  0  0  0  0  0  0  0  0  0  0
    1.8274    2.0458    3.1246 O   0  0  0  0  0  0  0  0  0  0  0  0
    1.2471    0.2504    4.7858 C   0  0  0  0  0  0  0  0  0  0  0  0
   -0.0667    0.5472    4.8095 C   0  0  0  0  0  0  0  0  0  0  0  0
   -0.9997   -0.5154    5.2124 C   0  0  0  0  0  0  0  0  0  0  0  0
   -2.1057   -0.2823    5.6789 O   0  0  0  0  0  0  0  0  0  0  0  0
   -0.5292   -1.9029    5.0287 C   0  0  0  0  0  0  0  0  0  0  0  0
    0.7925   -2.1759    4.9703 C   0  0  0  0  0  0  0  0  0  0  0  0
    1.8558   -1.1128    5.2081 C   0  0  2  0  0  0  0  0  0  0  0  0
    2.1206   -1.0830    6.7302 C   0  0  0  0  0  0  0  0  0  0  0  0
    3.1516   -1.1680    4.3177 C   0  0  2  0  0  0  0  0  0  0  0  0
    4.1578   -0.5312    5.1086 O   0  0  0  0  0  0  0  0  0  0  0  0
    3.7174   -2.1588    3.2344 C   0  0  1  0  0  0  0  0  0  0  0  0
    2.7554   -3.1002    2.7803 O   0  0  0  0  0  0  0  0  0  0  0  0
    4.9698   -2.9611    3.4973 C   0  0  0  0  0  0  0  0  0  0  0  0
    5.4137   -3.1172    4.6357 O   0  0  0  0  0  0  0  0  0  0  0  0
    6.0161   -5.3475    3.6778 H   0  0  0  0  0  0  0  0  0  0  0  0
    7.2702   -5.0729    2.4763 H   0  0  0  0  0  0  0  0  0  0  0  0
    5.7194   -5.7773    1.9987 H   0  0  0  0  0  0  0  0  0  0  0  0
    7.6270   -3.5145   -0.0035 H   0  0  0  0  0  0  0  0  0  0  0  0
    6.5794   -4.9212    0.1151 H   0  0  0  0  0  0  0  0  0  0  0  0
    6.6327   -3.4496   -2.1432 H   0  0  0  0  0  0  0  0  0  0  0  0
    4.1803   -3.8297   -2.5135 H   0  0  0  0  0  0  0  0  0  0  0  0
    3.9538   -4.1766   -0.8059 H   0  0  0  0  0  0  0  0  0  0  0  0
    4.9535   -5.2480   -1.7932 H   0  0  0  0  0  0  0  0  0  0  0  0
    6.5235   -0.5515    1.6803 H   0  0  0  0  0  0  0  0  0  0  0  0
    4.1021   -0.0127    0.3973 H   0  0  0  0  0  0  0  0  0  0  0  0
    2.3409   -1.1740    0.0525 H   0  0  0  0  0  0  0  0  0  0  0  0
    4.8465   -0.3131    2.7840 H   0  0  0  0  0  0  0  0  0  0  0  0
    1.8808   -0.7413    2.5458 H   0  0  0  0  0  0  0  0  0  0  0  0
    2.5905    2.6894    5.0520 H   0  0  0  0  0  0  0  0  0  0  0  0
    3.8622    2.3946    3.7249 H   0  0  0  0  0  0  0  0  0  0  0  0
   -0.4697    1.4425    4.3458 H   0  0  0  0  0  0  0  0  0  0  0  0
   -1.2800   -2.6700    4.9359 H   0  0  0  0  0  0  0  0  0  0  0  0
    1.1464   -3.1862    4.8186 H   0  0  0  0  0  0  0  0  0  0  0  0
    1.1796   -1.0503    7.2811 H   0  0  0  0  0  0  0  0  0  0  0  0
    2.6758   -0.1947    7.0431 H   0  0  0  0  0  0  0  0  0  0  0  0
    2.6655   -1.9679    7.0513 H   0  0  0  0  0  0  0  0  0  0  0  0
    4.8738   -0.3461    4.5306 H   0  0  0  0  0  0  0  0  0  0  0  0
    2.0126   -2.5971    2.4886 H   0  0  0  0  0  0  0  0  0  0  0  0
  1  2  1  0
  1 32  1  0
  1 33  1  0
  1 34  1  0
  2 30  1  0
  2  3  2  0
  3  9  1  0
  3  4  1  0
  4  5  1  0
  4 35  1  0
  4 36  1  0
  5  6  1  0
  5  7  1  0
  5 37  1  6
  6 38  1  0
  6 39  1  0
  6 40  1  0
  7  8  2  0
  7  9  1  0
  9 10  1  1
  9 11  1  0
 10 41  1  0
 11 12  1  0
 11 13  1  0
 11 42  1  6
 12 43  1  0
 13 28  1  0
 13 14  1  0
 13 44  1  1
 14 26  1  0
 14 15  1  0
 14 45  1  6
 15 17  1  6
 15 16  1  0
 15 18  1  0
 16 17  1  0
 16 46  1  0
 16 47  1  0
 18 24  1  0
 18 19  2  0
 19 20  1  0
 19 48  1  0
 20 21  2  0
 20 22  1  0
 22 23  2  0
 22 49  1  0
 23 24  1  0
 23 50  1  0
 24 25  1  1
 24 26  1  0
 25 51  1  0
 25 52  1  0
 25 53  1  0
 26 27  1  1
 26 28  1  0
 27 54  1  0
 28 29  1  6
 28 30  1  0
 29 55  1  0
 30 31  2  0
M  END
>  <i_m_ct_stereo_status>  (217) 
1

>  <s_m_source_file>  (217) 
/var/tmp/pbs.5076255.sched01/tmp276pg2sv/48_ir7zhrj.sdf

>  <i_m_source_file_index>  (217) 
45

>  <i_lp_mmshare_version>  (217) 
48012

>  <i_f3d_flags>  (217) 
0

>  <s_epik_input>  (217) 
W0NIMl0xW0NAQEhdKFtDSDNdKUMoPU8pW0NAQF0oW09IXSkoW0NASF0yW09IXSlDMT1DKFtDSDNdKUMoPU8pW0NAXShbT0hdKShbQ0BASF0yW0NAQEhdM1tDQEBdNDVbQ0gyXU80KVtDQF0zKFtPSF0pW0NAQF02KFtDSDNdKUM1PVtDSF1DKD1PKVtDSF09W0NIXTY=

>  <s_epik_cmdline>  (217) 
J2VwaWtfcHl0aG9uJywgJy1waHQnLCAnMi4wJywgJy1waCcsICc3LjAnLCAnLXRuJywgJzgnLCAnLW1hJywgJzIwMCcsICctaW1hZScsICc8aW5maWxlLm1hZT4nLCAnLW9tYWUnLCAnPG91dGZpbGUubWFlPic=

>  <r_lp_tautomer_probability>  (217) 
1

>  <r_epik_Ionization_Penalty>  (217) 
0.000421165

>  <r_epik_Ionization_Penalty_Charging>  (217) 
0

>  <r_epik_Ionization_Penalty_Neutral>  (217) 
0.000421165

>  <r_epik_State_Penalty>  (217) 
-0

>  <r_epik_Charging_Adjusted_Penalty>  (217) 
0

>  <i_epik_Tot_Q>  (217) 
0

>  <i_epik_Tot_abs_Q>  (217) 
0

>  <s_lp_Force_Field>  (217) 
OPLS3e

>  <r_lp_Energy>  (217) 
91.619

>  <b_lp_Chiralities_Consistent>  (217) 
1

>  <s_lp_Variant>  (217) 
59:0-1

>  <s_i_glide_gridfile>  (217) 
pfpi4k_grid

>  <i_i_glide_lignum>  (217) 
45

>  <i_i_glide_rotatable_bonds>  (217) 
4

>  <r_i_docking_score>  (217) 
-3.48582

>  <r_i_glide_ligand_efficiency>  (217) 
-0.112446

>  <r_i_glide_ligand_efficiency_sa>  (217) 
-0.353235

>  <r_i_glide_ligand_efficiency_ln>  (217) 
-0.78616

>  <r_i_glide_gscore>  (217) 
-3.48582

>  <r_i_glide_lipo>  (217) 
-0.46164

>  <r_i_glide_hbond>  (217) 
-0.08218

>  <r_i_glide_metal>  (217) 
-0

>  <r_i_glide_rewards>  (217) 
-0.550028

>  <r_i_glide_evdw>  (217) 
-25.004

>  <r_i_glide_ecoul>  (217) 
-7.13015

>  <r_i_glide_erotb>  (217) 
0

>  <r_i_glide_esite>  (217) 
-0.072252

>  <r_i_glide_emodel>  (217) 
-38.1546

>  <r_i_glide_energy>  (217) 
-32.1342

>  <r_i_glide_einternal>  (217) 
1.03808

>  <r_i_glide_intrahb_reward>  (217) 
-0

>  <i_i_glide_confnum>  (217) 
2

>  <i_i_glide_posenum>  (217) 
14

>  <r_i_glide_eff_state_penalty>  (217) 
0

>  <ligand_id>  (217) 
59

>  <original_smiles>  (217) 
CC1=C2CC(C)C(=O)C2(O)C(O)C2C3C4(CO4)C4=CC(=O)C=CC4(C)C3(O)C2(O)C1=O

>  <smiles>  (217) 
[H]OC12C(=O)C([H])(C([H])([H])[H])C([H])([H])C1=C(C([H])([H])[H])C(=O)C1(O[H])C([H])(C2([H])O[H])C2([H])C3(OC3([H])[H])C3=C([H])C(=O)C([H])=C([H])C3(C([H])([H])[H])C12O[H]

$$$$
59:0:2
     RDKit          3D

 55 60  0  0  1  0  0  0  0  0999 V2000
   -0.1789   -5.8653    5.1152 C   0  0  0  0  0  0  0  0  0  0  0  0
    1.1274   -6.3209    4.4659 C   0  0  0  0  0  0  0  0  0  0  0  0
    1.4514   -7.6444    4.4472 C   0  0  0  0  0  0  0  0  0  0  0  0
    0.5112   -8.7043    5.0166 C   0  0  0  0  0  0  0  0  0  0  0  0
    0.6909   -9.9468    4.1472 C   0  0  1  0  0  0  0  0  0  0  0  0
   -0.1898   -9.9140    2.8839 C   0  0  0  0  0  0  0  0  0  0  0  0
    2.1578   -9.8253    3.7902 C   0  0  0  0  0  0  0  0  0  0  0  0
    2.8300  -10.7692    3.4020 O   0  0  0  0  0  0  0  0  0  0  0  0
    2.6865   -8.3891    3.9194 C   0  0  2  0  0  0  0  0  0  0  0  0
    3.6820   -8.3841    4.9212 O   0  0  0  0  0  0  0  0  0  0  0  0
    3.3808   -7.9353    2.5880 C   0  0  1  0  0  0  0  0  0  0  0  0
    2.5232   -8.1421    1.4717 O   0  0  0  0  0  0  0  0  0  0  0  0
    3.7932   -6.4563    2.6389 C   0  0  1  0  0  0  0  0  0  0  0  0
    4.3934   -5.6536    1.4797 C   0  0  2  0  0  0  0  0  0  0  0  0
    5.6952   -5.0537    1.0410 C   0  0  1  0  0  0  0  0  0  0  0  0
    7.0617   -5.1141    1.6585 C   0  0  0  0  0  0  0  0  0  0  0  0
    6.7187   -5.8694    0.4850 O   0  0  0  0  0  0  0  0  0  0  0  0
    5.2179   -3.8700    0.2555 C   0  0  0  0  0  0  0  0  0  0  0  0
    5.4569   -3.6907   -1.0494 C   0  0  0  0  0  0  0  0  0  0  0  0
    4.4605   -2.9874   -1.8680 C   0  0  0  0  0  0  0  0  0  0  0  0
    4.7646   -2.4269   -2.9025 O   0  0  0  0  0  0  0  0  0  0  0  0
    3.0744   -3.0108   -1.3537 C   0  0  0  0  0  0  0  0  0  0  0  0
    2.8501   -3.2224   -0.0388 C   0  0  0  0  0  0  0  0  0  0  0  0
    3.9645   -3.3372    0.9965 C   0  0  2  0  0  0  0  0  0  0  0  0
    4.2686   -1.9040    1.4869 C   0  0  0  0  0  0  0  0  0  0  0  0
    3.7952   -4.4085    2.1351 C   0  0  2  0  0  0  0  0  0  0  0  0
    4.5879   -3.9082    3.2136 O   0  0  0  0  0  0  0  0  0  0  0  0
    2.6491   -5.3870    2.5902 C   0  0  1  0  0  0  0  0  0  0  0  0
    1.6216   -5.5313    1.6185 O   0  0  0  0  0  0  0  0  0  0  0  0
    1.9513   -5.1947    3.9193 C   0  0  0  0  0  0  0  0  0  0  0  0
    1.9960   -4.1264    4.5252 O   0  0  0  0  0  0  0  0  0  0  0  0
   -0.3191   -4.7821    5.1098 H   0  0  0  0  0  0  0  0  0  0  0  0
   -0.2277   -6.1930    6.1602 H   0  0  0  0  0  0  0  0  0  0  0  0
   -1.0361   -6.2965    4.5923 H   0  0  0  0  0  0  0  0  0  0  0  0
    0.8486   -8.9415    6.0270 H   0  0  0  0  0  0  0  0  0  0  0  0
   -0.5367   -8.4119    5.0891 H   0  0  0  0  0  0  0  0  0  0  0  0
    0.4971  -10.8617    4.7151 H   0  0  0  0  0  0  0  0  0  0  0  0
    0.0221  -10.7681    2.2388 H   0  0  0  0  0  0  0  0  0  0  0  0
   -0.0318   -9.0107    2.2972 H   0  0  0  0  0  0  0  0  0  0  0  0
   -1.2505   -9.9508    3.1458 H   0  0  0  0  0  0  0  0  0  0  0  0
    3.3483   -8.8871    5.6477 H   0  0  0  0  0  0  0  0  0  0  0  0
    4.2650   -8.5649    2.4117 H   0  0  0  0  0  0  0  0  0  0  0  0
    2.3827   -9.0727    1.3524 H   0  0  0  0  0  0  0  0  0  0  0  0
    4.4070   -6.3156    3.5283 H   0  0  0  0  0  0  0  0  0  0  0  0
    3.8712   -6.0009    0.5899 H   0  0  0  0  0  0  0  0  0  0  0  0
    7.7072   -4.2447    1.4977 H   0  0  0  0  0  0  0  0  0  0  0  0
    7.2123   -5.6900    2.5626 H   0  0  0  0  0  0  0  0  0  0  0  0
    6.2280   -4.2351   -1.5798 H   0  0  0  0  0  0  0  0  0  0  0  0
    2.2649   -2.8413   -2.0556 H   0  0  0  0  0  0  0  0  0  0  0  0
    1.8442   -3.2405    0.3501 H   0  0  0  0  0  0  0  0  0  0  0  0
    4.3674   -1.2256    0.6377 H   0  0  0  0  0  0  0  0  0  0  0  0
    5.2148   -1.8366    2.0315 H   0  0  0  0  0  0  0  0  0  0  0  0
    3.4683   -1.5299    2.1200 H   0  0  0  0  0  0  0  0  0  0  0  0
    4.6298   -4.5938    3.8527 H   0  0  0  0  0  0  0  0  0  0  0  0
    2.0724   -5.7855    0.8273 H   0  0  0  0  0  0  0  0  0  0  0  0
  1  2  1  0
  1 32  1  0
  1 33  1  0
  1 34  1  0
  2 30  1  0
  2  3  2  0
  3  9  1  0
  3  4  1  0
  4  5  1  0
  4 35  1  0
  4 36  1  0
  5  6  1  0
  5  7  1  0
  5 37  1  1
  6 38  1  0
  6 39  1  0
  6 40  1  0
  7  8  2  0
  7  9  1  0
  9 10  1  1
  9 11  1  0
 10 41  1  0
 11 12  1  0
 11 13  1  0
 11 42  1  6
 12 43  1  0
 13 28  1  0
 13 14  1  0
 13 44  1  1
 14 26  1  0
 14 15  1  0
 14 45  1  6
 15 17  1  6
 15 16  1  0
 15 18  1  0
 16 17  1  0
 16 46  1  0
 16 47  1  0
 18 24  1  0
 18 19  2  0
 19 20  1  0
 19 48  1  0
 20 21  2  0
 20 22  1  0
 22 23  2  0
 22 49  1  0
 23 24  1  0
 23 50  1  0
 24 25  1  1
 24 26  1  0
 25 51  1  0
 25 52  1  0
 25 53  1  0
 26 27  1  1
 26 28  1  0
 27 54  1  0
 28 29  1  6
 28 30  1  0
 29 55  1  0
 30 31  2  0
M  END
>  <i_m_ct_stereo_status>  (218) 
1

>  <s_m_source_file>  (218) 
/var/tmp/pbs.5076255.sched01/tmp276pg2sv/48_ir7zhrj.sdf

>  <i_m_source_file_index>  (218) 
45

>  <i_lp_mmshare_version>  (218) 
48012

>  <i_f3d_flags>  (218) 
0

>  <s_epik_input>  (218) 
W0NIMl0xW0NAQEhdKFtDSDNdKUMoPU8pW0NAQF0oW09IXSkoW0NASF0yW09IXSlDMT1DKFtDSDNdKUMoPU8pW0NAXShbT0hdKShbQ0BASF0yW0NAQEhdM1tDQEBdNDVbQ0gyXU80KVtDQF0zKFtPSF0pW0NAQF02KFtDSDNdKUM1PVtDSF1DKD1PKVtDSF09W0NIXTY=

>  <s_epik_cmdline>  (218) 
J2VwaWtfcHl0aG9uJywgJy1waHQnLCAnMi4wJywgJy1waCcsICc3LjAnLCAnLXRuJywgJzgnLCAnLW1hJywgJzIwMCcsICctaW1hZScsICc8aW5maWxlLm1hZT4nLCAnLW9tYWUnLCAnPG91dGZpbGUubWFlPic=

>  <r_lp_tautomer_probability>  (218) 
1

>  <r_epik_Ionization_Penalty>  (218) 
0.000421165

>  <r_epik_Ionization_Penalty_Charging>  (218) 
0

>  <r_epik_Ionization_Penalty_Neutral>  (218) 
0.000421165

>  <r_epik_State_Penalty>  (218) 
-0

>  <r_epik_Charging_Adjusted_Penalty>  (218) 
0

>  <i_epik_Tot_Q>  (218) 
0

>  <i_epik_Tot_abs_Q>  (218) 
0

>  <s_lp_Force_Field>  (218) 
OPLS3e

>  <r_lp_Energy>  (218) 
91.619

>  <b_lp_Chiralities_Consistent>  (218) 
1

>  <s_lp_Variant>  (218) 
59:0-1

>  <s_i_glide_gridfile>  (218) 
pfpi4k_grid

>  <i_i_glide_lignum>  (218) 
45

>  <i_i_glide_rotatable_bonds>  (218) 
4

>  <r_i_docking_score>  (218) 
-2.86656

>  <r_i_glide_ligand_efficiency>  (218) 
-0.0924698

>  <r_i_glide_ligand_efficiency_sa>  (218) 
-0.290483

>  <r_i_glide_ligand_efficiency_ln>  (218) 
-0.646498

>  <r_i_glide_gscore>  (218) 
-2.86656

>  <r_i_glide_lipo>  (218) 
-0.321121

>  <r_i_glide_hbond>  (218) 
0

>  <r_i_glide_metal>  (218) 
-0

>  <r_i_glide_rewards>  (218) 
-0.487965

>  <r_i_glide_evdw>  (218) 
-30.0137

>  <r_i_glide_ecoul>  (218) 
-3.62134

>  <r_i_glide_erotb>  (218) 
0

>  <r_i_glide_esite>  (218) 
-0.0135906

>  <r_i_glide_emodel>  (218) 
-37.8482

>  <r_i_glide_energy>  (218) 
-33.6351

>  <r_i_glide_einternal>  (218) 
2.19496

>  <r_i_glide_intrahb_reward>  (218) 
-0

>  <i_i_glide_confnum>  (218) 
2

>  <i_i_glide_posenum>  (218) 
8

>  <r_i_glide_eff_state_penalty>  (218) 
0

>  <ligand_id>  (218) 
59

>  <original_smiles>  (218) 
CC1=C2CC(C)C(=O)C2(O)C(O)C2C3C4(CO4)C4=CC(=O)C=CC4(C)C3(O)C2(O)C1=O

>  <smiles>  (218) 
[H]OC12C(=O)C([H])(C([H])([H])[H])C([H])([H])C1=C(C([H])([H])[H])C(=O)C1(O[H])C([H])(C2([H])O[H])C2([H])C3(OC3([H])[H])C3=C([H])C(=O)C([H])=C([H])C3(C([H])([H])[H])C12O[H]

$$$$
60:0:0
     RDKit          3D

 36 40  0  0  1  0  0  0  0  0999 V2000
    2.2205   -9.4244    2.1313 C   0  0  0  0  0  0  0  0  0  0  0  0
    1.4406   -8.2513    2.1062 C   0  0  0  0  0  0  0  0  0  0  0  0
    2.0447   -7.0142    1.8117 C   0  0  0  0  0  0  0  0  0  0  0  0
    3.4233   -6.9520    1.5255 C   0  0  0  0  0  0  0  0  0  0  0  0
    4.2285   -8.1329    1.5621 C   0  0  0  0  0  0  0  0  0  0  0  0
    3.6052   -9.3631    1.8641 C   0  0  0  0  0  0  0  0  0  0  0  0
    5.5531   -7.8438    1.2800 N   0  0  0  0  0  0  0  0  0  0  0  0
    5.5066   -6.5301    1.0716 C   0  0  0  0  0  0  0  0  0  0  0  0
    4.3100   -5.9233    1.1797 N   0  0  0  0  0  0  0  0  0  0  0  0
    4.0625   -4.4906    1.0212 C   0  0  0  0  0  0  0  0  0  0  0  0
    3.2067   -4.1708   -0.1726 C   0  0  0  0  0  0  0  0  0  0  0  0
    1.9723   -4.6671   -0.3116 N   0  0  0  0  0  0  0  0  0  0  0  0
    1.4158   -4.1632   -1.4920 N   0  0  0  0  0  0  0  0  0  0  0  0
    2.3414   -3.4366   -2.0605 C   0  0  0  0  0  0  0  0  0  0  0  0
    2.6161   -2.5269   -3.5431 S   0  0  0  0  0  0  0  0  0  0  0  0
    4.2259   -2.1061   -2.9537 C   0  0  0  0  0  0  0  0  0  0  0  0
    4.5129   -2.6606   -1.6761 C   0  0  0  0  0  0  0  0  0  0  0  0
    5.7608   -2.4563   -0.9312 C   0  0  0  0  0  0  0  0  0  0  0  0
    5.8068   -1.6765    0.2438 C   0  0  0  0  0  0  0  0  0  0  0  0
    7.0458   -1.4625    0.8712 C   0  0  0  0  0  0  0  0  0  0  0  0
    8.2105   -1.9405    0.3867 N   0  0  0  0  0  0  0  0  0  0  0  0
    8.1749   -2.6648   -0.7451 C   0  0  0  0  0  0  0  0  0  0  0  0
    6.9848   -2.9282   -1.4452 C   0  0  0  0  0  0  0  0  0  0  0  0
    3.4495   -3.4002   -1.2501 N   0  0  0  0  0  0  0  0  0  0  0  0
    1.7561  -10.3734    2.3516 H   0  0  0  0  0  0  0  0  0  0  0  0
    0.3771   -8.3058    2.2991 H   0  0  0  0  0  0  0  0  0  0  0  0
    1.4565   -6.1142    1.7947 H   0  0  0  0  0  0  0  0  0  0  0  0
    4.1941  -10.2698    1.8773 H   0  0  0  0  0  0  0  0  0  0  0  0
    6.4058   -5.9757    0.8350 H   0  0  0  0  0  0  0  0  0  0  0  0
    3.5460   -4.1491    1.9182 H   0  0  0  0  0  0  0  0  0  0  0  0
    5.0177   -3.9795    0.9960 H   0  0  0  0  0  0  0  0  0  0  0  0
    4.8837   -1.4781   -3.5337 H   0  0  0  0  0  0  0  0  0  0  0  0
    4.9140   -1.2281    0.6538 H   0  0  0  0  0  0  0  0  0  0  0  0
    7.1111   -0.8891    1.7807 H   0  0  0  0  0  0  0  0  0  0  0  0
    9.1166   -3.0351   -1.1127 H   0  0  0  0  0  0  0  0  0  0  0  0
    7.0276   -3.4588   -2.3835 H   0  0  0  0  0  0  0  0  0  0  0  0
  1  6  2  0
  1  2  1  0
  1 25  1  0
  2  3  2  0
  2 26  1  0
  3  4  1  0
  3 27  1  0
  4  9  1  0
  4  5  2  0
  5  6  1  0
  5  7  1  0
  6 28  1  0
  7  8  2  0
  8  9  1  0
  8 29  1  0
  9 10  1  0
 10 11  1  0
 10 30  1  0
 10 31  1  0
 11 24  1  0
 11 12  2  0
 12 13  1  0
 13 14  2  0
 14 24  1  0
 14 15  1  0
 15 16  1  0
 16 17  2  0
 16 32  1  0
 17 18  1  0
 17 24  1  0
 18 23  1  0
 18 19  2  0
 19 20  1  0
 19 33  1  0
 20 21  2  0
 20 34  1  0
 21 22  1  0
 22 23  2  0
 22 35  1  0
 23 36  1  0
M  END
>  <i_m_ct_stereo_status>  (219) 
1

>  <s_m_source_file>  (219) 
/var/tmp/pbs.5076255.sched01/tmp276pg2sv/48_ir7zhrj.sdf

>  <i_m_source_file_index>  (219) 
46

>  <i_lp_mmshare_version>  (219) 
48012

>  <i_f3d_flags>  (219) 
0

>  <s_epik_input>  (219) 
W2NIXTFbY0hdW2NIXVtjSF1jKGMxMiluW2NIXW4yW0NIMl1jKG5uMyluKGMzNCljKFtjSF1zNCktYzVbY0hdW2NIXW5bY0hdW2NIXTU=

>  <s_epik_cmdline>  (219) 
J2VwaWtfcHl0aG9uJywgJy1waHQnLCAnMi4wJywgJy1waCcsICc3LjAnLCAnLXRuJywgJzgnLCAnLW1hJywgJzIwMCcsICctaW1hZScsICc8aW5maWxlLm1hZT4nLCAnLW9tYWUnLCAnPG91dGZpbGUubWFlPic=

>  <r_epik_Ionization_Penalty>  (219) 
0.0479061

>  <r_epik_Ionization_Penalty_Charging>  (219) 
0

>  <r_epik_Ionization_Penalty_Neutral>  (219) 
0.0479061

>  <r_epik_State_Penalty>  (219) 
0.0399352

>  <r_epik_Charging_Adjusted_Penalty>  (219) 
0.0399352

>  <i_epik_Tot_Q>  (219) 
0

>  <i_epik_Tot_abs_Q>  (219) 
0

>  <s_lp_Force_Field>  (219) 
OPLS3e

>  <r_lp_Energy>  (219) 
31.0909

>  <b_lp_Chiralities_Consistent>  (219) 
1

>  <s_lp_Variant>  (219) 
60:0-1

>  <s_i_glide_gridfile>  (219) 
pfpi4k_grid

>  <i_i_glide_lignum>  (219) 
46

>  <i_i_glide_rotatable_bonds>  (219) 
3

>  <r_i_docking_score>  (219) 
-3.67845

>  <r_i_glide_ligand_efficiency>  (219) 
-0.153269

>  <r_i_glide_ligand_efficiency_sa>  (219) 
-0.442103

>  <r_i_glide_ligand_efficiency_ln>  (219) 
-0.880421

>  <r_i_glide_gscore>  (219) 
-3.67845

>  <r_i_glide_lipo>  (219) 
-0.536854

>  <r_i_glide_hbond>  (219) 
0

>  <r_i_glide_metal>  (219) 
-0

>  <r_i_glide_rewards>  (219) 
-1.65217

>  <r_i_glide_evdw>  (219) 
-28.5127

>  <r_i_glide_ecoul>  (219) 
-2.61002

>  <r_i_glide_erotb>  (219) 
0.511422

>  <r_i_glide_esite>  (219) 
-0.183704

>  <r_i_glide_emodel>  (219) 
-37.2997

>  <r_i_glide_energy>  (219) 
-31.1227

>  <r_i_glide_einternal>  (219) 
1.8518

>  <r_i_glide_intrahb_reward>  (219) 
-0

>  <i_i_glide_confnum>  (219) 
4

>  <i_i_glide_posenum>  (219) 
20

>  <r_i_glide_eff_state_penalty>  (219) 
0

>  <ligand_id>  (219) 
60

>  <original_smiles>  (219) 
c1ccc2c(c1)ncn2Cc1nnc2scc(-c3ccncc3)n12

>  <smiles>  (219) 
[H]c1nc([H])c([H])c(-c2c([H])sc3nnc(C([H])([H])n4c([H])nc5c([H])c([H])c([H])c([H])c54)n23)c1[H]

$$$$
60:0:1
     RDKit          3D

 36 40  0  0  1  0  0  0  0  0999 V2000
   -0.4415   -7.1008    2.9228 C   0  0  0  0  0  0  0  0  0  0  0  0
    0.1829   -7.2368    1.6651 C   0  0  0  0  0  0  0  0  0  0  0  0
    1.3757   -6.5327    1.4074 C   0  0  0  0  0  0  0  0  0  0  0  0
    1.9017   -5.6647    2.3903 C   0  0  0  0  0  0  0  0  0  0  0  0
    1.3061   -5.5420    3.6717 C   0  0  0  0  0  0  0  0  0  0  0  0
    0.1215   -6.2717    3.9164 C   0  0  0  0  0  0  0  0  0  0  0  0
    2.0209   -4.6811    4.4904 N   0  0  0  0  0  0  0  0  0  0  0  0
    3.0020   -4.2964    3.6771 C   0  0  0  0  0  0  0  0  0  0  0  0
    2.9917   -4.8028    2.4250 N   0  0  0  0  0  0  0  0  0  0  0  0
    4.0067   -4.6294    1.4122 C   0  0  0  0  0  0  0  0  0  0  0  0
    3.5331   -4.0716    0.0834 C   0  0  0  0  0  0  0  0  0  0  0  0
    2.2309   -3.9687   -0.1937 N   0  0  0  0  0  0  0  0  0  0  0  0
    2.0848   -3.4502   -1.4668 N   0  0  0  0  0  0  0  0  0  0  0  0
    3.2944   -3.2717   -1.9579 C   0  0  0  0  0  0  0  0  0  0  0  0
    4.0491   -2.7095   -3.4446 S   0  0  0  0  0  0  0  0  0  0  0  0
    5.6274   -3.0039   -2.6862 C   0  0  0  0  0  0  0  0  0  0  0  0
    5.5467   -3.4731   -1.3352 C   0  0  0  0  0  0  0  0  0  0  0  0
    6.7220   -3.7244   -0.4602 C   0  0  0  0  0  0  0  0  0  0  0  0
    6.8128   -4.8004    0.4502 C   0  0  0  0  0  0  0  0  0  0  0  0
    7.9405   -4.9596    1.2696 C   0  0  0  0  0  0  0  0  0  0  0  0
    9.0387   -4.2116    1.1339 N   0  0  0  0  0  0  0  0  0  0  0  0
    9.0227   -3.2576    0.1797 C   0  0  0  0  0  0  0  0  0  0  0  0
    7.9132   -2.9670   -0.6290 C   0  0  0  0  0  0  0  0  0  0  0  0
    4.2227   -3.6318   -1.0009 N   0  0  0  0  0  0  0  0  0  0  0  0
   -1.3451   -7.6540    3.1280 H   0  0  0  0  0  0  0  0  0  0  0  0
   -0.2425   -7.8688    0.8942 H   0  0  0  0  0  0  0  0  0  0  0  0
    1.8647   -6.6280    0.4527 H   0  0  0  0  0  0  0  0  0  0  0  0
   -0.3490   -6.1701    4.8805 H   0  0  0  0  0  0  0  0  0  0  0  0
    3.8059   -3.6557    4.0088 H   0  0  0  0  0  0  0  0  0  0  0  0
    4.8072   -4.0161    1.8419 H   0  0  0  0  0  0  0  0  0  0  0  0
    4.2962   -5.6773    1.2759 H   0  0  0  0  0  0  0  0  0  0  0  0
    6.5406   -2.8052   -3.2278 H   0  0  0  0  0  0  0  0  0  0  0  0
    6.0699   -5.5893    0.4449 H   0  0  0  0  0  0  0  0  0  0  0  0
    7.9152   -5.7238    2.0216 H   0  0  0  0  0  0  0  0  0  0  0  0
    9.9587   -2.7120    0.0664 H   0  0  0  0  0  0  0  0  0  0  0  0
    8.0202   -2.2542   -1.4234 H   0  0  0  0  0  0  0  0  0  0  0  0
  1  6  2  0
  1  2  1  0
  1 25  1  0
  2  3  2  0
  2 26  1  0
  3  4  1  0
  3 27  1  0
  4  9  1  0
  4  5  2  0
  5  6  1  0
  5  7  1  0
  6 28  1  0
  7  8  2  0
  8  9  1  0
  8 29  1  0
  9 10  1  0
 10 11  1  0
 10 30  1  0
 10 31  1  0
 11 24  1  0
 11 12  2  0
 12 13  1  0
 13 14  2  0
 14 24  1  0
 14 15  1  0
 15 16  1  0
 16 17  2  0
 16 32  1  0
 17 18  1  0
 17 24  1  0
 18 23  1  0
 18 19  2  0
 19 20  1  0
 19 33  1  0
 20 21  2  0
 20 34  1  0
 21 22  1  0
 22 23  2  0
 22 35  1  0
 23 36  1  0
M  END
>  <i_m_ct_stereo_status>  (220) 
1

>  <s_m_source_file>  (220) 
/var/tmp/pbs.5076255.sched01/tmp276pg2sv/48_ir7zhrj.sdf

>  <i_m_source_file_index>  (220) 
46

>  <i_lp_mmshare_version>  (220) 
48012

>  <i_f3d_flags>  (220) 
0

>  <s_epik_input>  (220) 
W2NIXTFbY0hdW2NIXVtjSF1jKGMxMiluW2NIXW4yW0NIMl1jKG5uMyluKGMzNCljKFtjSF1zNCktYzVbY0hdW2NIXW5bY0hdW2NIXTU=

>  <s_epik_cmdline>  (220) 
J2VwaWtfcHl0aG9uJywgJy1waHQnLCAnMi4wJywgJy1waCcsICc3LjAnLCAnLXRuJywgJzgnLCAnLW1hJywgJzIwMCcsICctaW1hZScsICc8aW5maWxlLm1hZT4nLCAnLW9tYWUnLCAnPG91dGZpbGUubWFlPic=

>  <r_epik_Ionization_Penalty>  (220) 
0.0479061

>  <r_epik_Ionization_Penalty_Charging>  (220) 
0

>  <r_epik_Ionization_Penalty_Neutral>  (220) 
0.0479061

>  <r_epik_State_Penalty>  (220) 
0.0399352

>  <r_epik_Charging_Adjusted_Penalty>  (220) 
0.0399352

>  <i_epik_Tot_Q>  (220) 
0

>  <i_epik_Tot_abs_Q>  (220) 
0

>  <s_lp_Force_Field>  (220) 
OPLS3e

>  <r_lp_Energy>  (220) 
31.0909

>  <b_lp_Chiralities_Consistent>  (220) 
1

>  <s_lp_Variant>  (220) 
60:0-1

>  <s_i_glide_gridfile>  (220) 
pfpi4k_grid

>  <i_i_glide_lignum>  (220) 
46

>  <i_i_glide_rotatable_bonds>  (220) 
3

>  <r_i_docking_score>  (220) 
-3.19851

>  <r_i_glide_ligand_efficiency>  (220) 
-0.133271

>  <r_i_glide_ligand_efficiency_sa>  (220) 
-0.38442

>  <r_i_glide_ligand_efficiency_ln>  (220) 
-0.765549

>  <r_i_glide_gscore>  (220) 
-3.19851

>  <r_i_glide_lipo>  (220) 
-0.954746

>  <r_i_glide_hbond>  (220) 
0

>  <r_i_glide_metal>  (220) 
-0

>  <r_i_glide_rewards>  (220) 
-1.14332

>  <r_i_glide_evdw>  (220) 
-29.1276

>  <r_i_glide_ecoul>  (220) 
-0.498166

>  <r_i_glide_erotb>  (220) 
0.511422

>  <r_i_glide_esite>  (220) 
-0.080755

>  <r_i_glide_emodel>  (220) 
-33.0075

>  <r_i_glide_energy>  (220) 
-29.6258

>  <r_i_glide_einternal>  (220) 
1.75143

>  <r_i_glide_intrahb_reward>  (220) 
-0

>  <i_i_glide_confnum>  (220) 
3

>  <i_i_glide_posenum>  (220) 
12

>  <r_i_glide_eff_state_penalty>  (220) 
0

>  <ligand_id>  (220) 
60

>  <original_smiles>  (220) 
c1ccc2c(c1)ncn2Cc1nnc2scc(-c3ccncc3)n12

>  <smiles>  (220) 
[H]c1nc([H])c([H])c(-c2c([H])sc3nnc(C([H])([H])n4c([H])nc5c([H])c([H])c([H])c([H])c54)n23)c1[H]

$$$$
60:0:2
     RDKit          3D

 36 40  0  0  1  0  0  0  0  0999 V2000
   -1.7437    2.5361    4.0428 C   0  0  0  0  0  0  0  0  0  0  0  0
   -0.9838    2.1987    2.9105 C   0  0  0  0  0  0  0  0  0  0  0  0
   -0.2583    0.9954    2.8697 C   0  0  0  0  0  0  0  0  0  0  0  0
   -0.2982    0.1342    3.9796 C   0  0  0  0  0  0  0  0  0  0  0  0
   -1.0696    0.4560    5.1382 C   0  0  0  0  0  0  0  0  0  0  0  0
   -1.7866    1.6724    5.1560 C   0  0  0  0  0  0  0  0  0  0  0  0
   -0.9861   -0.5452    6.0930 N   0  0  0  0  0  0  0  0  0  0  0  0
   -0.1483   -1.4011    5.5064 C   0  0  0  0  0  0  0  0  0  0  0  0
    0.2851   -1.0970    4.2622 N   0  0  0  0  0  0  0  0  0  0  0  0
    1.1513   -1.9142    3.4158 C   0  0  0  0  0  0  0  0  0  0  0  0
    2.5251   -1.3190    3.1732 C   0  0  0  0  0  0  0  0  0  0  0  0
    2.9011   -0.1363    3.6823 N   0  0  0  0  0  0  0  0  0  0  0  0
    4.2003    0.1409    3.2377 N   0  0  0  0  0  0  0  0  0  0  0  0
    4.5694   -0.8614    2.4833 C   0  0  0  0  0  0  0  0  0  0  0  0
    5.9551   -1.3635    1.5111 S   0  0  0  0  0  0  0  0  0  0  0  0
    5.0914   -2.8628    1.1156 C   0  0  0  0  0  0  0  0  0  0  0  0
    3.7946   -2.9306    1.7175 C   0  0  0  0  0  0  0  0  0  0  0  0
    2.8801   -4.0807    1.5913 C   0  0  0  0  0  0  0  0  0  0  0  0
    2.6314   -4.6720    0.3331 C   0  0  0  0  0  0  0  0  0  0  0  0
    1.7817   -5.7909    0.2542 C   0  0  0  0  0  0  0  0  0  0  0  0
    1.1253   -6.2965    1.3161 N   0  0  0  0  0  0  0  0  0  0  0  0
    1.4210   -5.7875    2.5253 C   0  0  0  0  0  0  0  0  0  0  0  0
    2.3096   -4.7153    2.7109 C   0  0  0  0  0  0  0  0  0  0  0  0
    3.5607   -1.7930    2.4414 N   0  0  0  0  0  0  0  0  0  0  0  0
   -2.2900    3.4622    4.0518 H   0  0  0  0  0  0  0  0  0  0  0  0
   -0.9397    2.8770    2.0761 H   0  0  0  0  0  0  0  0  0  0  0  0
    0.3319    0.7313    2.0072 H   0  0  0  0  0  0  0  0  0  0  0  0
   -2.3689    1.9396    6.0240 H   0  0  0  0  0  0  0  0  0  0  0  0
    0.1404   -2.3212    6.0027 H   0  0  0  0  0  0  0  0  0  0  0  0
    1.2278   -2.8516    3.9484 H   0  0  0  0  0  0  0  0  0  0  0  0
    0.6519   -2.0789    2.4611 H   0  0  0  0  0  0  0  0  0  0  0  0
    5.5500   -3.6281    0.4989 H   0  0  0  0  0  0  0  0  0  0  0  0
    3.1044   -4.3052   -0.5664 H   0  0  0  0  0  0  0  0  0  0  0  0
    1.5563   -6.2481   -0.6962 H   0  0  0  0  0  0  0  0  0  0  0  0
    0.9166   -6.2361    3.3688 H   0  0  0  0  0  0  0  0  0  0  0  0
    2.5632   -4.4016    3.7123 H   0  0  0  0  0  0  0  0  0  0  0  0
  1  6  2  0
  1  2  1  0
  1 25  1  0
  2  3  2  0
  2 26  1  0
  3  4  1  0
  3 27  1  0
  4  9  1  0
  4  5  2  0
  5  6  1  0
  5  7  1  0
  6 28  1  0
  7  8  2  0
  8  9  1  0
  8 29  1  0
  9 10  1  0
 10 11  1  0
 10 30  1  0
 10 31  1  0
 11 24  1  0
 11 12  2  0
 12 13  1  0
 13 14  2  0
 14 24  1  0
 14 15  1  0
 15 16  1  0
 16 17  2  0
 16 32  1  0
 17 18  1  0
 17 24  1  0
 18 23  1  0
 18 19  2  0
 19 20  1  0
 19 33  1  0
 20 21  2  0
 20 34  1  0
 21 22  1  0
 22 23  2  0
 22 35  1  0
 23 36  1  0
M  END
>  <i_m_ct_stereo_status>  (221) 
1

>  <s_m_source_file>  (221) 
/var/tmp/pbs.5076255.sched01/tmp276pg2sv/48_ir7zhrj.sdf

>  <i_m_source_file_index>  (221) 
46

>  <i_lp_mmshare_version>  (221) 
48012

>  <i_f3d_flags>  (221) 
0

>  <s_epik_input>  (221) 
W2NIXTFbY0hdW2NIXVtjSF1jKGMxMiluW2NIXW4yW0NIMl1jKG5uMyluKGMzNCljKFtjSF1zNCktYzVbY0hdW2NIXW5bY0hdW2NIXTU=

>  <s_epik_cmdline>  (221) 
J2VwaWtfcHl0aG9uJywgJy1waHQnLCAnMi4wJywgJy1waCcsICc3LjAnLCAnLXRuJywgJzgnLCAnLW1hJywgJzIwMCcsICctaW1hZScsICc8aW5maWxlLm1hZT4nLCAnLW9tYWUnLCAnPG91dGZpbGUubWFlPic=

>  <r_epik_Ionization_Penalty>  (221) 
0.0479061

>  <r_epik_Ionization_Penalty_Charging>  (221) 
0

>  <r_epik_Ionization_Penalty_Neutral>  (221) 
0.0479061

>  <r_epik_State_Penalty>  (221) 
0.0399352

>  <r_epik_Charging_Adjusted_Penalty>  (221) 
0.0399352

>  <i_epik_Tot_Q>  (221) 
0

>  <i_epik_Tot_abs_Q>  (221) 
0

>  <s_lp_Force_Field>  (221) 
OPLS3e

>  <r_lp_Energy>  (221) 
31.0909

>  <b_lp_Chiralities_Consistent>  (221) 
1

>  <s_lp_Variant>  (221) 
60:0-1

>  <s_i_glide_gridfile>  (221) 
pfpi4k_grid

>  <i_i_glide_lignum>  (221) 
46

>  <i_i_glide_rotatable_bonds>  (221) 
3

>  <r_i_docking_score>  (221) 
-3.09704

>  <r_i_glide_ligand_efficiency>  (221) 
-0.129043

>  <r_i_glide_ligand_efficiency_sa>  (221) 
-0.372225

>  <r_i_glide_ligand_efficiency_ln>  (221) 
-0.741264

>  <r_i_glide_gscore>  (221) 
-3.09704

>  <r_i_glide_lipo>  (221) 
-0.254215

>  <r_i_glide_hbond>  (221) 
-0.146042

>  <r_i_glide_metal>  (221) 
-0

>  <r_i_glide_rewards>  (221) 
-1.24115

>  <r_i_glide_evdw>  (221) 
-24.7756

>  <r_i_glide_ecoul>  (221) 
-4.61492

>  <r_i_glide_erotb>  (221) 
0.511422

>  <r_i_glide_esite>  (221) 
-0.0360306

>  <r_i_glide_emodel>  (221) 
-34.2326

>  <r_i_glide_energy>  (221) 
-29.3905

>  <r_i_glide_einternal>  (221) 
1.08295

>  <r_i_glide_intrahb_reward>  (221) 
-0

>  <i_i_glide_confnum>  (221) 
3

>  <i_i_glide_posenum>  (221) 
3

>  <r_i_glide_eff_state_penalty>  (221) 
0

>  <ligand_id>  (221) 
60

>  <original_smiles>  (221) 
c1ccc2c(c1)ncn2Cc1nnc2scc(-c3ccncc3)n12

>  <smiles>  (221) 
[H]c1nc([H])c([H])c(-c2c([H])sc3nnc(C([H])([H])n4c([H])nc5c([H])c([H])c([H])c([H])c54)n23)c1[H]

$$$$
60:1:0
     RDKit          3D

 37 41  0  0  1  0  0  0  0  0999 V2000
    3.0223   -1.5417   -3.5440 C   0  0  0  0  0  0  0  0  0  0  0  0
    2.5874   -2.8025   -3.0928 C   0  0  0  0  0  0  0  0  0  0  0  0
    2.9514   -3.2834   -1.8217 C   0  0  0  0  0  0  0  0  0  0  0  0
    3.7757   -2.4823   -1.0358 C   0  0  0  0  0  0  0  0  0  0  0  0
    4.1981   -1.2201   -1.4891 C   0  0  0  0  0  0  0  0  0  0  0  0
    3.8391   -0.7176   -2.7310 C   0  0  0  0  0  0  0  0  0  0  0  0
    4.9671   -0.6635   -0.4644 N   0  0  0  0  0  0  0  0  0  0  0  0
    5.0447   -1.5300    0.5806 C   0  0  0  0  0  0  0  0  0  0  0  0
    4.3343   -2.6370    0.2384 N   0  0  0  0  0  0  0  0  0  0  0  0
    4.0769   -3.8603    1.0304 C   0  0  0  0  0  0  0  0  0  0  0  0
    5.2731   -4.7806    1.1208 C   0  0  0  0  0  0  0  0  0  0  0  0
    6.5203   -4.3519    0.8910 N   0  0  0  0  0  0  0  0  0  0  0  0
    7.3854   -5.4371    1.0287 N   0  0  0  0  0  0  0  0  0  0  0  0
    6.6671   -6.4719    1.3477 C   0  0  0  0  0  0  0  0  0  0  0  0
    6.8687   -8.1910    1.6833 S   0  0  0  0  0  0  0  0  0  0  0  0
    5.1109   -8.3215    1.9594 C   0  0  0  0  0  0  0  0  0  0  0  0
    4.4349   -7.0662    1.8059 C   0  0  0  0  0  0  0  0  0  0  0  0
    2.9876   -6.8625    2.0521 C   0  0  0  0  0  0  0  0  0  0  0  0
    2.0390   -7.8325    1.6624 C   0  0  0  0  0  0  0  0  0  0  0  0
    0.6676   -7.6094    1.8962 C   0  0  0  0  0  0  0  0  0  0  0  0
    0.1920   -6.4790    2.4588 N   0  0  0  0  0  0  0  0  0  0  0  0
    1.0984   -5.5956    2.9151 C   0  0  0  0  0  0  0  0  0  0  0  0
    2.4868   -5.7556    2.7736 C   0  0  0  0  0  0  0  0  0  0  0  0
    5.3391   -6.1051    1.4388 N   0  0  0  0  0  0  0  0  0  0  0  0
    2.6989   -1.1878   -4.5120 H   0  0  0  0  0  0  0  0  0  0  0  0
    1.9534   -3.4081   -3.7190 H   0  0  0  0  0  0  0  0  0  0  0  0
    2.5958   -4.2516   -1.4864 H   0  0  0  0  0  0  0  0  0  0  0  0
    4.1357    0.2684   -3.0624 H   0  0  0  0  0  0  0  0  0  0  0  0
    5.5605   -1.3533    1.5242 H   0  0  0  0  0  0  0  0  0  0  0  0
    3.8662   -3.4680    2.0250 H   0  0  0  0  0  0  0  0  0  0  0  0
    3.1836   -4.3679    0.6461 H   0  0  0  0  0  0  0  0  0  0  0  0
    4.6446   -9.2536    2.2452 H   0  0  0  0  0  0  0  0  0  0  0  0
    2.3513   -8.7603    1.2088 H   0  0  0  0  0  0  0  0  0  0  0  0
   -0.0692   -8.3553    1.6332 H   0  0  0  0  0  0  0  0  0  0  0  0
    0.6990   -4.7118    3.3813 H   0  0  0  0  0  0  0  0  0  0  0  0
    3.1460   -5.0439    3.2486 H   0  0  0  0  0  0  0  0  0  0  0  0
    5.3485    0.2914   -0.4753 H   0  0  0  0  0  0  0  0  0  0  0  0
  1  6  2  0
  1  2  1  0
  1 25  1  0
  2  3  2  0
  2 26  1  0
  3  4  1  0
  3 27  1  0
  4  9  1  0
  4  5  2  0
  5  6  1  0
  5  7  1  0
  6 28  1  0
  7  8  2  0
  7 37  1  0
  8  9  1  0
  8 29  1  0
  9 10  1  0
 10 11  1  0
 10 30  1  0
 10 31  1  0
 11 24  1  0
 11 12  2  0
 12 13  1  0
 13 14  2  0
 14 24  1  0
 14 15  1  0
 15 16  1  0
 16 17  2  0
 16 32  1  0
 17 18  1  0
 17 24  1  0
 18 23  1  0
 18 19  2  0
 19 20  1  0
 19 33  1  0
 20 21  2  0
 20 34  1  0
 21 22  1  0
 22 23  2  0
 22 35  1  0
 23 36  1  0
M  CHG  1   7   1
M  END
>  <i_m_ct_stereo_status>  (222) 
1

>  <s_m_source_file>  (222) 
/var/tmp/pbs.5076255.sched01/tmp276pg2sv/48_ir7zhrj.sdf

>  <i_m_source_file_index>  (222) 
47

>  <i_lp_mmshare_version>  (222) 
48012

>  <i_f3d_flags>  (222) 
0

>  <s_epik_input>  (222) 
W2NIXTFbY0hdW2NIXVtjSF1jKGMxMiluW2NIXW4yW0NIMl1jKG5uMyluKGMzNCljKFtjSF1zNCktYzVbY0hdW2NIXW5bY0hdW2NIXTU=

>  <s_epik_cmdline>  (222) 
J2VwaWtfcHl0aG9uJywgJy1waHQnLCAnMi4wJywgJy1waCcsICc3LjAnLCAnLXRuJywgJzgnLCAnLW1hJywgJzIwMCcsICctaW1hZScsICc8aW5maWxlLm1hZT4nLCAnLW9tYWUnLCAnPG91dGZpbGUubWFlPic=

>  <r_epik_Ionization_Penalty>  (222) 
1.57777

>  <r_epik_Ionization_Penalty_Charging>  (222) 
1.57306

>  <r_epik_Ionization_Penalty_Neutral>  (222) 
0.00471539

>  <r_epik_State_Penalty>  (222) 
1.67243

>  <r_epik_Charging_Adjusted_Penalty>  (222) 
3.24548

>  <i_epik_Tot_Q>  (222) 
1

>  <i_epik_Tot_abs_Q>  (222) 
1

>  <s_lp_Force_Field>  (222) 
OPLS3e

>  <r_lp_Energy>  (222) 
36.0127

>  <b_lp_Chiralities_Consistent>  (222) 
1

>  <s_lp_Variant>  (222) 
60:0-2

>  <s_i_glide_gridfile>  (222) 
pfpi4k_grid

>  <i_i_glide_lignum>  (222) 
47

>  <i_i_glide_rotatable_bonds>  (222) 
3

>  <r_i_docking_score>  (222) 
-4.95374

>  <r_i_glide_ligand_efficiency>  (222) 
-0.206406

>  <r_i_glide_ligand_efficiency_sa>  (222) 
-0.595377

>  <r_i_glide_ligand_efficiency_ln>  (222) 
-1.18566

>  <r_i_glide_gscore>  (222) 
-4.95374

>  <r_i_glide_lipo>  (222) 
-0.635248

>  <r_i_glide_hbond>  (222) 
-0.131342

>  <r_i_glide_metal>  (222) 
-0

>  <r_i_glide_rewards>  (222) 
-1.51185

>  <r_i_glide_evdw>  (222) 
-29.2691

>  <r_i_glide_ecoul>  (222) 
-11.266

>  <r_i_glide_erotb>  (222) 
0.50869

>  <r_i_glide_esite>  (222) 
-0.0306377

>  <r_i_glide_emodel>  (222) 
-52.1353

>  <r_i_glide_energy>  (222) 
-40.5351

>  <r_i_glide_einternal>  (222) 
0.968952

>  <r_i_glide_intrahb_reward>  (222) 
-0

>  <i_i_glide_confnum>  (222) 
3

>  <i_i_glide_posenum>  (222) 
14

>  <r_i_glide_eff_state_penalty>  (222) 
0

>  <ligand_id>  (222) 
60

>  <original_smiles>  (222) 
c1ccc2c(c1)ncn2Cc1nnc2scc(-c3ccncc3)n12

>  <smiles>  (222) 
[H]c1nc([H])c([H])c(-c2c([H])sc3nnc(C([H])([H])n4c([H])[n+]([H])c5c([H])c([H])c([H])c([H])c54)n23)c1[H]

$$$$
60:1:1
     RDKit          3D

 37 41  0  0  1  0  0  0  0  0999 V2000
    0.7174   -8.8114    3.1893 C   0  0  0  0  0  0  0  0  0  0  0  0
    0.6891   -7.4165    2.9722 C   0  0  0  0  0  0  0  0  0  0  0  0
    1.6817   -6.7587    2.2057 C   0  0  0  0  0  0  0  0  0  0  0  0
    2.7120   -7.5506    1.6851 C   0  0  0  0  0  0  0  0  0  0  0  0
    2.7346   -8.9505    1.9136 C   0  0  0  0  0  0  0  0  0  0  0  0
    1.7504   -9.6093    2.6496 C   0  0  0  0  0  0  0  0  0  0  0  0
    3.8614   -9.4542    1.2704 N   0  0  0  0  0  0  0  0  0  0  0  0
    4.5343   -8.4244    0.6923 C   0  0  0  0  0  0  0  0  0  0  0  0
    3.8550   -7.2615    0.9113 N   0  0  0  0  0  0  0  0  0  0  0  0
    4.1599   -5.8706    0.4232 C   0  0  0  0  0  0  0  0  0  0  0  0
    4.4268   -4.8811    1.5335 C   0  0  0  0  0  0  0  0  0  0  0  0
    4.5864   -5.2526    2.8058 N   0  0  0  0  0  0  0  0  0  0  0  0
    4.7558   -4.0988    3.5821 N   0  0  0  0  0  0  0  0  0  0  0  0
    4.7305   -3.0732    2.7742 C   0  0  0  0  0  0  0  0  0  0  0  0
    4.8569   -1.3046    2.7922 S   0  0  0  0  0  0  0  0  0  0  0  0
    4.6518   -1.3002    1.0233 C   0  0  0  0  0  0  0  0  0  0  0  0
    4.5069   -2.6184    0.4856 C   0  0  0  0  0  0  0  0  0  0  0  0
    4.3768   -2.9558   -0.9432 C   0  0  0  0  0  0  0  0  0  0  0  0
    3.1446   -2.8467   -1.6195 C   0  0  0  0  0  0  0  0  0  0  0  0
    3.0891   -3.0560   -3.0127 C   0  0  0  0  0  0  0  0  0  0  0  0
    4.1732   -3.3551   -3.7571 N   0  0  0  0  0  0  0  0  0  0  0  0
    5.3526   -3.4519   -3.1135 C   0  0  0  0  0  0  0  0  0  0  0  0
    5.5119   -3.2485   -1.7281 C   0  0  0  0  0  0  0  0  0  0  0  0
    4.5417   -3.5327    1.4889 N   0  0  0  0  0  0  0  0  0  0  0  0
   -0.0530   -9.2869    3.7882 H   0  0  0  0  0  0  0  0  0  0  0  0
   -0.1042   -6.8461    3.4317 H   0  0  0  0  0  0  0  0  0  0  0  0
    1.6807   -5.6882    2.0729 H   0  0  0  0  0  0  0  0  0  0  0  0
    1.7772  -10.6787    2.8155 H   0  0  0  0  0  0  0  0  0  0  0  0
    5.4171   -8.5445    0.0829 H   0  0  0  0  0  0  0  0  0  0  0  0
    5.0681   -5.9434   -0.1796 H   0  0  0  0  0  0  0  0  0  0  0  0
    3.3426   -5.5342   -0.2256 H   0  0  0  0  0  0  0  0  0  0  0  0
    4.6562   -0.3689    0.4700 H   0  0  0  0  0  0  0  0  0  0  0  0
    2.2547   -2.5364   -1.0976 H   0  0  0  0  0  0  0  0  0  0  0  0
    2.1508   -2.9872   -3.5444 H   0  0  0  0  0  0  0  0  0  0  0  0
    6.2016   -3.6954   -3.7282 H   0  0  0  0  0  0  0  0  0  0  0  0
    6.5013   -3.2634   -1.2966 H   0  0  0  0  0  0  0  0  0  0  0  0
    4.1154  -10.4397    1.1692 H   0  0  0  0  0  0  0  0  0  0  0  0
  1  6  2  0
  1  2  1  0
  1 25  1  0
  2  3  2  0
  2 26  1  0
  3  4  1  0
  3 27  1  0
  4  9  1  0
  4  5  2  0
  5  6  1  0
  5  7  1  0
  6 28  1  0
  7  8  2  0
  7 37  1  0
  8  9  1  0
  8 29  1  0
  9 10  1  0
 10 11  1  0
 10 30  1  0
 10 31  1  0
 11 24  1  0
 11 12  2  0
 12 13  1  0
 13 14  2  0
 14 24  1  0
 14 15  1  0
 15 16  1  0
 16 17  2  0
 16 32  1  0
 17 18  1  0
 17 24  1  0
 18 23  1  0
 18 19  2  0
 19 20  1  0
 19 33  1  0
 20 21  2  0
 20 34  1  0
 21 22  1  0
 22 23  2  0
 22 35  1  0
 23 36  1  0
M  CHG  1   7   1
M  END
>  <i_m_ct_stereo_status>  (223) 
1

>  <s_m_source_file>  (223) 
/var/tmp/pbs.5076255.sched01/tmp276pg2sv/48_ir7zhrj.sdf

>  <i_m_source_file_index>  (223) 
47

>  <i_lp_mmshare_version>  (223) 
48012

>  <i_f3d_flags>  (223) 
0

>  <s_epik_input>  (223) 
W2NIXTFbY0hdW2NIXVtjSF1jKGMxMiluW2NIXW4yW0NIMl1jKG5uMyluKGMzNCljKFtjSF1zNCktYzVbY0hdW2NIXW5bY0hdW2NIXTU=

>  <s_epik_cmdline>  (223) 
J2VwaWtfcHl0aG9uJywgJy1waHQnLCAnMi4wJywgJy1waCcsICc3LjAnLCAnLXRuJywgJzgnLCAnLW1hJywgJzIwMCcsICctaW1hZScsICc8aW5maWxlLm1hZT4nLCAnLW9tYWUnLCAnPG91dGZpbGUubWFlPic=

>  <r_epik_Ionization_Penalty>  (223) 
1.57777

>  <r_epik_Ionization_Penalty_Charging>  (223) 
1.57306

>  <r_epik_Ionization_Penalty_Neutral>  (223) 
0.00471539

>  <r_epik_State_Penalty>  (223) 
1.67243

>  <r_epik_Charging_Adjusted_Penalty>  (223) 
3.24548

>  <i_epik_Tot_Q>  (223) 
1

>  <i_epik_Tot_abs_Q>  (223) 
1

>  <s_lp_Force_Field>  (223) 
OPLS3e

>  <r_lp_Energy>  (223) 
36.0127

>  <b_lp_Chiralities_Consistent>  (223) 
1

>  <s_lp_Variant>  (223) 
60:0-2

>  <s_i_glide_gridfile>  (223) 
pfpi4k_grid

>  <i_i_glide_lignum>  (223) 
47

>  <i_i_glide_rotatable_bonds>  (223) 
3

>  <r_i_docking_score>  (223) 
-4.17321

>  <r_i_glide_ligand_efficiency>  (223) 
-0.173884

>  <r_i_glide_ligand_efficiency_sa>  (223) 
-0.501568

>  <r_i_glide_ligand_efficiency_ln>  (223) 
-0.998841

>  <r_i_glide_gscore>  (223) 
-4.17321

>  <r_i_glide_lipo>  (223) 
-0.595569

>  <r_i_glide_hbond>  (223) 
-0.2

>  <r_i_glide_metal>  (223) 
-0

>  <r_i_glide_rewards>  (223) 
-1.3939

>  <r_i_glide_evdw>  (223) 
-29.5506

>  <r_i_glide_ecoul>  (223) 
-6.11549

>  <r_i_glide_erotb>  (223) 
0.50869

>  <r_i_glide_esite>  (223) 
-0.0975743

>  <r_i_glide_emodel>  (223) 
-44.611

>  <r_i_glide_energy>  (223) 
-35.6661

>  <r_i_glide_einternal>  (223) 
2.59326

>  <r_i_glide_intrahb_reward>  (223) 
-0

>  <i_i_glide_confnum>  (223) 
5

>  <i_i_glide_posenum>  (223) 
3

>  <r_i_glide_eff_state_penalty>  (223) 
0

>  <ligand_id>  (223) 
60

>  <original_smiles>  (223) 
c1ccc2c(c1)ncn2Cc1nnc2scc(-c3ccncc3)n12

>  <smiles>  (223) 
[H]c1nc([H])c([H])c(-c2c([H])sc3nnc(C([H])([H])n4c([H])[n+]([H])c5c([H])c([H])c([H])c([H])c54)n23)c1[H]

$$$$
60:1:2
     RDKit          3D

 37 41  0  0  1  0  0  0  0  0999 V2000
    0.1554   -2.0939    4.7362 C   0  0  0  0  0  0  0  0  0  0  0  0
    0.9514   -2.9499    3.9457 C   0  0  0  0  0  0  0  0  0  0  0  0
    1.7160   -2.4553    2.8647 C   0  0  0  0  0  0  0  0  0  0  0  0
    1.6705   -1.0797    2.6200 C   0  0  0  0  0  0  0  0  0  0  0  0
    0.8729   -0.2293    3.4182 C   0  0  0  0  0  0  0  0  0  0  0  0
    0.0995   -0.7049    4.4779 C   0  0  0  0  0  0  0  0  0  0  0  0
    1.0337    1.0655    2.9219 N   0  0  0  0  0  0  0  0  0  0  0  0
    1.8972    1.0461    1.8687 C   0  0  0  0  0  0  0  0  0  0  0  0
    2.3088   -0.2474    1.6778 N   0  0  0  0  0  0  0  0  0  0  0  0
    3.2083   -0.7950    0.6036 C   0  0  0  0  0  0  0  0  0  0  0  0
    4.3965   -1.5800    1.0954 C   0  0  0  0  0  0  0  0  0  0  0  0
    4.7072   -1.6719    2.3907 N   0  0  0  0  0  0  0  0  0  0  0  0
    5.8097   -2.5113    2.4977 N   0  0  0  0  0  0  0  0  0  0  0  0
    6.1977   -2.8252    1.2860 C   0  0  0  0  0  0  0  0  0  0  0  0
    7.4792   -3.7225    0.4631 S   0  0  0  0  0  0  0  0  0  0  0  0
    6.7271   -3.2868   -1.0830 C   0  0  0  0  0  0  0  0  0  0  0  0
    5.5423   -2.5139   -0.9273 C   0  0  0  0  0  0  0  0  0  0  0  0
    4.6864   -2.0440   -2.0211 C   0  0  0  0  0  0  0  0  0  0  0  0
    4.0870   -2.9656   -2.9020 C   0  0  0  0  0  0  0  0  0  0  0  0
    3.3547   -2.4811   -3.9946 C   0  0  0  0  0  0  0  0  0  0  0  0
    3.2362   -1.1746   -4.2931 N   0  0  0  0  0  0  0  0  0  0  0  0
    3.8102   -0.2905   -3.4578 C   0  0  0  0  0  0  0  0  0  0  0  0
    4.5466   -0.6763   -2.3256 C   0  0  0  0  0  0  0  0  0  0  0  0
    5.3203   -2.2712    0.3960 N   0  0  0  0  0  0  0  0  0  0  0  0
   -0.4236   -2.5076    5.5516 H   0  0  0  0  0  0  0  0  0  0  0  0
    0.9734   -4.0068    4.1714 H   0  0  0  0  0  0  0  0  0  0  0  0
    2.3256   -3.1158    2.2697 H   0  0  0  0  0  0  0  0  0  0  0  0
   -0.5048   -0.0385    5.0767 H   0  0  0  0  0  0  0  0  0  0  0  0
    2.1725    1.9151    1.2836 H   0  0  0  0  0  0  0  0  0  0  0  0
    2.6275   -1.3945   -0.0893 H   0  0  0  0  0  0  0  0  0  0  0  0
    3.6369    0.0692    0.0880 H   0  0  0  0  0  0  0  0  0  0  0  0
    7.1554   -3.5963   -2.0283 H   0  0  0  0  0  0  0  0  0  0  0  0
    4.2214   -4.0311   -2.7888 H   0  0  0  0  0  0  0  0  0  0  0  0
    2.8743   -3.1576   -4.6851 H   0  0  0  0  0  0  0  0  0  0  0  0
    3.6937    0.7534   -3.7152 H   0  0  0  0  0  0  0  0  0  0  0  0
    5.0435    0.0736   -1.7344 H   0  0  0  0  0  0  0  0  0  0  0  0
    0.5816    1.9080    3.2624 H   0  0  0  0  0  0  0  0  0  0  0  0
  1  6  2  0
  1  2  1  0
  1 25  1  0
  2  3  2  0
  2 26  1  0
  3  4  1  0
  3 27  1  0
  4  9  1  0
  4  5  2  0
  5  6  1  0
  5  7  1  0
  6 28  1  0
  7  8  2  0
  7 37  1  0
  8  9  1  0
  8 29  1  0
  9 10  1  0
 10 11  1  0
 10 30  1  0
 10 31  1  0
 11 24  1  0
 11 12  2  0
 12 13  1  0
 13 14  2  0
 14 24  1  0
 14 15  1  0
 15 16  1  0
 16 17  2  0
 16 32  1  0
 17 18  1  0
 17 24  1  0
 18 23  1  0
 18 19  2  0
 19 20  1  0
 19 33  1  0
 20 21  2  0
 20 34  1  0
 21 22  1  0
 22 23  2  0
 22 35  1  0
 23 36  1  0
M  CHG  1   7   1
M  END
>  <i_m_ct_stereo_status>  (224) 
1

>  <s_m_source_file>  (224) 
/var/tmp/pbs.5076255.sched01/tmp276pg2sv/48_ir7zhrj.sdf

>  <i_m_source_file_index>  (224) 
47

>  <i_lp_mmshare_version>  (224) 
48012

>  <i_f3d_flags>  (224) 
0

>  <s_epik_input>  (224) 
W2NIXTFbY0hdW2NIXVtjSF1jKGMxMiluW2NIXW4yW0NIMl1jKG5uMyluKGMzNCljKFtjSF1zNCktYzVbY0hdW2NIXW5bY0hdW2NIXTU=

>  <s_epik_cmdline>  (224) 
J2VwaWtfcHl0aG9uJywgJy1waHQnLCAnMi4wJywgJy1waCcsICc3LjAnLCAnLXRuJywgJzgnLCAnLW1hJywgJzIwMCcsICctaW1hZScsICc8aW5maWxlLm1hZT4nLCAnLW9tYWUnLCAnPG91dGZpbGUubWFlPic=

>  <r_epik_Ionization_Penalty>  (224) 
1.57777

>  <r_epik_Ionization_Penalty_Charging>  (224) 
1.57306

>  <r_epik_Ionization_Penalty_Neutral>  (224) 
0.00471539

>  <r_epik_State_Penalty>  (224) 
1.67243

>  <r_epik_Charging_Adjusted_Penalty>  (224) 
3.24548

>  <i_epik_Tot_Q>  (224) 
1

>  <i_epik_Tot_abs_Q>  (224) 
1

>  <s_lp_Force_Field>  (224) 
OPLS3e

>  <r_lp_Energy>  (224) 
36.0127

>  <b_lp_Chiralities_Consistent>  (224) 
1

>  <s_lp_Variant>  (224) 
60:0-2

>  <s_i_glide_gridfile>  (224) 
pfpi4k_grid

>  <i_i_glide_lignum>  (224) 
47

>  <i_i_glide_rotatable_bonds>  (224) 
3

>  <r_i_docking_score>  (224) 
-3.39214

>  <r_i_glide_ligand_efficiency>  (224) 
-0.141339

>  <r_i_glide_ligand_efficiency_sa>  (224) 
-0.407693

>  <r_i_glide_ligand_efficiency_ln>  (224) 
-0.811895

>  <r_i_glide_gscore>  (224) 
-3.39214

>  <r_i_glide_lipo>  (224) 
-0.630282

>  <r_i_glide_hbond>  (224) 
-0.00895997

>  <r_i_glide_metal>  (224) 
-0

>  <r_i_glide_rewards>  (224) 
-1.3182

>  <r_i_glide_evdw>  (224) 
-28.6427

>  <r_i_glide_ecoul>  (224) 
-2.59024

>  <r_i_glide_erotb>  (224) 
0.50869

>  <r_i_glide_esite>  (224) 
-0.122713

>  <r_i_glide_emodel>  (224) 
-37.2657

>  <r_i_glide_energy>  (224) 
-31.2329

>  <r_i_glide_einternal>  (224) 
4.18385

>  <r_i_glide_intrahb_reward>  (224) 
-0

>  <i_i_glide_confnum>  (224) 
6

>  <i_i_glide_posenum>  (224) 
25

>  <r_i_glide_eff_state_penalty>  (224) 
0

>  <ligand_id>  (224) 
60

>  <original_smiles>  (224) 
c1ccc2c(c1)ncn2Cc1nnc2scc(-c3ccncc3)n12

>  <smiles>  (224) 
[H]c1nc([H])c([H])c(-c2c([H])sc3nnc(C([H])([H])n4c([H])[n+]([H])c5c([H])c([H])c([H])c([H])c54)n23)c1[H]

$$$$
61:0:0
     RDKit          3D

 65 70  0  0  1  0  0  0  0  0999 V2000
    5.7238    0.2863    4.5439 C   0  0  0  0  0  0  0  0  0  0  0  0
    5.0639   -0.8469    3.7434 C   0  0  2  0  0  0  0  0  0  0  0  0
    5.7119   -0.9268    2.3129 C   0  0  0  0  0  0  0  0  0  0  0  0
    5.0755   -1.9494    1.3340 C   0  0  0  0  0  0  0  0  0  0  0  0
    5.7712   -2.7008    0.6617 O   0  0  0  0  0  0  0  0  0  0  0  0
    3.5236   -1.9746    1.2562 C   0  0  1  0  0  0  0  0  0  0  0  0
    2.9039   -3.3024    1.2533 O   0  0  0  0  0  0  0  0  0  0  0  0
    3.0004   -3.8106    2.5683 C   0  0  2  0  0  0  0  0  0  0  0  0
    3.8372   -4.9406    2.6450 O   0  0  0  0  0  0  0  0  0  0  0  0
    1.6970   -4.0151    3.4174 C   0  0  0  0  0  0  0  0  0  0  0  0
    1.8314   -3.5728    4.8258 O   0  0  0  0  0  0  0  0  0  0  0  0
    2.3546   -2.3954    5.4720 C   0  0  0  0  0  0  0  0  0  0  0  0
    2.7375   -2.5070    6.6380 O   0  0  0  0  0  0  0  0  0  0  0  0
    2.4237   -0.9434    4.7729 C   0  0  2  0  0  0  0  0  0  0  0  0
    2.5111    0.1315    5.8871 C   0  0  0  0  0  0  0  0  0  0  0  0
    1.1437    0.3696    6.5555 C   0  0  0  0  0  0  0  0  0  0  0  0
    0.1213    1.0509    5.6066 C   0  0  1  0  0  0  0  0  0  0  0  0
   -0.0992    2.6009    5.8975 C   0  0  0  0  0  0  0  0  0  0  0  0
   -1.1300    2.7153    7.0574 C   0  0  0  0  0  0  0  0  0  0  0  0
    1.1806    3.3487    6.3619 C   0  0  0  0  0  0  0  0  0  0  0  0
   -0.6026    3.3544    4.6402 C   0  0  0  0  0  0  0  0  0  0  0  0
   -1.6235    4.1150    4.6640 N   0  0  0  0  0  0  0  0  0  0  0  0
   -1.8642    4.7060    3.3816 O   0  0  0  0  0  0  0  0  0  0  0  0
    0.2392    3.1185    3.3892 C   0  0  0  0  0  0  0  0  0  0  0  0
    1.0561    1.8209    3.3874 C   0  0  0  0  0  0  0  0  0  0  0  0
    0.3416    0.6405    4.1007 C   0  0  2  0  0  0  0  0  0  0  0  0
   -1.0358    0.4307    3.4229 C   0  0  0  0  0  0  0  0  0  0  0  0
    1.0948   -0.7486    3.9770 C   0  0  1  0  0  0  0  0  0  0  0  0
    1.4742   -1.1864    2.5476 C   0  0  0  0  0  0  0  0  0  0  0  0
    2.9683   -1.6092    2.5998 C   0  0  1  0  0  0  0  0  0  0  0  0
    3.5007   -2.7862    3.2015 O   0  0  0  0  0  0  0  0  0  0  0  0
    3.5163   -0.6679    3.6242 C   0  0  2  0  0  0  0  0  0  0  0  0
    5.5116    1.2495    4.0819 H   0  0  0  0  0  0  0  0  0  0  0  0
    6.8084    0.1590    4.5735 H   0  0  0  0  0  0  0  0  0  0  0  0
    5.3681    0.3271    5.5735 H   0  0  0  0  0  0  0  0  0  0  0  0
    5.3025   -1.7698    4.2785 H   0  0  0  0  0  0  0  0  0  0  0  0
    5.6635    0.0489    1.8296 H   0  0  0  0  0  0  0  0  0  0  0  0
    6.7719   -1.1565    2.4108 H   0  0  0  0  0  0  0  0  0  0  0  0
    3.1650   -1.3549    0.4346 H   0  0  0  0  0  0  0  0  0  0  0  0
    4.6766   -4.7028    2.2882 H   0  0  0  0  0  0  0  0  0  0  0  0
    0.8149   -3.5916    2.9564 H   0  0  0  0  0  0  0  0  0  0  0  0
    1.4888   -5.0877    3.4115 H   0  0  0  0  0  0  0  0  0  0  0  0
    3.2253   -0.1585    6.6587 H   0  0  0  0  0  0  0  0  0  0  0  0
    2.9213    1.0664    5.5179 H   0  0  0  0  0  0  0  0  0  0  0  0
    0.7476   -0.5836    6.9034 H   0  0  0  0  0  0  0  0  0  0  0  0
    1.2810    0.9229    7.4807 H   0  0  0  0  0  0  0  0  0  0  0  0
   -0.8203    0.5758    5.8855 H   0  0  0  0  0  0  0  0  0  0  0  0
   -0.8032    2.1718    7.9450 H   0  0  0  0  0  0  0  0  0  0  0  0
   -2.1029    2.3135    6.7694 H   0  0  0  0  0  0  0  0  0  0  0  0
   -1.2881    3.7526    7.3589 H   0  0  0  0  0  0  0  0  0  0  0  0
    1.5145    3.0544    7.3555 H   0  0  0  0  0  0  0  0  0  0  0  0
    1.0010    4.4257    6.4102 H   0  0  0  0  0  0  0  0  0  0  0  0
    2.0145    3.2065    5.6775 H   0  0  0  0  0  0  0  0  0  0  0  0
   -1.1488    4.3831    2.8423 H   0  0  0  0  0  0  0  0  0  0  0  0
   -0.4215    3.0652    2.5247 H   0  0  0  0  0  0  0  0  0  0  0  0
    0.8996    3.9714    3.2495 H   0  0  0  0  0  0  0  0  0  0  0  0
    1.2940    1.6118    2.3486 H   0  0  0  0  0  0  0  0  0  0  0  0
    2.0147    2.0223    3.8523 H   0  0  0  0  0  0  0  0  0  0  0  0
   -0.9201    0.3353    2.3414 H   0  0  0  0  0  0  0  0  0  0  0  0
   -1.7379    1.2490    3.5876 H   0  0  0  0  0  0  0  0  0  0  0  0
   -1.5409   -0.4642    3.7925 H   0  0  0  0  0  0  0  0  0  0  0  0
    0.3777   -1.4807    4.3403 H   0  0  0  0  0  0  0  0  0  0  0  0
    0.7791   -1.8875    2.1003 H   0  0  0  0  0  0  0  0  0  0  0  0
    1.4058   -0.3630    1.8445 H   0  0  0  0  0  0  0  0  0  0  0  0
    3.3761    0.3426    3.2392 H   0  0  0  0  0  0  0  0  0  0  0  0
  1  2  1  0
  1 33  1  0
  1 34  1  0
  1 35  1  0
  2 32  1  0
  2  3  1  0
  2 36  1  1
  3  4  1  0
  3 37  1  0
  3 38  1  0
  4  5  2  0
  4  6  1  0
  6 30  1  0
  6  7  1  0
  6 39  1  6
  7  8  1  0
  8 31  1  0
  8  9  1  6
  8 10  1  0
  9 40  1  0
 10 11  1  0
 10 41  1  0
 10 42  1  0
 11 12  1  0
 12 13  2  0
 12 14  1  0
 14 28  1  0
 14 32  1  0
 14 15  1  1
 15 16  1  0
 15 43  1  0
 15 44  1  0
 16 17  1  0
 16 45  1  0
 16 46  1  0
 17 26  1  0
 17 18  1  0
 17 47  1  1
 18 19  1  0
 18 20  1  0
 18 21  1  0
 19 48  1  0
 19 49  1  0
 19 50  1  0
 20 51  1  0
 20 52  1  0
 20 53  1  0
 21 22  2  3
 21 24  1  0
 22 23  1  0
 23 54  1  0
 24 25  1  0
 24 55  1  0
 24 56  1  0
 25 26  1  0
 25 57  1  0
 25 58  1  0
 26 27  1  6
 26 28  1  0
 27 59  1  0
 27 60  1  0
 27 61  1  0
 28 29  1  0
 28 62  1  1
 30 29  1  6
 29 63  1  0
 29 64  1  0
 30 31  1  0
 30 32  1  0
 32 65  1  6
M  END
>  <i_m_ct_stereo_status>  (225) 
1

>  <s_m_source_file>  (225) 
/var/tmp/pbs.5076255.sched01/tmp276pg2sv/48_ir7zhrj.sdf

>  <i_m_source_file_index>  (225) 
48

>  <i_lp_mmshare_version>  (225) 
48012

>  <i_f3d_flags>  (225) 
0

>  <s_epik_input>  (225) 
Tz1DMU9bQ0gyXVtDQEBdKE8yKShbT0hdKU9bQ0BIXShDKD1PKVtDSDJdW0NAQEhdKFtDSDNdKVtDQEhdMzQpW0NAQF0yNFtDSDJdW0NAQEhdKFtDQEBdMTM1KVtDQEBdNihbQ0gzXSlbQ0BASF0oW0NIMl1bQ0gyXTUpQyhbQ0gzXSkoW0NIM10pL0MoPU4vW09IXSlbQ0gyXVtDSDJdNg==

>  <s_epik_cmdline>  (225) 
J2VwaWtfcHl0aG9uJywgJy1waHQnLCAnMi4wJywgJy1waCcsICc3LjAnLCAnLXRuJywgJzgnLCAnLW1hJywgJzIwMCcsICctaW1hZScsICc8aW5maWxlLm1hZT4nLCAnLW9tYWUnLCAnPG91dGZpbGUubWFlPic=

>  <r_lp_tautomer_probability>  (225) 
1

>  <r_epik_Ionization_Penalty>  (225) 
0.000395457

>  <r_epik_Ionization_Penalty_Charging>  (225) 
0

>  <r_epik_Ionization_Penalty_Neutral>  (225) 
0.000395457

>  <r_epik_State_Penalty>  (225) 
0.000241728

>  <r_epik_Charging_Adjusted_Penalty>  (225) 
0.000241728

>  <i_epik_Tot_Q>  (225) 
0

>  <i_epik_Tot_abs_Q>  (225) 
0

>  <s_epik_Chemistry_Notes>  (225) 
This compound has an ester and may undergo hydrolysis at high or low pH. This compound has an imine and may undergo hydrolysis.

>  <s_lp_Force_Field>  (225) 
OPLS3e

>  <r_lp_Energy>  (225) 
143.856

>  <b_lp_Chiralities_Consistent>  (225) 
1

>  <s_lp_Variant>  (225) 
61:0-1

>  <s_i_glide_gridfile>  (225) 
pfpi4k_grid

>  <i_i_glide_lignum>  (225) 
48

>  <i_i_glide_rotatable_bonds>  (225) 
2

>  <r_i_docking_score>  (225) 
-3.12933

>  <r_i_glide_ligand_efficiency>  (225) 
-0.0977915

>  <r_i_glide_ligand_efficiency_sa>  (225) 
-0.310469

>  <r_i_glide_ligand_efficiency_ln>  (225) 
-0.700742

>  <r_i_glide_gscore>  (225) 
-3.12933

>  <r_i_glide_lipo>  (225) 
-0.322742

>  <r_i_glide_hbond>  (225) 
-0.00961481

>  <r_i_glide_metal>  (225) 
-0

>  <r_i_glide_rewards>  (225) 
-0.434332

>  <r_i_glide_evdw>  (225) 
-23.025

>  <r_i_glide_ecoul>  (225) 
-7.50371

>  <r_i_glide_erotb>  (225) 
0.0999888

>  <r_i_glide_esite>  (225) 
-0.185822

>  <r_i_glide_emodel>  (225) 
-36.8457

>  <r_i_glide_energy>  (225) 
-30.5287

>  <r_i_glide_einternal>  (225) 
0.000988284

>  <r_i_glide_intrahb_reward>  (225) 
-0

>  <i_i_glide_confnum>  (225) 
2

>  <i_i_glide_posenum>  (225) 
8

>  <r_i_glide_eff_state_penalty>  (225) 
0

>  <ligand_id>  (225) 
61

>  <original_smiles>  (225) 
CC1CC(=O)C2OC3(O)COC(=O)C45CCC6C(C)(C)C(=NO)CCC6(C)C4CC2(O3)C15

>  <smiles>  (225) 
[H]ON=C1C([H])([H])C([H])([H])C2(C([H])([H])[H])C([H])(C([H])([H])C([H])([H])C34C(=O)OC([H])([H])C5(O[H])OC6([H])C(=O)C([H])([H])C([H])(C([H])([H])[H])C3([H])C6(O5)C([H])([H])C42[H])C1(C([H])([H])[H])C([H])([H])[H]

$$$$
61:0:1
     RDKit          3D

 65 70  0  0  1  0  0  0  0  0999 V2000
    1.4465    4.4998    8.9440 C   0  0  0  0  0  0  0  0  0  0  0  0
    1.0084    4.1955    7.4985 C   0  0  2  0  0  0  0  0  0  0  0  0
   -0.4279    3.5528    7.5173 C   0  0  0  0  0  0  0  0  0  0  0  0
   -0.9735    3.0670    6.1511 C   0  0  0  0  0  0  0  0  0  0  0  0
   -2.1366    3.2956    5.8143 O   0  0  0  0  0  0  0  0  0  0  0  0
    0.0006    2.2634    5.2481 C   0  0  1  0  0  0  0  0  0  0  0  0
    0.0143    2.6168    3.8258 O   0  0  0  0  0  0  0  0  0  0  0  0
    0.6983    3.8508    3.7205 C   0  0  2  0  0  0  0  0  0  0  0  0
   -0.1460    4.8867    3.2863 O   0  0  0  0  0  0  0  0  0  0  0  0
    2.0927    3.9162    2.9897 C   0  0  0  0  0  0  0  0  0  0  0  0
    3.0808    4.7640    3.7022 O   0  0  0  0  0  0  0  0  0  0  0  0
    3.5263    4.8752    5.0641 C   0  0  0  0  0  0  0  0  0  0  0  0
    4.0340    5.9384    5.4059 O   0  0  0  0  0  0  0  0  0  0  0  0
    3.4456    3.6757    6.1320 C   0  0  2  0  0  0  0  0  0  0  0  0
    4.4696    3.9545    7.2658 C   0  0  0  0  0  0  0  0  0  0  0  0
    5.9100    3.6361    6.8182 C   0  0  0  0  0  0  0  0  0  0  0  0
    6.1517    2.1146    6.6163 C   0  0  1  0  0  0  0  0  0  0  0  0
    6.9668    1.4350    7.7951 C   0  0  0  0  0  0  0  0  0  0  0  0
    8.4793    1.6905    7.5399 C   0  0  0  0  0  0  0  0  0  0  0  0
    6.6515    2.0031    9.2081 C   0  0  0  0  0  0  0  0  0  0  0  0
    6.6906   -0.0789    7.8819 C   0  0  0  0  0  0  0  0  0  0  0  0
    7.6447   -0.9244    7.9222 N   0  0  0  0  0  0  0  0  0  0  0  0
    7.1441   -2.2504    8.0347 O   0  0  0  0  0  0  0  0  0  0  0  0
    5.2088   -0.4537    7.9335 C   0  0  0  0  0  0  0  0  0  0  0  0
    4.2621    0.5999    7.3299 C   0  0  0  0  0  0  0  0  0  0  0  0
    4.8617    1.3610    6.1121 C   0  0  2  0  0  0  0  0  0  0  0  0
    5.2525    0.3151    5.0240 C   0  0  0  0  0  0  0  0  0  0  0  0
    3.8442    2.3543    5.4015 C   0  0  1  0  0  0  0  0  0  0  0  0
    2.4855    1.7571    4.9760 C   0  0  0  0  0  0  0  0  0  0  0  0
    1.3980    2.7517    5.4861 C   0  0  1  0  0  0  0  0  0  0  0  0
    1.0970    4.0308    4.9440 O   0  0  0  0  0  0  0  0  0  0  0  0
    2.0160    3.2574    6.7494 C   0  0  2  0  0  0  0  0  0  0  0  0
    1.5364    3.5897    9.5416 H   0  0  0  0  0  0  0  0  0  0  0  0
    0.7094    5.1384    9.4382 H   0  0  0  0  0  0  0  0  0  0  0  0
    2.4028    5.0244    8.9749 H   0  0  0  0  0  0  0  0  0  0  0  0
    0.9391    5.1576    6.9930 H   0  0  0  0  0  0  0  0  0  0  0  0
   -0.4344    2.6935    8.1852 H   0  0  0  0  0  0  0  0  0  0  0  0
   -1.1357    4.2663    7.9396 H   0  0  0  0  0  0  0  0  0  0  0  0
   -0.1360    1.1957    5.3913 H   0  0  0  0  0  0  0  0  0  0  0  0
   -0.1496    4.8362    2.3225 H   0  0  0  0  0  0  0  0  0  0  0  0
    2.4941    2.9398    2.7441 H   0  0  0  0  0  0  0  0  0  0  0  0
    1.9116    4.3595    2.0131 H   0  0  0  0  0  0  0  0  0  0  0  0
    4.4305    4.9973    7.5761 H   0  0  0  0  0  0  0  0  0  0  0  0
    4.2250    3.4197    8.1806 H   0  0  0  0  0  0  0  0  0  0  0  0
    6.1285    4.1738    5.8950 H   0  0  0  0  0  0  0  0  0  0  0  0
    6.6142    4.0736    7.5183 H   0  0  0  0  0  0  0  0  0  0  0  0
    6.8319    2.0907    5.7651 H   0  0  0  0  0  0  0  0  0  0  0  0
    8.7005    2.7552    7.4507 H   0  0  0  0  0  0  0  0  0  0  0  0
    8.8130    1.2123    6.6128 H   0  0  0  0  0  0  0  0  0  0  0  0
    9.1059    1.2945    8.3447 H   0  0  0  0  0  0  0  0  0  0  0  0
    7.0157    3.0203    9.3467 H   0  0  0  0  0  0  0  0  0  0  0  0
    7.1274    1.3987    9.9871 H   0  0  0  0  0  0  0  0  0  0  0  0
    5.5840    2.0012    9.4279 H   0  0  0  0  0  0  0  0  0  0  0  0
    7.9374   -2.7576    8.1219 H   0  0  0  0  0  0  0  0  0  0  0  0
    5.0489   -1.3870    7.3908 H   0  0  0  0  0  0  0  0  0  0  0  0
    4.9261   -0.6467    8.9660 H   0  0  0  0  0  0  0  0  0  0  0  0
    3.3209    0.1035    7.1020 H   0  0  0  0  0  0  0  0  0  0  0  0
    4.0031    1.3046    8.1113 H   0  0  0  0  0  0  0  0  0  0  0  0
    4.4121   -0.3430    4.7985 H   0  0  0  0  0  0  0  0  0  0  0  0
    6.0773   -0.3275    5.3320 H   0  0  0  0  0  0  0  0  0  0  0  0
    5.5723    0.7837    4.0906 H   0  0  0  0  0  0  0  0  0  0  0  0
    4.3467    2.6354    4.4790 H   0  0  0  0  0  0  0  0  0  0  0  0
    2.4414    1.4587    3.9350 H   0  0  0  0  0  0  0  0  0  0  0  0
    2.3096    0.8096    5.4674 H   0  0  0  0  0  0  0  0  0  0  0  0
    2.1560    2.4041    7.4112 H   0  0  0  0  0  0  0  0  0  0  0  0
  1  2  1  0
  1 33  1  0
  1 34  1  0
  1 35  1  0
  2 32  1  0
  2  3  1  0
  2 36  1  6
  3  4  1  0
  3 37  1  0
  3 38  1  0
  4  5  2  0
  4  6  1  0
  6 30  1  0
  6  7  1  0
  6 39  1  6
  7  8  1  0
  8 31  1  0
  8  9  1  6
  8 10  1  0
  9 40  1  0
 10 11  1  0
 10 41  1  0
 10 42  1  0
 11 12  1  0
 12 13  2  0
 12 14  1  0
 14 28  1  0
 14 32  1  0
 14 15  1  1
 15 16  1  0
 15 43  1  0
 15 44  1  0
 16 17  1  0
 16 45  1  0
 16 46  1  0
 17 26  1  0
 17 18  1  0
 17 47  1  6
 18 19  1  0
 18 20  1  0
 18 21  1  0
 19 48  1  0
 19 49  1  0
 19 50  1  0
 20 51  1  0
 20 52  1  0
 20 53  1  0
 21 22  2  3
 21 24  1  0
 22 23  1  0
 23 54  1  0
 24 25  1  0
 24 55  1  0
 24 56  1  0
 25 26  1  0
 25 57  1  0
 25 58  1  0
 26 27  1  6
 26 28  1  0
 27 59  1  0
 27 60  1  0
 27 61  1  0
 28 29  1  0
 28 62  1  6
 30 29  1  6
 29 63  1  0
 29 64  1  0
 30 31  1  0
 30 32  1  0
 32 65  1  1
M  END
>  <i_m_ct_stereo_status>  (226) 
1

>  <s_m_source_file>  (226) 
/var/tmp/pbs.5076255.sched01/tmp276pg2sv/48_ir7zhrj.sdf

>  <i_m_source_file_index>  (226) 
48

>  <i_lp_mmshare_version>  (226) 
48012

>  <i_f3d_flags>  (226) 
0

>  <s_epik_input>  (226) 
Tz1DMU9bQ0gyXVtDQEBdKE8yKShbT0hdKU9bQ0BIXShDKD1PKVtDSDJdW0NAQEhdKFtDSDNdKVtDQEhdMzQpW0NAQF0yNFtDSDJdW0NAQEhdKFtDQEBdMTM1KVtDQEBdNihbQ0gzXSlbQ0BASF0oW0NIMl1bQ0gyXTUpQyhbQ0gzXSkoW0NIM10pL0MoPU4vW09IXSlbQ0gyXVtDSDJdNg==

>  <s_epik_cmdline>  (226) 
J2VwaWtfcHl0aG9uJywgJy1waHQnLCAnMi4wJywgJy1waCcsICc3LjAnLCAnLXRuJywgJzgnLCAnLW1hJywgJzIwMCcsICctaW1hZScsICc8aW5maWxlLm1hZT4nLCAnLW9tYWUnLCAnPG91dGZpbGUubWFlPic=

>  <r_lp_tautomer_probability>  (226) 
1

>  <r_epik_Ionization_Penalty>  (226) 
0.000395457

>  <r_epik_Ionization_Penalty_Charging>  (226) 
0

>  <r_epik_Ionization_Penalty_Neutral>  (226) 
0.000395457

>  <r_epik_State_Penalty>  (226) 
0.000241728

>  <r_epik_Charging_Adjusted_Penalty>  (226) 
0.000241728

>  <i_epik_Tot_Q>  (226) 
0

>  <i_epik_Tot_abs_Q>  (226) 
0

>  <s_epik_Chemistry_Notes>  (226) 
This compound has an ester and may undergo hydrolysis at high or low pH. This compound has an imine and may undergo hydrolysis.

>  <s_lp_Force_Field>  (226) 
OPLS3e

>  <r_lp_Energy>  (226) 
143.856

>  <b_lp_Chiralities_Consistent>  (226) 
1

>  <s_lp_Variant>  (226) 
61:0-1

>  <s_i_glide_gridfile>  (226) 
pfpi4k_grid

>  <i_i_glide_lignum>  (226) 
48

>  <i_i_glide_rotatable_bonds>  (226) 
2

>  <r_i_docking_score>  (226) 
-2.71479

>  <r_i_glide_ligand_efficiency>  (226) 
-0.0848373

>  <r_i_glide_ligand_efficiency_sa>  (226) 
-0.269342

>  <r_i_glide_ligand_efficiency_ln>  (226) 
-0.607916

>  <r_i_glide_gscore>  (226) 
-2.71479

>  <r_i_glide_lipo>  (226) 
-0.190961

>  <r_i_glide_hbond>  (226) 
0

>  <r_i_glide_metal>  (226) 
-0

>  <r_i_glide_rewards>  (226) 
-0.390352

>  <r_i_glide_evdw>  (226) 
-21.0946

>  <r_i_glide_ecoul>  (226) 
-7.2956

>  <r_i_glide_erotb>  (226) 
0.0999888

>  <r_i_glide_esite>  (226) 
-0.0843994

>  <r_i_glide_emodel>  (226) 
-33.147

>  <r_i_glide_energy>  (226) 
-28.3902

>  <r_i_glide_einternal>  (226) 
1.28786

>  <r_i_glide_intrahb_reward>  (226) 
-0

>  <i_i_glide_confnum>  (226) 
2

>  <i_i_glide_posenum>  (226) 
35

>  <r_i_glide_eff_state_penalty>  (226) 
0

>  <ligand_id>  (226) 
61

>  <original_smiles>  (226) 
CC1CC(=O)C2OC3(O)COC(=O)C45CCC6C(C)(C)C(=NO)CCC6(C)C4CC2(O3)C15

>  <smiles>  (226) 
[H]ON=C1C([H])([H])C([H])([H])C2(C([H])([H])[H])C([H])(C([H])([H])C([H])([H])C34C(=O)OC([H])([H])C5(O[H])OC6([H])C(=O)C([H])([H])C([H])(C([H])([H])[H])C3([H])C6(O5)C([H])([H])C42[H])C1(C([H])([H])[H])C([H])([H])[H]

$$$$
61:0:2
     RDKit          3D

 65 70  0  0  1  0  0  0  0  0999 V2000
    0.3644    1.4729    8.6153 C   0  0  0  0  0  0  0  0  0  0  0  0
    0.1406    1.8463    7.1368 C   0  0  2  0  0  0  0  0  0  0  0  0
   -1.3288    2.3650    6.9526 C   0  0  0  0  0  0  0  0  0  0  0  0
   -1.7468    2.6654    5.4948 C   0  0  0  0  0  0  0  0  0  0  0  0
   -2.3882    3.6781    5.2248 O   0  0  0  0  0  0  0  0  0  0  0  0
   -1.3873    1.6128    4.4146 C   0  0  1  0  0  0  0  0  0  0  0  0
   -0.8699    2.1343    3.1566 O   0  0  0  0  0  0  0  0  0  0  0  0
    0.4562    2.5702    3.4226 C   0  0  2  0  0  0  0  0  0  0  0  0
    0.5805    3.9612    3.2825 O   0  0  0  0  0  0  0  0  0  0  0  0
    1.6641    1.8132    2.7449 C   0  0  0  0  0  0  0  0  0  0  0  0
    2.8036    1.5786    3.6759 O   0  0  0  0  0  0  0  0  0  0  0  0
    2.9268    1.0846    5.0204 C   0  0  0  0  0  0  0  0  0  0  0  0
    3.9154    1.4320    5.6668 O   0  0  0  0  0  0  0  0  0  0  0  0
    1.8652    0.0884    5.7158 C   0  0  2  0  0  0  0  0  0  0  0  0
    2.5523   -0.6461    6.8994 C   0  0  0  0  0  0  0  0  0  0  0  0
    3.5028   -1.7499    6.3900 C   0  0  0  0  0  0  0  0  0  0  0  0
    2.7218   -2.9469    5.7838 C   0  0  1  0  0  0  0  0  0  0  0  0
    2.6270   -4.2194    6.7242 C   0  0  0  0  0  0  0  0  0  0  0  0
    3.9496   -5.0218    6.5753 C   0  0  0  0  0  0  0  0  0  0  0  0
    2.4867   -3.8833    8.2317 C   0  0  0  0  0  0  0  0  0  0  0  0
    1.4267   -5.1106    6.3769 C   0  0  0  0  0  0  0  0  0  0  0  0
    1.5645   -6.3644    6.1908 N   0  0  0  0  0  0  0  0  0  0  0  0
    0.3036   -6.9721    5.9028 O   0  0  0  0  0  0  0  0  0  0  0  0
    0.0879   -4.3716    6.2977 C   0  0  0  0  0  0  0  0  0  0  0  0
    0.2022   -2.8657    5.9935 C   0  0  0  0  0  0  0  0  0  0  0  0
    1.3930   -2.4988    5.0660 C   0  0  2  0  0  0  0  0  0  0  0  0
    1.2276   -3.2817    3.7314 C   0  0  0  0  0  0  0  0  0  0  0  0
    1.4445   -0.9684    4.6442 C   0  0  1  0  0  0  0  0  0  0  0  0
    0.1499   -0.3754    4.0482 C   0  0  0  0  0  0  0  0  0  0  0  0
   -0.0953    0.9603    4.8037 C   0  0  1  0  0  0  0  0  0  0  0  0
    0.6346    2.1651    4.6512 O   0  0  0  0  0  0  0  0  0  0  0  0
    0.4215    0.6443    6.1694 C   0  0  2  0  0  0  0  0  0  0  0  0
   -0.2851    0.6556    8.9417 H   0  0  0  0  0  0  0  0  0  0  0  0
    0.1412    2.3249    9.2615 H   0  0  0  0  0  0  0  0  0  0  0  0
    1.4002    1.1873    8.8103 H   0  0  0  0  0  0  0  0  0  0  0  0
    0.8190    2.6766    6.9252 H   0  0  0  0  0  0  0  0  0  0  0  0
   -2.0368    1.6391    7.3511 H   0  0  0  0  0  0  0  0  0  0  0  0
   -1.4706    3.2665    7.5496 H   0  0  0  0  0  0  0  0  0  0  0  0
   -2.2162    0.9288    4.2480 H   0  0  0  0  0  0  0  0  0  0  0  0
    0.5178    4.1483    2.3573 H   0  0  0  0  0  0  0  0  0  0  0  0
    1.3764    0.9003    2.2406 H   0  0  0  0  0  0  0  0  0  0  0  0
    2.0121    2.4437    1.9222 H   0  0  0  0  0  0  0  0  0  0  0  0
    3.1527    0.0532    7.4762 H   0  0  0  0  0  0  0  0  0  0  0  0
    1.8330   -1.0297    7.6284 H   0  0  0  0  0  0  0  0  0  0  0  0
    4.2072   -1.3392    5.6558 H   0  0  0  0  0  0  0  0  0  0  0  0
    4.1454   -2.0651    7.2053 H   0  0  0  0  0  0  0  0  0  0  0  0
    3.3743   -3.2601    4.9727 H   0  0  0  0  0  0  0  0  0  0  0  0
    4.8240   -4.4059    6.7932 H   0  0  0  0  0  0  0  0  0  0  0  0
    4.0715   -5.4043    5.5590 H   0  0  0  0  0  0  0  0  0  0  0  0
    3.9884   -5.8871    7.2451 H   0  0  0  0  0  0  0  0  0  0  0  0
    3.3885   -3.4421    8.6621 H   0  0  0  0  0  0  0  0  0  0  0  0
    2.2822   -4.7867    8.8155 H   0  0  0  0  0  0  0  0  0  0  0  0
    1.6611   -3.2027    8.4304 H   0  0  0  0  0  0  0  0  0  0  0  0
    0.5480   -7.8815    5.7864 H   0  0  0  0  0  0  0  0  0  0  0  0
   -0.5183   -4.8154    5.5102 H   0  0  0  0  0  0  0  0  0  0  0  0
   -0.4564   -4.5227    7.2284 H   0  0  0  0  0  0  0  0  0  0  0  0
   -0.7617   -2.5207    5.6250 H   0  0  0  0  0  0  0  0  0  0  0  0
    0.3205   -2.3563    6.9379 H   0  0  0  0  0  0  0  0  0  0  0  0
    0.2334   -3.1182    3.3135 H   0  0  0  0  0  0  0  0  0  0  0  0
    1.3372   -4.3605    3.8487 H   0  0  0  0  0  0  0  0  0  0  0  0
    1.9573   -2.9930    2.9699 H   0  0  0  0  0  0  0  0  0  0  0  0
    2.1868   -0.9322    3.8473 H   0  0  0  0  0  0  0  0  0  0  0  0
    0.1364   -0.3466    2.9630 H   0  0  0  0  0  0  0  0  0  0  0  0
   -0.6956   -1.0211    4.2503 H   0  0  0  0  0  0  0  0  0  0  0  0
   -0.1691   -0.1867    6.5618 H   0  0  0  0  0  0  0  0  0  0  0  0
  1  2  1  0
  1 33  1  0
  1 34  1  0
  1 35  1  0
  2 32  1  0
  2  3  1  0
  2 36  1  6
  3  4  1  0
  3 37  1  0
  3 38  1  0
  4  5  2  0
  4  6  1  0
  6 30  1  0
  6  7  1  0
  6 39  1  6
  7  8  1  0
  8 31  1  0
  8  9  1  1
  8 10  1  0
  9 40  1  0
 10 11  1  0
 10 41  1  0
 10 42  1  0
 11 12  1  0
 12 13  2  0
 12 14  1  0
 14 28  1  0
 14 32  1  0
 14 15  1  1
 15 16  1  0
 15 43  1  0
 15 44  1  0
 16 17  1  0
 16 45  1  0
 16 46  1  0
 17 26  1  0
 17 18  1  0
 17 47  1  6
 18 19  1  0
 18 20  1  0
 18 21  1  0
 19 48  1  0
 19 49  1  0
 19 50  1  0
 20 51  1  0
 20 52  1  0
 20 53  1  0
 21 22  2  3
 21 24  1  0
 22 23  1  0
 23 54  1  0
 24 25  1  0
 24 55  1  0
 24 56  1  0
 25 26  1  0
 25 57  1  0
 25 58  1  0
 26 27  1  6
 26 28  1  0
 27 59  1  0
 27 60  1  0
 27 61  1  0
 28 29  1  0
 28 62  1  6
 30 29  1  6
 29 63  1  0
 29 64  1  0
 30 31  1  0
 30 32  1  0
 32 65  1  1
M  END
>  <i_m_ct_stereo_status>  (227) 
1

>  <s_m_source_file>  (227) 
/var/tmp/pbs.5076255.sched01/tmp276pg2sv/48_ir7zhrj.sdf

>  <i_m_source_file_index>  (227) 
48

>  <i_lp_mmshare_version>  (227) 
48012

>  <i_f3d_flags>  (227) 
0

>  <s_epik_input>  (227) 
Tz1DMU9bQ0gyXVtDQEBdKE8yKShbT0hdKU9bQ0BIXShDKD1PKVtDSDJdW0NAQEhdKFtDSDNdKVtDQEhdMzQpW0NAQF0yNFtDSDJdW0NAQEhdKFtDQEBdMTM1KVtDQEBdNihbQ0gzXSlbQ0BASF0oW0NIMl1bQ0gyXTUpQyhbQ0gzXSkoW0NIM10pL0MoPU4vW09IXSlbQ0gyXVtDSDJdNg==

>  <s_epik_cmdline>  (227) 
J2VwaWtfcHl0aG9uJywgJy1waHQnLCAnMi4wJywgJy1waCcsICc3LjAnLCAnLXRuJywgJzgnLCAnLW1hJywgJzIwMCcsICctaW1hZScsICc8aW5maWxlLm1hZT4nLCAnLW9tYWUnLCAnPG91dGZpbGUubWFlPic=

>  <r_lp_tautomer_probability>  (227) 
1

>  <r_epik_Ionization_Penalty>  (227) 
0.000395457

>  <r_epik_Ionization_Penalty_Charging>  (227) 
0

>  <r_epik_Ionization_Penalty_Neutral>  (227) 
0.000395457

>  <r_epik_State_Penalty>  (227) 
0.000241728

>  <r_epik_Charging_Adjusted_Penalty>  (227) 
0.000241728

>  <i_epik_Tot_Q>  (227) 
0

>  <i_epik_Tot_abs_Q>  (227) 
0

>  <s_epik_Chemistry_Notes>  (227) 
This compound has an ester and may undergo hydrolysis at high or low pH. This compound has an imine and may undergo hydrolysis.

>  <s_lp_Force_Field>  (227) 
OPLS3e

>  <r_lp_Energy>  (227) 
143.856

>  <b_lp_Chiralities_Consistent>  (227) 
1

>  <s_lp_Variant>  (227) 
61:0-1

>  <s_i_glide_gridfile>  (227) 
pfpi4k_grid

>  <i_i_glide_lignum>  (227) 
48

>  <i_i_glide_rotatable_bonds>  (227) 
2

>  <r_i_docking_score>  (227) 
-2.58852

>  <r_i_glide_ligand_efficiency>  (227) 
-0.0808912

>  <r_i_glide_ligand_efficiency_sa>  (227) 
-0.256813

>  <r_i_glide_ligand_efficiency_ln>  (227) 
-0.57964

>  <r_i_glide_gscore>  (227) 
-2.58852

>  <r_i_glide_lipo>  (227) 
-0.0417593

>  <r_i_glide_hbond>  (227) 
0

>  <r_i_glide_metal>  (227) 
-0

>  <r_i_glide_rewards>  (227) 
-0.422287

>  <r_i_glide_evdw>  (227) 
-21.7682

>  <r_i_glide_ecoul>  (227) 
-7.10228

>  <r_i_glide_erotb>  (227) 
0.0999888

>  <r_i_glide_esite>  (227) 
-0.0707091

>  <r_i_glide_emodel>  (227) 
-33.4047

>  <r_i_glide_energy>  (227) 
-28.8704

>  <r_i_glide_einternal>  (227) 
1.24659

>  <r_i_glide_intrahb_reward>  (227) 
-0

>  <i_i_glide_confnum>  (227) 
3

>  <i_i_glide_posenum>  (227) 
16

>  <r_i_glide_eff_state_penalty>  (227) 
0

>  <ligand_id>  (227) 
61

>  <original_smiles>  (227) 
CC1CC(=O)C2OC3(O)COC(=O)C45CCC6C(C)(C)C(=NO)CCC6(C)C4CC2(O3)C15

>  <smiles>  (227) 
[H]ON=C1C([H])([H])C([H])([H])C2(C([H])([H])[H])C([H])(C([H])([H])C([H])([H])C34C(=O)OC([H])([H])C5(O[H])OC6([H])C(=O)C([H])([H])C([H])(C([H])([H])[H])C3([H])C6(O5)C([H])([H])C42[H])C1(C([H])([H])[H])C([H])([H])[H]

$$$$
63:0:0
     RDKit          3D

 28 30  0  0  1  0  0  0  0  0999 V2000
    5.5134   -3.9303   -1.0481 O   0  0  0  0  0  0  0  0  0  0  0  0
    5.4774   -2.7861   -0.6099 N   0  0  0  0  0  0  0  0  0  0  0  0
    6.1541   -1.8879   -1.1030 O   0  0  0  0  0  0  0  0  0  0  0  0
    4.6060   -2.4598    0.5554 C   0  0  0  0  0  0  0  0  0  0  0  0
    4.7948   -1.1874    1.1559 C   0  0  0  0  0  0  0  0  0  0  0  0
    4.0094   -0.7511    2.2335 C   0  0  0  0  0  0  0  0  0  0  0  0
    3.0010   -1.5795    2.7410 C   0  0  0  0  0  0  0  0  0  0  0  0
    2.8016   -2.8507    2.1709 C   0  0  0  0  0  0  0  0  0  0  0  0
    3.6111   -3.3282    1.1065 C   0  0  0  0  0  0  0  0  0  0  0  0
    3.3369   -4.7546    0.6019 C   0  0  2  0  0  0  0  0  0  0  0  0
    2.1900   -4.8540   -0.2809 N   0  0  0  0  0  0  0  0  0  0  0  0
    1.4191   -5.8421    0.2280 N   0  0  0  0  0  0  0  0  0  0  0  0
    1.9387   -6.2558    1.3223 C   0  0  0  0  0  0  0  0  0  0  0  0
    1.3133   -7.2940    2.0976 C   0  0  0  0  0  0  0  0  0  0  0  0
    2.0556   -8.0354    2.9806 C   0  0  0  0  0  0  0  0  0  0  0  0
    1.2355   -8.9718    3.6812 C   0  0  0  0  0  0  0  0  0  0  0  0
   -0.0874   -8.9228    3.3118 C   0  0  0  0  0  0  0  0  0  0  0  0
   -0.3632   -7.7211    2.0791 S   0  0  0  0  0  0  0  0  0  0  0  0
    3.0864   -5.6054    1.6628 O   0  0  0  0  0  0  0  0  0  0  0  0
    5.5549   -0.5205    0.7869 H   0  0  0  0  0  0  0  0  0  0  0  0
    4.1848    0.2233    2.6639 H   0  0  0  0  0  0  0  0  0  0  0  0
    2.3894   -1.2340    3.5691 H   0  0  0  0  0  0  0  0  0  0  0  0
    2.0180   -3.4640    2.5866 H   0  0  0  0  0  0  0  0  0  0  0  0
    4.1602   -5.2405    0.0777 H   0  0  0  0  0  0  0  0  0  0  0  0
    2.4025   -5.0175   -1.2641 H   0  0  0  0  0  0  0  0  0  0  0  0
    3.1188   -7.9326    3.1546 H   0  0  0  0  0  0  0  0  0  0  0  0
    1.6467   -9.6346    4.4262 H   0  0  0  0  0  0  0  0  0  0  0  0
   -0.8980   -9.5287    3.6959 H   0  0  0  0  0  0  0  0  0  0  0  0
  1  2  2  0
  2  3  1  0
  2  4  1  0
  4  9  2  0
  4  5  1  0
  5  6  2  0
  5 20  1  0
  6  7  1  0
  6 21  1  0
  7  8  2  0
  7 22  1  0
  8  9  1  0
  8 23  1  0
  9 10  1  0
 10 19  1  0
 10 11  1  0
 10 24  1  6
 11 12  1  0
 11 25  1  0
 12 13  2  0
 13 14  1  0
 13 19  1  0
 14 18  1  0
 14 15  2  0
 15 16  1  0
 15 26  1  0
 16 17  2  0
 16 27  1  0
 17 18  1  0
 17 28  1  0
M  CHG  2   2   1   3  -1
M  END
>  <i_m_ct_stereo_status>  (228) 
1

>  <s_m_source_file>  (228) 
/var/tmp/pbs.5076255.sched01/tmp0eyfkrct/966b1hsbd3.sdf

>  <i_m_source_file_index>  (228) 
3

>  <i_lp_mmshare_version>  (228) 
48012

>  <i_f3d_flags>  (228) 
0

>  <s_epik_input>  (228) 
Tz1bTitdKFtPLV0pYzFbY0hdW2NIXVtjSF1bY0hdYzFbQ0BASF0yW05IXU49QyhPMiljM1tjSF1bY0hdW2NIXXMz

>  <s_epik_cmdline>  (228) 
J2VwaWtfcHl0aG9uJywgJy1waHQnLCAnMi4wJywgJy1waCcsICc3LjAnLCAnLXRuJywgJzgnLCAnLW1hJywgJzIwMCcsICctaW1hZScsICc8aW5maWxlLm1hZT4nLCAnLW9tYWUnLCAnPG91dGZpbGUubWFlPic=

>  <r_lp_tautomer_probability>  (228) 
1

>  <r_epik_Ionization_Penalty>  (228) 
6.98184e-07

>  <r_epik_Ionization_Penalty_Charging>  (228) 
0

>  <r_epik_Ionization_Penalty_Neutral>  (228) 
6.98184e-07

>  <r_epik_State_Penalty>  (228) 
-0

>  <r_epik_Charging_Adjusted_Penalty>  (228) 
0

>  <i_epik_Tot_Q>  (228) 
0

>  <i_epik_Tot_abs_Q>  (228) 
2

>  <s_epik_Chemistry_Notes>  (228) 
This compound has an imine and may undergo hydrolysis. This compound contains an acetal/aminal-like group ( X-CH(R)-Y where X, Y are N, S, or O) that may be acid/base labile, releasing an aldehyde.

>  <s_lp_Force_Field>  (228) 
OPLS3e

>  <r_lp_Energy>  (228) 
21.6025

>  <b_lp_Chiralities_Consistent>  (228) 
1

>  <s_lp_Variant>  (228) 
63:0-1

>  <s_i_glide_gridfile>  (228) 
pfpi4k_grid

>  <i_i_glide_lignum>  (228) 
3

>  <i_i_glide_rotatable_bonds>  (228) 
3

>  <r_i_docking_score>  (228) 
-4.08201

>  <r_i_glide_ligand_efficiency>  (228) 
-0.214843

>  <r_i_glide_ligand_efficiency_sa>  (228) 
-0.573287

>  <r_i_glide_ligand_efficiency_ln>  (228) 
-1.03488

>  <r_i_glide_gscore>  (228) 
-4.08201

>  <r_i_glide_lipo>  (228) 
-0.100137

>  <r_i_glide_hbond>  (228) 
-0.46969

>  <r_i_glide_metal>  (228) 
-0

>  <r_i_glide_rewards>  (228) 
-1.53215

>  <r_i_glide_evdw>  (228) 
-21.7378

>  <r_i_glide_ecoul>  (228) 
-7.86842

>  <r_i_glide_erotb>  (228) 
0.474302

>  <r_i_glide_esite>  (228) 
-0.18718

>  <r_i_glide_emodel>  (228) 
-37.0014

>  <r_i_glide_energy>  (228) 
-29.6062

>  <r_i_glide_einternal>  (228) 
1.03021

>  <r_i_glide_intrahb_reward>  (228) 
-0

>  <i_i_glide_confnum>  (228) 
5

>  <i_i_glide_posenum>  (228) 
7

>  <r_i_glide_eff_state_penalty>  (228) 
0

>  <ligand_id>  (228) 
63

>  <original_smiles>  (228) 
O=[N+]([O-])c1ccccc1C1NN=C(c2cccs2)O1

>  <smiles>  (228) 
[H]c1sc(C2=NN([H])C([H])(c3c([H])c([H])c([H])c([H])c3[N+](=O)[O-])O2)c([H])c1[H]

$$$$
63:0:1
     RDKit          3D

 28 30  0  0  1  0  0  0  0  0999 V2000
   -1.7903    4.5488    3.6920 O   0  0  0  0  0  0  0  0  0  0  0  0
   -1.4297    3.4229    3.3736 N   0  0  0  0  0  0  0  0  0  0  0  0
   -2.1971    2.6211    2.8556 O   0  0  0  0  0  0  0  0  0  0  0  0
   -0.0164    3.0517    3.6468 C   0  0  0  0  0  0  0  0  0  0  0  0
    0.9369    4.0967    3.7010 C   0  0  0  0  0  0  0  0  0  0  0  0
    2.2969    3.8408    3.9452 C   0  0  0  0  0  0  0  0  0  0  0  0
    2.7289    2.5229    4.1541 C   0  0  0  0  0  0  0  0  0  0  0  0
    1.8011    1.4710    4.1003 C   0  0  0  0  0  0  0  0  0  0  0  0
    0.4270    1.7031    3.8366 C   0  0  0  0  0  0  0  0  0  0  0  0
   -0.5209    0.5036    3.7114 C   0  0  2  0  0  0  0  0  0  0  0  0
   -1.5854    0.4930    4.6971 N   0  0  0  0  0  0  0  0  0  0  0  0
   -1.5340   -0.7063    5.3063 N   0  0  0  0  0  0  0  0  0  0  0  0
   -0.5258   -1.3545    4.8538 C   0  0  0  0  0  0  0  0  0  0  0  0
   -0.2036   -2.6544    5.3774 C   0  0  0  0  0  0  0  0  0  0  0  0
    0.7976   -3.3912    4.8021 C   0  0  0  0  0  0  0  0  0  0  0  0
    0.9524   -4.6541    5.4523 C   0  0  0  0  0  0  0  0  0  0  0  0
    0.0673   -4.8480    6.4843 C   0  0  0  0  0  0  0  0  0  0  0  0
   -0.9762   -3.4652    6.7104 S   0  0  0  0  0  0  0  0  0  0  0  0
    0.1532   -0.6998    3.8640 O   0  0  0  0  0  0  0  0  0  0  0  0
    0.6335    5.1176    3.5187 H   0  0  0  0  0  0  0  0  0  0  0  0
    3.0086    4.6531    3.9650 H   0  0  0  0  0  0  0  0  0  0  0  0
    3.7716    2.3159    4.3384 H   0  0  0  0  0  0  0  0  0  0  0  0
    2.1758    0.4680    4.2462 H   0  0  0  0  0  0  0  0  0  0  0  0
   -0.9926    0.4804    2.7300 H   0  0  0  0  0  0  0  0  0  0  0  0
   -2.5082    0.6979    4.3165 H   0  0  0  0  0  0  0  0  0  0  0  0
    1.4113   -3.0776    3.9677 H   0  0  0  0  0  0  0  0  0  0  0  0
    1.7094   -5.3635    5.1432 H   0  0  0  0  0  0  0  0  0  0  0  0
   -0.0182   -5.7117    7.1301 H   0  0  0  0  0  0  0  0  0  0  0  0
  1  2  2  0
  2  3  1  0
  2  4  1  0
  4  9  2  0
  4  5  1  0
  5  6  2  0
  5 20  1  0
  6  7  1  0
  6 21  1  0
  7  8  2  0
  7 22  1  0
  8  9  1  0
  8 23  1  0
  9 10  1  0
 10 19  1  0
 10 11  1  0
 10 24  1  6
 11 12  1  0
 11 25  1  0
 12 13  2  0
 13 14  1  0
 13 19  1  0
 14 18  1  0
 14 15  2  0
 15 16  1  0
 15 26  1  0
 16 17  2  0
 16 27  1  0
 17 18  1  0
 17 28  1  0
M  CHG  2   2   1   3  -1
M  END
>  <i_m_ct_stereo_status>  (229) 
1

>  <s_m_source_file>  (229) 
/var/tmp/pbs.5076255.sched01/tmp0eyfkrct/966b1hsbd3.sdf

>  <i_m_source_file_index>  (229) 
3

>  <i_lp_mmshare_version>  (229) 
48012

>  <i_f3d_flags>  (229) 
0

>  <s_epik_input>  (229) 
Tz1bTitdKFtPLV0pYzFbY0hdW2NIXVtjSF1bY0hdYzFbQ0BASF0yW05IXU49QyhPMiljM1tjSF1bY0hdW2NIXXMz

>  <s_epik_cmdline>  (229) 
J2VwaWtfcHl0aG9uJywgJy1waHQnLCAnMi4wJywgJy1waCcsICc3LjAnLCAnLXRuJywgJzgnLCAnLW1hJywgJzIwMCcsICctaW1hZScsICc8aW5maWxlLm1hZT4nLCAnLW9tYWUnLCAnPG91dGZpbGUubWFlPic=

>  <r_lp_tautomer_probability>  (229) 
1

>  <r_epik_Ionization_Penalty>  (229) 
6.98184e-07

>  <r_epik_Ionization_Penalty_Charging>  (229) 
0

>  <r_epik_Ionization_Penalty_Neutral>  (229) 
6.98184e-07

>  <r_epik_State_Penalty>  (229) 
-0

>  <r_epik_Charging_Adjusted_Penalty>  (229) 
0

>  <i_epik_Tot_Q>  (229) 
0

>  <i_epik_Tot_abs_Q>  (229) 
2

>  <s_epik_Chemistry_Notes>  (229) 
This compound has an imine and may undergo hydrolysis. This compound contains an acetal/aminal-like group ( X-CH(R)-Y where X, Y are N, S, or O) that may be acid/base labile, releasing an aldehyde.

>  <s_lp_Force_Field>  (229) 
OPLS3e

>  <r_lp_Energy>  (229) 
21.6025

>  <b_lp_Chiralities_Consistent>  (229) 
1

>  <s_lp_Variant>  (229) 
63:0-1

>  <s_i_glide_gridfile>  (229) 
pfpi4k_grid

>  <i_i_glide_lignum>  (229) 
3

>  <i_i_glide_rotatable_bonds>  (229) 
3

>  <r_i_docking_score>  (229) 
-3.38755

>  <r_i_glide_ligand_efficiency>  (229) 
-0.178292

>  <r_i_glide_ligand_efficiency_sa>  (229) 
-0.475755

>  <r_i_glide_ligand_efficiency_ln>  (229) 
-0.858817

>  <r_i_glide_gscore>  (229) 
-3.38755

>  <r_i_glide_lipo>  (229) 
-0.0103529

>  <r_i_glide_hbond>  (229) 
-0.156253

>  <r_i_glide_metal>  (229) 
-0

>  <r_i_glide_rewards>  (229) 
-1.53215

>  <r_i_glide_evdw>  (229) 
-21.6274

>  <r_i_glide_ecoul>  (229) 
-5.24119

>  <r_i_glide_erotb>  (229) 
0.474302

>  <r_i_glide_esite>  (229) 
-0.295546

>  <r_i_glide_emodel>  (229) 
-32.9451

>  <r_i_glide_energy>  (229) 
-26.8686

>  <r_i_glide_einternal>  (229) 
0.61243

>  <r_i_glide_intrahb_reward>  (229) 
-0

>  <i_i_glide_confnum>  (229) 
5

>  <i_i_glide_posenum>  (229) 
8

>  <r_i_glide_eff_state_penalty>  (229) 
0

>  <ligand_id>  (229) 
63

>  <original_smiles>  (229) 
O=[N+]([O-])c1ccccc1C1NN=C(c2cccs2)O1

>  <smiles>  (229) 
[H]c1sc(C2=NN([H])C([H])(c3c([H])c([H])c([H])c([H])c3[N+](=O)[O-])O2)c([H])c1[H]

$$$$
63:0:2
     RDKit          3D

 28 30  0  0  1  0  0  0  0  0999 V2000
    0.1851  -10.4098    2.4951 O   0  0  0  0  0  0  0  0  0  0  0  0
   -0.5634   -9.4453    2.5887 N   0  0  0  0  0  0  0  0  0  0  0  0
   -1.7000   -9.4001    2.1215 O   0  0  0  0  0  0  0  0  0  0  0  0
   -0.0916   -8.2612    3.3166 C   0  0  0  0  0  0  0  0  0  0  0  0
   -0.9837   -7.6524    4.2183 C   0  0  0  0  0  0  0  0  0  0  0  0
   -0.6047   -6.5194    4.9515 C   0  0  0  0  0  0  0  0  0  0  0  0
    0.6784   -5.9741    4.7833 C   0  0  0  0  0  0  0  0  0  0  0  0
    1.5765   -6.5664    3.8754 C   0  0  0  0  0  0  0  0  0  0  0  0
    1.2062   -7.7022    3.1098 C   0  0  0  0  0  0  0  0  0  0  0  0
    2.1663   -8.2937    2.0586 C   0  0  2  0  0  0  0  0  0  0  0  0
    2.9810   -9.3851    2.5524 N   0  0  0  0  0  0  0  0  0  0  0  0
    4.2651   -9.0087    2.3558 N   0  0  0  0  0  0  0  0  0  0  0  0
    4.2822   -7.8271    1.8501 C   0  0  0  0  0  0  0  0  0  0  0  0
    5.4947   -7.1140    1.5476 C   0  0  0  0  0  0  0  0  0  0  0  0
    6.7463   -7.6637    1.6895 C   0  0  0  0  0  0  0  0  0  0  0  0
    7.7617   -6.7348    1.3092 C   0  0  0  0  0  0  0  0  0  0  0  0
    7.2638   -5.5283    0.8852 C   0  0  0  0  0  0  0  0  0  0  0  0
    5.5206   -5.4942    0.9211 S   0  0  0  0  0  0  0  0  0  0  0  0
    3.0389   -7.3187    1.6212 O   0  0  0  0  0  0  0  0  0  0  0  0
   -1.9617   -8.0913    4.3452 H   0  0  0  0  0  0  0  0  0  0  0  0
   -1.2966   -6.0777    5.6546 H   0  0  0  0  0  0  0  0  0  0  0  0
    0.9720   -5.1091    5.3547 H   0  0  0  0  0  0  0  0  0  0  0  0
    2.5513   -6.1112    3.7580 H   0  0  0  0  0  0  0  0  0  0  0  0
    1.6702   -8.7045    1.1792 H   0  0  0  0  0  0  0  0  0  0  0  0
    2.7820  -10.2861    2.1127 H   0  0  0  0  0  0  0  0  0  0  0  0
    6.9792   -8.6592    2.0424 H   0  0  0  0  0  0  0  0  0  0  0  0
    8.8166   -6.9722    1.3477 H   0  0  0  0  0  0  0  0  0  0  0  0
    7.7984   -4.6509    0.5433 H   0  0  0  0  0  0  0  0  0  0  0  0
  1  2  2  0
  2  3  1  0
  2  4  1  0
  4  9  2  0
  4  5  1  0
  5  6  2  0
  5 20  1  0
  6  7  1  0
  6 21  1  0
  7  8  2  0
  7 22  1  0
  8  9  1  0
  8 23  1  0
  9 10  1  0
 10 19  1  0
 10 11  1  0
 10 24  1  6
 11 12  1  0
 11 25  1  0
 12 13  2  0
 13 14  1  0
 13 19  1  0
 14 18  1  0
 14 15  2  0
 15 16  1  0
 15 26  1  0
 16 17  2  0
 16 27  1  0
 17 18  1  0
 17 28  1  0
M  CHG  2   2   1   3  -1
M  END
>  <i_m_ct_stereo_status>  (230) 
1

>  <s_m_source_file>  (230) 
/var/tmp/pbs.5076255.sched01/tmp0eyfkrct/966b1hsbd3.sdf

>  <i_m_source_file_index>  (230) 
3

>  <i_lp_mmshare_version>  (230) 
48012

>  <i_f3d_flags>  (230) 
0

>  <s_epik_input>  (230) 
Tz1bTitdKFtPLV0pYzFbY0hdW2NIXVtjSF1bY0hdYzFbQ0BASF0yW05IXU49QyhPMiljM1tjSF1bY0hdW2NIXXMz

>  <s_epik_cmdline>  (230) 
J2VwaWtfcHl0aG9uJywgJy1waHQnLCAnMi4wJywgJy1waCcsICc3LjAnLCAnLXRuJywgJzgnLCAnLW1hJywgJzIwMCcsICctaW1hZScsICc8aW5maWxlLm1hZT4nLCAnLW9tYWUnLCAnPG91dGZpbGUubWFlPic=

>  <r_lp_tautomer_probability>  (230) 
1

>  <r_epik_Ionization_Penalty>  (230) 
6.98184e-07

>  <r_epik_Ionization_Penalty_Charging>  (230) 
0

>  <r_epik_Ionization_Penalty_Neutral>  (230) 
6.98184e-07

>  <r_epik_State_Penalty>  (230) 
-0

>  <r_epik_Charging_Adjusted_Penalty>  (230) 
0

>  <i_epik_Tot_Q>  (230) 
0

>  <i_epik_Tot_abs_Q>  (230) 
2

>  <s_epik_Chemistry_Notes>  (230) 
This compound has an imine and may undergo hydrolysis. This compound contains an acetal/aminal-like group ( X-CH(R)-Y where X, Y are N, S, or O) that may be acid/base labile, releasing an aldehyde.

>  <s_lp_Force_Field>  (230) 
OPLS3e

>  <r_lp_Energy>  (230) 
21.6025

>  <b_lp_Chiralities_Consistent>  (230) 
1

>  <s_lp_Variant>  (230) 
63:0-1

>  <s_i_glide_gridfile>  (230) 
pfpi4k_grid

>  <i_i_glide_lignum>  (230) 
3

>  <i_i_glide_rotatable_bonds>  (230) 
3

>  <r_i_docking_score>  (230) 
-3.00447

>  <r_i_glide_ligand_efficiency>  (230) 
-0.15813

>  <r_i_glide_ligand_efficiency_sa>  (230) 
-0.421954

>  <r_i_glide_ligand_efficiency_ln>  (230) 
-0.761696

>  <r_i_glide_gscore>  (230) 
-3.00447

>  <r_i_glide_lipo>  (230) 
-0.354229

>  <r_i_glide_hbond>  (230) 
0

>  <r_i_glide_metal>  (230) 
-0

>  <r_i_glide_rewards>  (230) 
-1.63403

>  <r_i_glide_evdw>  (230) 
-25.188

>  <r_i_glide_ecoul>  (230) 
-1.30333

>  <r_i_glide_erotb>  (230) 
0.474302

>  <r_i_glide_esite>  (230) 
-0.0356115

>  <r_i_glide_emodel>  (230) 
-31.8587

>  <r_i_glide_energy>  (230) 
-26.4913

>  <r_i_glide_einternal>  (230) 
0.798387

>  <r_i_glide_intrahb_reward>  (230) 
-0

>  <i_i_glide_confnum>  (230) 
4

>  <i_i_glide_posenum>  (230) 
17

>  <r_i_glide_eff_state_penalty>  (230) 
0

>  <ligand_id>  (230) 
63

>  <original_smiles>  (230) 
O=[N+]([O-])c1ccccc1C1NN=C(c2cccs2)O1

>  <smiles>  (230) 
[H]c1sc(C2=NN([H])C([H])(c3c([H])c([H])c([H])c([H])c3[N+](=O)[O-])O2)c([H])c1[H]

$$$$
64:0:0
     RDKit          3D

 78 83  0  0  1  0  0  0  0  0999 V2000
    8.1864   -3.0605   -1.0370 C   0  0  0  0  0  0  0  0  0  0  0  0
    6.8795   -2.5751   -1.2947 O   0  0  0  0  0  0  0  0  0  0  0  0
    6.2576   -2.0167   -0.1802 C   0  0  2  0  0  0  0  0  0  0  0  0
    5.9546   -2.9535    0.8311 O   0  0  0  0  0  0  0  0  0  0  0  0
    4.8781   -3.9175    0.7292 C   0  0  1  0  0  0  0  0  0  0  0  0
    5.3134   -4.9066   -0.3869 C   0  0  0  0  0  0  0  0  0  0  0  0
    4.9036   -4.6102    2.1668 C   0  0  2  0  0  0  0  0  0  0  0  0
    4.5091   -6.1055    2.2026 C   0  0  0  0  0  0  0  0  0  0  0  0
    4.9618   -6.8278    3.4860 C   0  0  0  0  0  0  0  0  0  0  0  0
    4.8353   -6.0220    4.8132 C   0  0  2  0  0  0  0  0  0  0  0  0
    6.2348   -5.5072    5.2475 C   0  0  0  0  0  0  0  0  0  0  0  0
    4.2520   -7.0066    5.9044 C   0  0  1  0  0  0  0  0  0  0  0  0
    5.2500   -8.1133    6.3617 C   0  0  0  0  0  0  0  0  0  0  0  0
    4.7408   -8.9680    7.5354 C   0  0  0  0  0  0  0  0  0  0  0  0
    4.3067   -8.1093    8.7414 C   0  0  0  0  0  0  0  0  0  0  0  0
    3.7744   -9.0328    9.8525 C   0  0  0  0  0  0  0  0  0  0  0  0
    5.4891   -7.2837    9.3084 C   0  0  0  0  0  0  0  0  0  0  0  0
    3.1770   -7.1886    8.2583 C   0  0  0  0  0  0  0  0  0  0  0  0
    3.5860   -6.2986    7.0905 C   0  0  0  0  0  0  0  0  0  0  0  0
    3.2720   -4.9936    7.0934 C   0  0  0  0  0  0  0  0  0  0  0  0
    3.4801   -4.1300    5.9270 C   0  0  0  0  0  0  0  0  0  0  0  0
    3.2778   -2.9226    6.0165 O   0  0  0  0  0  0  0  0  0  0  0  0
    3.8676   -4.8094    4.5844 C   0  0  1  0  0  0  0  0  0  0  0  0
    4.1806   -3.8426    3.3455 C   0  0  1  0  0  0  0  0  0  0  0  0
    5.0292   -2.5958    3.7648 C   0  0  0  0  0  0  0  0  0  0  0  0
    2.8047   -3.3504    2.8226 C   0  0  0  0  0  0  0  0  0  0  0  0
    2.9027   -2.4791    1.5657 C   0  0  0  0  0  0  0  0  0  0  0  0
    3.5159   -3.2164    0.3483 C   0  0  2  0  0  0  0  0  0  0  0  0
    2.4527   -4.2154   -0.1690 C   0  0  0  0  0  0  0  0  0  0  0  0
    3.8160   -2.2000   -0.7575 C   0  0  0  0  0  0  0  0  0  0  0  0
    3.2912   -2.0831   -1.9782 C   0  0  0  0  0  0  0  0  0  0  0  0
    4.0935   -1.1058   -2.7002 C   0  0  0  0  0  0  0  0  0  0  0  0
    3.9005   -0.7000   -3.8495 O   0  0  0  0  0  0  0  0  0  0  0  0
    5.1375   -0.7456   -1.9120 O   0  0  0  0  0  0  0  0  0  0  0  0
    4.9828   -1.2782   -0.6240 C   0  0  2  0  0  0  0  0  0  0  0  0
    4.7078   -0.2516    0.2914 O   0  0  0  0  0  0  0  0  0  0  0  0
    8.5630   -3.5712   -1.9220 H   0  0  0  0  0  0  0  0  0  0  0  0
    8.1888   -3.7717   -0.2103 H   0  0  0  0  0  0  0  0  0  0  0  0
    8.8665   -2.2421   -0.8006 H   0  0  0  0  0  0  0  0  0  0  0  0
    6.9668   -1.3115    0.2539 H   0  0  0  0  0  0  0  0  0  0  0  0
    4.6371   -5.7553   -0.4989 H   0  0  0  0  0  0  0  0  0  0  0  0
    6.3020   -5.3035   -0.1682 H   0  0  0  0  0  0  0  0  0  0  0  0
    5.3441   -4.4422   -1.3720 H   0  0  0  0  0  0  0  0  0  0  0  0
    5.9640   -4.6218    2.4180 H   0  0  0  0  0  0  0  0  0  0  0  0
    3.4288   -6.1993    2.0931 H   0  0  0  0  0  0  0  0  0  0  0  0
    4.9629   -6.6671    1.3892 H   0  0  0  0  0  0  0  0  0  0  0  0
    4.3899   -7.7578    3.5352 H   0  0  0  0  0  0  0  0  0  0  0  0
    5.9972   -7.1461    3.3560 H   0  0  0  0  0  0  0  0  0  0  0  0
    6.2138   -5.0212    6.2228 H   0  0  0  0  0  0  0  0  0  0  0  0
    6.6250   -4.7920    4.5360 H   0  0  0  0  0  0  0  0  0  0  0  0
    6.9877   -6.2929    5.2941 H   0  0  0  0  0  0  0  0  0  0  0  0
    3.4062   -7.5236    5.4528 H   0  0  0  0  0  0  0  0  0  0  0  0
    5.4849   -8.7671    5.5207 H   0  0  0  0  0  0  0  0  0  0  0  0
    6.2007   -7.6889    6.6797 H   0  0  0  0  0  0  0  0  0  0  0  0
    3.8954   -9.5653    7.1910 H   0  0  0  0  0  0  0  0  0  0  0  0
    5.5134   -9.6789    7.8364 H   0  0  0  0  0  0  0  0  0  0  0  0
    3.4278   -8.4603   10.7131 H   0  0  0  0  0  0  0  0  0  0  0  0
    4.5466   -9.7195   10.2031 H   0  0  0  0  0  0  0  0  0  0  0  0
    2.9363   -9.6345    9.4964 H   0  0  0  0  0  0  0  0  0  0  0  0
    5.1967   -6.7402   10.2093 H   0  0  0  0  0  0  0  0  0  0  0  0
    5.8469   -6.5389    8.5936 H   0  0  0  0  0  0  0  0  0  0  0  0
    6.3360   -7.9275    9.5614 H   0  0  0  0  0  0  0  0  0  0  0  0
    2.3294   -7.7914    7.9281 H   0  0  0  0  0  0  0  0  0  0  0  0
    2.8217   -6.5715    9.0817 H   0  0  0  0  0  0  0  0  0  0  0  0
    2.7798   -4.5515    7.9486 H   0  0  0  0  0  0  0  0  0  0  0  0
    2.9365   -5.3054    4.3128 H   0  0  0  0  0  0  0  0  0  0  0  0
    4.4195   -1.8132    4.2159 H   0  0  0  0  0  0  0  0  0  0  0  0
    5.5119   -2.0985    2.9298 H   0  0  0  0  0  0  0  0  0  0  0  0
    5.8106   -2.8291    4.4835 H   0  0  0  0  0  0  0  0  0  0  0  0
    2.1597   -4.2048    2.6180 H   0  0  0  0  0  0  0  0  0  0  0  0
    2.2877   -2.7798    3.5978 H   0  0  0  0  0  0  0  0  0  0  0  0
    1.9101   -2.0975    1.3126 H   0  0  0  0  0  0  0  0  0  0  0  0
    3.4805   -1.5999    1.8380 H   0  0  0  0  0  0  0  0  0  0  0  0
    2.2753   -5.0314    0.5206 H   0  0  0  0  0  0  0  0  0  0  0  0
    2.7471   -4.6515   -1.1143 H   0  0  0  0  0  0  0  0  0  0  0  0
    1.5113   -3.7118   -0.3714 H   0  0  0  0  0  0  0  0  0  0  0  0
    2.4662   -2.6240   -2.4213 H   0  0  0  0  0  0  0  0  0  0  0  0
    5.0107    0.5710   -0.0743 H   0  0  0  0  0  0  0  0  0  0  0  0
  1  2  1  0
  1 37  1  0
  1 38  1  0
  1 39  1  0
  2  3  1  0
  3 35  1  0
  3  4  1  0
  3 40  1  1
  4  5  1  0
  5 28  1  0
  5  6  1  6
  5  7  1  0
  6 41  1  0
  6 42  1  0
  6 43  1  0
  7 24  1  0
  7  8  1  0
  7 44  1  1
  8  9  1  0
  8 45  1  0
  8 46  1  0
  9 10  1  0
  9 47  1  0
  9 48  1  0
 10 23  1  0
 10 11  1  1
 10 12  1  0
 11 49  1  0
 11 50  1  0
 11 51  1  0
 12 19  1  0
 12 13  1  0
 12 52  1  6
 13 14  1  0
 13 53  1  0
 13 54  1  0
 14 15  1  0
 14 55  1  0
 14 56  1  0
 15 16  1  0
 15 17  1  0
 15 18  1  0
 16 57  1  0
 16 58  1  0
 16 59  1  0
 17 60  1  0
 17 61  1  0
 17 62  1  0
 18 19  1  0
 18 63  1  0
 18 64  1  0
 19 20  2  0
 20 21  1  0
 20 65  1  0
 21 22  2  0
 21 23  1  0
 23 24  1  0
 23 66  1  6
 24 25  1  1
 24 26  1  0
 25 67  1  0
 25 68  1  0
 25 69  1  0
 26 27  1  0
 26 70  1  0
 26 71  1  0
 27 28  1  0
 27 72  1  0
 27 73  1  0
 28 29  1  6
 28 30  1  0
 29 74  1  0
 29 75  1  0
 29 76  1  0
 30 35  1  0
 30 31  2  0
 31 32  1  0
 31 77  1  0
 32 33  2  0
 32 34  1  0
 34 35  1  0
 35 36  1  1
 36 78  1  0
M  END
>  <i_m_ct_stereo_status>  (231) 
1

>  <s_m_source_file>  (231) 
/var/tmp/pbs.5076255.sched01/tmp0eyfkrct/966b1hsbd3.sdf

>  <i_m_source_file_index>  (231) 
4

>  <i_lp_mmshare_version>  (231) 
48012

>  <i_f3d_flags>  (231) 
0

>  <s_epik_input>  (231) 
W0NIM11PW0NASF0oTzEpW0NAQF0oW09IXSkoT0MoPU8pW0NIXTIpQz0yW0NAXTMoW0NIM10pW0NIMl1bQ0gyXVtDQF0oW0NIM10pKFtDQEBIXTRbQ0BdMTNbQ0gzXSlbQ0BIXTVbQ0BdKFtDSDNdKShbQ0gyXVtDSDJdNClbQ0BASF02Qyg9W0NIXUM1PU8pW0NIMl1DKFtDSDNdKShbQ0gzXSlbQ0gyXVtDSDJdNg==

>  <s_epik_cmdline>  (231) 
J2VwaWtfcHl0aG9uJywgJy1waHQnLCAnMi4wJywgJy1waCcsICc3LjAnLCAnLXRuJywgJzgnLCAnLW1hJywgJzIwMCcsICctaW1hZScsICc8aW5maWxlLm1hZT4nLCAnLW9tYWUnLCAnPG91dGZpbGUubWFlPic=

>  <r_epik_Ionization_Penalty>  (231) 
0.366597

>  <r_epik_Ionization_Penalty_Charging>  (231) 
0

>  <r_epik_Ionization_Penalty_Neutral>  (231) 
0.366597

>  <r_epik_State_Penalty>  (231) 
0.363767

>  <r_epik_Charging_Adjusted_Penalty>  (231) 
0.363767

>  <i_epik_Tot_Q>  (231) 
0

>  <i_epik_Tot_abs_Q>  (231) 
0

>  <s_epik_Chemistry_Notes>  (231) 
This compound has an ester and may undergo hydrolysis at high or low pH. This compound contains an acetal/aminal-like group ( X-CH(R)-Y where X, Y are N, S, or O) that may be acid/base labile, releasing an aldehyde.

>  <s_lp_Force_Field>  (231) 
OPLS3e

>  <r_lp_Energy>  (231) 
69.0815

>  <b_lp_Chiralities_Consistent>  (231) 
1

>  <s_lp_Variant>  (231) 
64:0-1

>  <s_i_glide_gridfile>  (231) 
pfpi4k_grid

>  <i_i_glide_lignum>  (231) 
4

>  <i_i_glide_rotatable_bonds>  (231) 
2

>  <r_i_docking_score>  (231) 
-2.28626

>  <r_i_glide_ligand_efficiency>  (231) 
-0.0635071

>  <r_i_glide_ligand_efficiency_sa>  (231) 
-0.209696

>  <r_i_glide_ligand_efficiency_ln>  (231) 
-0.498799

>  <r_i_glide_gscore>  (231) 
-2.28626

>  <r_i_glide_lipo>  (231) 
-0.128497

>  <r_i_glide_hbond>  (231) 
-0.0990187

>  <r_i_glide_metal>  (231) 
-0

>  <r_i_glide_rewards>  (231) 
-0.00919855

>  <r_i_glide_evdw>  (231) 
-25.2282

>  <r_i_glide_ecoul>  (231) 
-4.85264

>  <r_i_glide_erotb>  (231) 
0

>  <r_i_glide_esite>  (231) 
-0.0602362

>  <r_i_glide_emodel>  (231) 
-33.2857

>  <r_i_glide_energy>  (231) 
-30.0808

>  <r_i_glide_einternal>  (231) 
1.16765

>  <r_i_glide_intrahb_reward>  (231) 
-0

>  <i_i_glide_confnum>  (231) 
2

>  <i_i_glide_posenum>  (231) 
16

>  <r_i_glide_eff_state_penalty>  (231) 
0

>  <ligand_id>  (231) 
64

>  <original_smiles>  (231) 
COC1OC2(C)C3CCC4(C)C5CCC(C)(C)CC5=CC(=O)C4C3(C)CCC2(C)C2=CC(=O)OC21O

>  <smiles>  (231) 
[H]OC12OC(=O)C([H])=C1C1(C([H])([H])[H])C([H])([H])C([H])([H])C3(C([H])([H])[H])C4([H])C(=O)C([H])=C5C([H])([H])C(C([H])([H])[H])(C([H])([H])[H])C([H])([H])C([H])([H])C5([H])C4(C([H])([H])[H])C([H])([H])C([H])([H])C3([H])C1(C([H])([H])[H])OC2([H])OC([H])([H])[H]

$$$$
64:0:1
     RDKit          3D

 78 83  0  0  1  0  0  0  0  0999 V2000
    4.3665    2.9800    5.9251 C   0  0  0  0  0  0  0  0  0  0  0  0
    3.0031    3.2517    5.6365 O   0  0  0  0  0  0  0  0  0  0  0  0
    2.1073    2.4442    6.3365 C   0  0  2  0  0  0  0  0  0  0  0  0
    2.0894    1.1125    5.8746 O   0  0  0  0  0  0  0  0  0  0  0  0
    1.5143    0.7162    4.6086 C   0  0  1  0  0  0  0  0  0  0  0  0
    2.4233    1.3447    3.5130 C   0  0  0  0  0  0  0  0  0  0  0  0
    1.6706   -0.8710    4.6574 C   0  0  2  0  0  0  0  0  0  0  0  0
    1.8994   -1.5662    3.2958 C   0  0  0  0  0  0  0  0  0  0  0  0
    2.4677   -2.9922    3.4222 C   0  0  0  0  0  0  0  0  0  0  0  0
    1.9086   -3.8568    4.5913 C   0  0  2  0  0  0  0  0  0  0  0  0
    2.9454   -3.9146    5.7500 C   0  0  0  0  0  0  0  0  0  0  0  0
    1.6543   -5.3065    4.0083 C   0  0  1  0  0  0  0  0  0  0  0  0
    2.9532   -6.1057    3.6876 C   0  0  0  0  0  0  0  0  0  0  0  0
    2.7080   -7.5681    3.2778 C   0  0  0  0  0  0  0  0  0  0  0  0
    1.8525   -8.3317    4.3093 C   0  0  0  0  0  0  0  0  0  0  0  0
    1.6209   -9.7702    3.8090 C   0  0  0  0  0  0  0  0  0  0  0  0
    2.5508   -8.3955    5.6917 C   0  0  0  0  0  0  0  0  0  0  0  0
    0.5062   -7.6002    4.4118 C   0  0  0  0  0  0  0  0  0  0  0  0
    0.6457   -6.1350    4.8142 C   0  0  0  0  0  0  0  0  0  0  0  0
   -0.1532   -5.6165    5.7615 C   0  0  0  0  0  0  0  0  0  0  0  0
   -0.1875   -4.1813    6.0675 C   0  0  0  0  0  0  0  0  0  0  0  0
   -0.8798   -3.7626    6.9935 O   0  0  0  0  0  0  0  0  0  0  0  0
    0.5663   -3.2247    5.1009 C   0  0  1  0  0  0  0  0  0  0  0  0
    0.5919   -1.6732    5.4916 C   0  0  1  0  0  0  0  0  0  0  0  0
    0.8355   -1.4557    7.0220 C   0  0  0  0  0  0  0  0  0  0  0  0
   -0.8072   -1.1122    5.1241 C   0  0  0  0  0  0  0  0  0  0  0  0
   -0.9378    0.3966    5.3483 C   0  0  0  0  0  0  0  0  0  0  0  0
    0.0277    1.2414    4.4803 C   0  0  2  0  0  0  0  0  0  0  0  0
   -0.4964    1.1912    3.0153 C   0  0  0  0  0  0  0  0  0  0  0  0
   -0.0001    2.6908    4.9831 C   0  0  0  0  0  0  0  0  0  0  0  0
   -0.3971    3.8010    4.3571 C   0  0  0  0  0  0  0  0  0  0  0  0
    0.0487    4.9269    5.1736 C   0  0  0  0  0  0  0  0  0  0  0  0
   -0.1881    6.1194    4.9673 O   0  0  0  0  0  0  0  0  0  0  0  0
    0.7842    4.4521    6.2076 O   0  0  0  0  0  0  0  0  0  0  0  0
    0.6941    3.0571    6.2603 C   0  0  2  0  0  0  0  0  0  0  0  0
   -0.0702    2.6762    7.3857 O   0  0  0  0  0  0  0  0  0  0  0  0
    4.9983    3.5968    5.2886 H   0  0  0  0  0  0  0  0  0  0  0  0
    4.6127    1.9350    5.7413 H   0  0  0  0  0  0  0  0  0  0  0  0
    4.5983    3.2209    6.9620 H   0  0  0  0  0  0  0  0  0  0  0  0
    2.4507    2.4335    7.3713 H   0  0  0  0  0  0  0  0  0  0  0  0
    2.1552    1.0284    2.5053 H   0  0  0  0  0  0  0  0  0  0  0  0
    3.4666    1.0751    3.6727 H   0  0  0  0  0  0  0  0  0  0  0  0
    2.3617    2.4308    3.4840 H   0  0  0  0  0  0  0  0  0  0  0  0
    2.6213   -1.0176    5.1709 H   0  0  0  0  0  0  0  0  0  0  0  0
    0.9630   -1.6011    2.7372 H   0  0  0  0  0  0  0  0  0  0  0  0
    2.6149   -1.0334    2.6746 H   0  0  0  0  0  0  0  0  0  0  0  0
    2.3071   -3.4744    2.4563 H   0  0  0  0  0  0  0  0  0  0  0  0
    3.5534   -2.9238    3.5152 H   0  0  0  0  0  0  0  0  0  0  0  0
    2.6340   -4.5959    6.5413 H   0  0  0  0  0  0  0  0  0  0  0  0
    3.1196   -2.9446    6.2057 H   0  0  0  0  0  0  0  0  0  0  0  0
    3.9311   -4.2364    5.4202 H   0  0  0  0  0  0  0  0  0  0  0  0
    1.1329   -5.1897    3.0579 H   0  0  0  0  0  0  0  0  0  0  0  0
    3.5123   -5.6059    2.8971 H   0  0  0  0  0  0  0  0  0  0  0  0
    3.6227   -6.1381    4.5441 H   0  0  0  0  0  0  0  0  0  0  0  0
    2.2041   -7.5843    2.3099 H   0  0  0  0  0  0  0  0  0  0  0  0
    3.6624   -8.0784    3.1298 H   0  0  0  0  0  0  0  0  0  0  0  0
    0.9910  -10.3381    4.4957 H   0  0  0  0  0  0  0  0  0  0  0  0
    2.5609  -10.3140    3.7025 H   0  0  0  0  0  0  0  0  0  0  0  0
    1.1291   -9.7776    2.8350 H   0  0  0  0  0  0  0  0  0  0  0  0
    1.9831   -9.0055    6.3972 H   0  0  0  0  0  0  0  0  0  0  0  0
    2.6564   -7.4078    6.1456 H   0  0  0  0  0  0  0  0  0  0  0  0
    3.5530   -8.8239    5.6126 H   0  0  0  0  0  0  0  0  0  0  0  0
    0.0017   -7.6344    3.4445 H   0  0  0  0  0  0  0  0  0  0  0  0
   -0.1463   -8.1192    5.1137 H   0  0  0  0  0  0  0  0  0  0  0  0
   -0.8625   -6.2442    6.2797 H   0  0  0  0  0  0  0  0  0  0  0  0
   -0.0620   -3.2713    4.2120 H   0  0  0  0  0  0  0  0  0  0  0  0
   -0.0740   -1.5851    7.6055 H   0  0  0  0  0  0  0  0  0  0  0  0
    1.1637   -0.4531    7.2746 H   0  0  0  0  0  0  0  0  0  0  0  0
    1.5712   -2.1371    7.4409 H   0  0  0  0  0  0  0  0  0  0  0  0
   -1.0334   -1.3376    4.0806 H   0  0  0  0  0  0  0  0  0  0  0  0
   -1.5834   -1.6177    5.6996 H   0  0  0  0  0  0  0  0  0  0  0  0
   -1.9680    0.7003    5.1543 H   0  0  0  0  0  0  0  0  0  0  0  0
   -0.7802    0.5793    6.4066 H   0  0  0  0  0  0  0  0  0  0  0  0
   -0.3906    0.2048    2.5770 H   0  0  0  0  0  0  0  0  0  0  0  0
    0.0303    1.8856    2.3584 H   0  0  0  0  0  0  0  0  0  0  0  0
   -1.5534    1.4576    2.9597 H   0  0  0  0  0  0  0  0  0  0  0  0
   -0.8621    3.9111    3.3895 H   0  0  0  0  0  0  0  0  0  0  0  0
    0.4121    2.9026    8.1648 H   0  0  0  0  0  0  0  0  0  0  0  0
  1  2  1  0
  1 37  1  0
  1 38  1  0
  1 39  1  0
  2  3  1  0
  3 35  1  0
  3  4  1  0
  3 40  1  1
  4  5  1  0
  5 28  1  0
  5  6  1  6
  5  7  1  0
  6 41  1  0
  6 42  1  0
  6 43  1  0
  7 24  1  0
  7  8  1  0
  7 44  1  1
  8  9  1  0
  8 45  1  0
  8 46  1  0
  9 10  1  0
  9 47  1  0
  9 48  1  0
 10 23  1  0
 10 11  1  1
 10 12  1  0
 11 49  1  0
 11 50  1  0
 11 51  1  0
 12 19  1  0
 12 13  1  0
 12 52  1  6
 13 14  1  0
 13 53  1  0
 13 54  1  0
 14 15  1  0
 14 55  1  0
 14 56  1  0
 15 16  1  0
 15 17  1  0
 15 18  1  0
 16 57  1  0
 16 58  1  0
 16 59  1  0
 17 60  1  0
 17 61  1  0
 17 62  1  0
 18 19  1  0
 18 63  1  0
 18 64  1  0
 19 20  2  0
 20 21  1  0
 20 65  1  0
 21 22  2  0
 21 23  1  0
 23 24  1  0
 23 66  1  6
 24 25  1  1
 24 26  1  0
 25 67  1  0
 25 68  1  0
 25 69  1  0
 26 27  1  0
 26 70  1  0
 26 71  1  0
 27 28  1  0
 27 72  1  0
 27 73  1  0
 28 29  1  6
 28 30  1  0
 29 74  1  0
 29 75  1  0
 29 76  1  0
 30 35  1  0
 30 31  2  0
 31 32  1  0
 31 77  1  0
 32 33  2  0
 32 34  1  0
 34 35  1  0
 35 36  1  1
 36 78  1  0
M  END
>  <i_m_ct_stereo_status>  (232) 
1

>  <s_m_source_file>  (232) 
/var/tmp/pbs.5076255.sched01/tmp0eyfkrct/966b1hsbd3.sdf

>  <i_m_source_file_index>  (232) 
4

>  <i_lp_mmshare_version>  (232) 
48012

>  <i_f3d_flags>  (232) 
0

>  <s_epik_input>  (232) 
W0NIM11PW0NASF0oTzEpW0NAQF0oW09IXSkoT0MoPU8pW0NIXTIpQz0yW0NAXTMoW0NIM10pW0NIMl1bQ0gyXVtDQF0oW0NIM10pKFtDQEBIXTRbQ0BdMTNbQ0gzXSlbQ0BIXTVbQ0BdKFtDSDNdKShbQ0gyXVtDSDJdNClbQ0BASF02Qyg9W0NIXUM1PU8pW0NIMl1DKFtDSDNdKShbQ0gzXSlbQ0gyXVtDSDJdNg==

>  <s_epik_cmdline>  (232) 
J2VwaWtfcHl0aG9uJywgJy1waHQnLCAnMi4wJywgJy1waCcsICc3LjAnLCAnLXRuJywgJzgnLCAnLW1hJywgJzIwMCcsICctaW1hZScsICc8aW5maWxlLm1hZT4nLCAnLW9tYWUnLCAnPG91dGZpbGUubWFlPic=

>  <r_epik_Ionization_Penalty>  (232) 
0.366597

>  <r_epik_Ionization_Penalty_Charging>  (232) 
0

>  <r_epik_Ionization_Penalty_Neutral>  (232) 
0.366597

>  <r_epik_State_Penalty>  (232) 
0.363767

>  <r_epik_Charging_Adjusted_Penalty>  (232) 
0.363767

>  <i_epik_Tot_Q>  (232) 
0

>  <i_epik_Tot_abs_Q>  (232) 
0

>  <s_epik_Chemistry_Notes>  (232) 
This compound has an ester and may undergo hydrolysis at high or low pH. This compound contains an acetal/aminal-like group ( X-CH(R)-Y where X, Y are N, S, or O) that may be acid/base labile, releasing an aldehyde.

>  <s_lp_Force_Field>  (232) 
OPLS3e

>  <r_lp_Energy>  (232) 
69.0815

>  <b_lp_Chiralities_Consistent>  (232) 
1

>  <s_lp_Variant>  (232) 
64:0-1

>  <s_i_glide_gridfile>  (232) 
pfpi4k_grid

>  <i_i_glide_lignum>  (232) 
4

>  <i_i_glide_rotatable_bonds>  (232) 
2

>  <r_i_docking_score>  (232) 
-1.59911

>  <r_i_glide_ligand_efficiency>  (232) 
-0.0444198

>  <r_i_glide_ligand_efficiency_sa>  (232) 
-0.146671

>  <r_i_glide_ligand_efficiency_ln>  (232) 
-0.348883

>  <r_i_glide_gscore>  (232) 
-1.59911

>  <r_i_glide_lipo>  (232) 
-0.00560581

>  <r_i_glide_hbond>  (232) 
-0.0064998

>  <r_i_glide_metal>  (232) 
-0

>  <r_i_glide_rewards>  (232) 
-0.00919855

>  <r_i_glide_evdw>  (232) 
-21.1416

>  <r_i_glide_ecoul>  (232) 
-3.21808

>  <r_i_glide_erotb>  (232) 
0

>  <r_i_glide_esite>  (232) 
-0.038016

>  <r_i_glide_emodel>  (232) 
-26.9618

>  <r_i_glide_energy>  (232) 
-24.3597

>  <r_i_glide_einternal>  (232) 
0.158179

>  <r_i_glide_intrahb_reward>  (232) 
-0

>  <i_i_glide_confnum>  (232) 
1

>  <i_i_glide_posenum>  (232) 
4

>  <r_i_glide_eff_state_penalty>  (232) 
0

>  <ligand_id>  (232) 
64

>  <original_smiles>  (232) 
COC1OC2(C)C3CCC4(C)C5CCC(C)(C)CC5=CC(=O)C4C3(C)CCC2(C)C2=CC(=O)OC21O

>  <smiles>  (232) 
[H]OC12OC(=O)C([H])=C1C1(C([H])([H])[H])C([H])([H])C([H])([H])C3(C([H])([H])[H])C4([H])C(=O)C([H])=C5C([H])([H])C(C([H])([H])[H])(C([H])([H])[H])C([H])([H])C([H])([H])C5([H])C4(C([H])([H])[H])C([H])([H])C([H])([H])C3([H])C1(C([H])([H])[H])OC2([H])OC([H])([H])[H]

$$$$
64:0:2
     RDKit          3D

 78 83  0  0  1  0  0  0  0  0999 V2000
    4.4590    3.0542    5.9414 C   0  0  0  0  0  0  0  0  0  0  0  0
    3.1139    3.3752    5.6319 O   0  0  0  0  0  0  0  0  0  0  0  0
    2.1789    2.6404    6.3575 C   0  0  2  0  0  0  0  0  0  0  0  0
    2.1032    1.2912    5.9530 O   0  0  0  0  0  0  0  0  0  0  0  0
    1.5171    0.8693    4.6991 C   0  0  1  0  0  0  0  0  0  0  0  0
    2.4585    1.4097    3.5837 C   0  0  0  0  0  0  0  0  0  0  0  0
    1.6033   -0.7222    4.8130 C   0  0  2  0  0  0  0  0  0  0  0  0
    1.8037   -1.4814    3.4816 C   0  0  0  0  0  0  0  0  0  0  0  0
    2.3119   -2.9233    3.6711 C   0  0  0  0  0  0  0  0  0  0  0  0
    1.7085   -3.7157    4.8683 C   0  0  2  0  0  0  0  0  0  0  0  0
    2.7365   -3.7706    6.0372 C   0  0  0  0  0  0  0  0  0  0  0  0
    1.3920   -5.1766    4.3437 C   0  0  1  0  0  0  0  0  0  0  0  0
    2.6550   -6.0458    4.0669 C   0  0  0  0  0  0  0  0  0  0  0  0
    2.3446   -7.5119    3.7160 C   0  0  0  0  0  0  0  0  0  0  0  0
    1.4514   -8.1938    4.7732 C   0  0  0  0  0  0  0  0  0  0  0  0
    1.1557   -9.6400    4.3302 C   0  0  0  0  0  0  0  0  0  0  0  0
    2.1398   -8.2312    6.1610 C   0  0  0  0  0  0  0  0  0  0  0  0
    0.1380   -7.3992    4.8349 C   0  0  0  0  0  0  0  0  0  0  0  0
    0.3460   -5.9270    5.1778 C   0  0  0  0  0  0  0  0  0  0  0  0
   -0.4255   -5.3313    6.0997 C   0  0  0  0  0  0  0  0  0  0  0  0
   -0.3914   -3.8906    6.3488 C   0  0  0  0  0  0  0  0  0  0  0  0
   -1.0538   -3.4172    7.2663 O   0  0  0  0  0  0  0  0  0  0  0  0
    0.3969   -3.0052    5.3457 C   0  0  1  0  0  0  0  0  0  0  0  0
    0.4866   -1.4401    5.6741 C   0  0  1  0  0  0  0  0  0  0  0  0
    0.7329   -1.1715    7.1964 C   0  0  0  0  0  0  0  0  0  0  0  0
   -0.8842   -0.8339    5.2735 C   0  0  0  0  0  0  0  0  0  0  0  0
   -0.9492    0.6884    5.4375 C   0  0  0  0  0  0  0  0  0  0  0  0
    0.0561    1.4523    4.5401 C   0  0  2  0  0  0  0  0  0  0  0  0
   -0.4636    1.3662    3.0757 C   0  0  0  0  0  0  0  0  0  0  0  0
    0.0904    2.9198    4.9801 C   0  0  0  0  0  0  0  0  0  0  0  0
   -0.2563    4.0221    4.3106 C   0  0  0  0  0  0  0  0  0  0  0  0
    0.2277    5.1612    5.0880 C   0  0  0  0  0  0  0  0  0  0  0  0
    0.0256    6.3497    4.8473 O   0  0  0  0  0  0  0  0  0  0  0  0
    0.9430    4.6970    6.1372 O   0  0  0  0  0  0  0  0  0  0  0  0
    0.7953    3.3117    6.2457 C   0  0  2  0  0  0  0  0  0  0  0  0
    0.0244    3.0112    7.3859 O   0  0  0  0  0  0  0  0  0  0  0  0
    5.1159    3.6230    5.2872 H   0  0  0  0  0  0  0  0  0  0  0  0
    4.6640    1.9929    5.7961 H   0  0  0  0  0  0  0  0  0  0  0  0
    4.6989    3.3240    6.9700 H   0  0  0  0  0  0  0  0  0  0  0  0
    2.5091    2.6572    7.3975 H   0  0  0  0  0  0  0  0  0  0  0  0
    2.1801    1.0640    2.5884 H   0  0  0  0  0  0  0  0  0  0  0  0
    3.4883    1.1020    3.7600 H   0  0  0  0  0  0  0  0  0  0  0  0
    2.4455    2.4957    3.5094 H   0  0  0  0  0  0  0  0  0  0  0  0
    2.5438   -0.8890    5.3377 H   0  0  0  0  0  0  0  0  0  0  0  0
    0.8705   -1.4958    2.9206 H   0  0  0  0  0  0  0  0  0  0  0  0
    2.5464   -1.0070    2.8454 H   0  0  0  0  0  0  0  0  0  0  0  0
    2.1287   -3.4377    2.7249 H   0  0  0  0  0  0  0  0  0  0  0  0
    3.3979   -2.9028    3.7660 H   0  0  0  0  0  0  0  0  0  0  0  0
    2.3900   -4.4031    6.8551 H   0  0  0  0  0  0  0  0  0  0  0  0
    2.9515   -2.7908    6.4527 H   0  0  0  0  0  0  0  0  0  0  0  0
    3.7084   -4.1505    5.7280 H   0  0  0  0  0  0  0  0  0  0  0  0
    0.8798   -5.0758    3.3874 H   0  0  0  0  0  0  0  0  0  0  0  0
    3.2389   -5.6045    3.2591 H   0  0  0  0  0  0  0  0  0  0  0  0
    3.3185   -6.0718    4.9286 H   0  0  0  0  0  0  0  0  0  0  0  0
    1.8470   -7.5455    2.7463 H   0  0  0  0  0  0  0  0  0  0  0  0
    3.2770   -8.0698    3.5969 H   0  0  0  0  0  0  0  0  0  0  0  0
    0.4989  -10.1510    5.0364 H   0  0  0  0  0  0  0  0  0  0  0  0
    2.0717  -10.2292    4.2522 H   0  0  0  0  0  0  0  0  0  0  0  0
    0.6673   -9.6638    3.3556 H   0  0  0  0  0  0  0  0  0  0  0  0
    1.5430   -8.7868    6.8875 H   0  0  0  0  0  0  0  0  0  0  0  0
    2.2877   -7.2317    6.5757 H   0  0  0  0  0  0  0  0  0  0  0  0
    3.1224   -8.7068    6.1050 H   0  0  0  0  0  0  0  0  0  0  0  0
   -0.3626   -7.4496    3.8675 H   0  0  0  0  0  0  0  0  0  0  0  0
   -0.5387   -7.8591    5.5537 H   0  0  0  0  0  0  0  0  0  0  0  0
   -1.1727   -5.8840    6.6448 H   0  0  0  0  0  0  0  0  0  0  0  0
   -0.2330   -3.0594    4.4587 H   0  0  0  0  0  0  0  0  0  0  0  0
   -0.1831   -1.2379    7.7814 H   0  0  0  0  0  0  0  0  0  0  0  0
    1.1042   -0.1743    7.4081 H   0  0  0  0  0  0  0  0  0  0  0  0
    1.4392   -1.8644    7.6459 H   0  0  0  0  0  0  0  0  0  0  0  0
   -1.1176   -1.0903    4.2405 H   0  0  0  0  0  0  0  0  0  0  0  0
   -1.6851   -1.2811    5.8641 H   0  0  0  0  0  0  0  0  0  0  0  0
   -1.9646    1.0279    5.2255 H   0  0  0  0  0  0  0  0  0  0  0  0
   -0.7873    0.9037    6.4894 H   0  0  0  0  0  0  0  0  0  0  0  0
   -0.4018    0.3579    2.6780 H   0  0  0  0  0  0  0  0  0  0  0  0
    0.0956    2.0074    2.3927 H   0  0  0  0  0  0  0  0  0  0  0  0
   -1.5076    1.6765    3.0034 H   0  0  0  0  0  0  0  0  0  0  0  0
   -0.7086    4.1130    3.3330 H   0  0  0  0  0  0  0  0  0  0  0  0
   -0.8501    3.3409    7.2461 H   0  0  0  0  0  0  0  0  0  0  0  0
  1  2  1  0
  1 37  1  0
  1 38  1  0
  1 39  1  0
  2  3  1  0
  3 35  1  0
  3  4  1  0
  3 40  1  1
  4  5  1  0
  5 28  1  0
  5  6  1  6
  5  7  1  0
  6 41  1  0
  6 42  1  0
  6 43  1  0
  7 24  1  0
  7  8  1  0
  7 44  1  1
  8  9  1  0
  8 45  1  0
  8 46  1  0
  9 10  1  0
  9 47  1  0
  9 48  1  0
 10 23  1  0
 10 11  1  1
 10 12  1  0
 11 49  1  0
 11 50  1  0
 11 51  1  0
 12 19  1  0
 12 13  1  0
 12 52  1  6
 13 14  1  0
 13 53  1  0
 13 54  1  0
 14 15  1  0
 14 55  1  0
 14 56  1  0
 15 16  1  0
 15 17  1  0
 15 18  1  0
 16 57  1  0
 16 58  1  0
 16 59  1  0
 17 60  1  0
 17 61  1  0
 17 62  1  0
 18 19  1  0
 18 63  1  0
 18 64  1  0
 19 20  2  0
 20 21  1  0
 20 65  1  0
 21 22  2  0
 21 23  1  0
 23 24  1  0
 23 66  1  6
 24 25  1  1
 24 26  1  0
 25 67  1  0
 25 68  1  0
 25 69  1  0
 26 27  1  0
 26 70  1  0
 26 71  1  0
 27 28  1  0
 27 72  1  0
 27 73  1  0
 28 29  1  6
 28 30  1  0
 29 74  1  0
 29 75  1  0
 29 76  1  0
 30 35  1  0
 30 31  2  0
 31 32  1  0
 31 77  1  0
 32 33  2  0
 32 34  1  0
 34 35  1  0
 35 36  1  1
 36 78  1  0
M  END
>  <i_m_ct_stereo_status>  (233) 
1

>  <s_m_source_file>  (233) 
/var/tmp/pbs.5076255.sched01/tmp0eyfkrct/966b1hsbd3.sdf

>  <i_m_source_file_index>  (233) 
4

>  <i_lp_mmshare_version>  (233) 
48012

>  <i_f3d_flags>  (233) 
0

>  <s_epik_input>  (233) 
W0NIM11PW0NASF0oTzEpW0NAQF0oW09IXSkoT0MoPU8pW0NIXTIpQz0yW0NAXTMoW0NIM10pW0NIMl1bQ0gyXVtDQF0oW0NIM10pKFtDQEBIXTRbQ0BdMTNbQ0gzXSlbQ0BIXTVbQ0BdKFtDSDNdKShbQ0gyXVtDSDJdNClbQ0BASF02Qyg9W0NIXUM1PU8pW0NIMl1DKFtDSDNdKShbQ0gzXSlbQ0gyXVtDSDJdNg==

>  <s_epik_cmdline>  (233) 
J2VwaWtfcHl0aG9uJywgJy1waHQnLCAnMi4wJywgJy1waCcsICc3LjAnLCAnLXRuJywgJzgnLCAnLW1hJywgJzIwMCcsICctaW1hZScsICc8aW5maWxlLm1hZT4nLCAnLW9tYWUnLCAnPG91dGZpbGUubWFlPic=

>  <r_epik_Ionization_Penalty>  (233) 
0.366597

>  <r_epik_Ionization_Penalty_Charging>  (233) 
0

>  <r_epik_Ionization_Penalty_Neutral>  (233) 
0.366597

>  <r_epik_State_Penalty>  (233) 
0.363767

>  <r_epik_Charging_Adjusted_Penalty>  (233) 
0.363767

>  <i_epik_Tot_Q>  (233) 
0

>  <i_epik_Tot_abs_Q>  (233) 
0

>  <s_epik_Chemistry_Notes>  (233) 
This compound has an ester and may undergo hydrolysis at high or low pH. This compound contains an acetal/aminal-like group ( X-CH(R)-Y where X, Y are N, S, or O) that may be acid/base labile, releasing an aldehyde.

>  <s_lp_Force_Field>  (233) 
OPLS3e

>  <r_lp_Energy>  (233) 
69.0815

>  <b_lp_Chiralities_Consistent>  (233) 
1

>  <s_lp_Variant>  (233) 
64:0-1

>  <s_i_glide_gridfile>  (233) 
pfpi4k_grid

>  <i_i_glide_lignum>  (233) 
4

>  <i_i_glide_rotatable_bonds>  (233) 
2

>  <r_i_docking_score>  (233) 
-1.58569

>  <r_i_glide_ligand_efficiency>  (233) 
-0.044047

>  <r_i_glide_ligand_efficiency_sa>  (233) 
-0.14544

>  <r_i_glide_ligand_efficiency_ln>  (233) 
-0.345955

>  <r_i_glide_gscore>  (233) 
-1.58569

>  <r_i_glide_lipo>  (233) 
-0.0433296

>  <r_i_glide_hbond>  (233) 
-0.0159349

>  <r_i_glide_metal>  (233) 
-0

>  <r_i_glide_rewards>  (233) 
-0.00919855

>  <r_i_glide_evdw>  (233) 
-20.4133

>  <r_i_glide_ecoul>  (233) 
-2.98981

>  <r_i_glide_erotb>  (233) 
0

>  <r_i_glide_esite>  (233) 
-0.048091

>  <r_i_glide_emodel>  (233) 
-26.0186

>  <r_i_glide_energy>  (233) 
-23.4031

>  <r_i_glide_einternal>  (233) 
0.0855447

>  <r_i_glide_intrahb_reward>  (233) 
-0

>  <i_i_glide_confnum>  (233) 
2

>  <i_i_glide_posenum>  (233) 
3

>  <r_i_glide_eff_state_penalty>  (233) 
0

>  <ligand_id>  (233) 
64

>  <original_smiles>  (233) 
COC1OC2(C)C3CCC4(C)C5CCC(C)(C)CC5=CC(=O)C4C3(C)CCC2(C)C2=CC(=O)OC21O

>  <smiles>  (233) 
[H]OC12OC(=O)C([H])=C1C1(C([H])([H])[H])C([H])([H])C([H])([H])C3(C([H])([H])[H])C4([H])C(=O)C([H])=C5C([H])([H])C(C([H])([H])[H])(C([H])([H])[H])C([H])([H])C([H])([H])C5([H])C4(C([H])([H])[H])C([H])([H])C([H])([H])C3([H])C1(C([H])([H])[H])OC2([H])OC([H])([H])[H]

$$$$
66:0:0
     RDKit          3D

 15 16  0  0  1  0  0  0  0  0999 V2000
    5.3691   -4.3278    1.0479 O   0  0  0  0  0  0  0  0  0  0  0  0
    4.7712   -3.8374    0.0642 C   0  0  0  0  0  0  0  0  0  0  0  0
    5.3109   -2.9122   -0.8262 C   0  0  0  0  0  0  0  0  0  0  0  0
    6.9131   -2.2627   -0.7648 Cl  0  0  0  0  0  0  0  0  0  0  0  0
    4.4145   -2.5671   -1.7639 C   0  0  0  0  0  0  0  0  0  0  0  0
    4.6461   -1.4572   -3.0613 Cl  0  0  0  0  0  0  0  0  0  0  0  0
    3.1920   -3.2825   -1.5335 C   0  0  0  0  0  0  0  0  0  0  0  0
    2.1687   -3.2076   -2.2106 O   0  0  0  0  0  0  0  0  0  0  0  0
    3.4731   -4.0924   -0.3548 C   0  0  0  0  0  0  0  0  0  0  0  0
    2.5107   -4.9978    0.3058 C   0  0  0  0  0  0  0  0  0  0  0  0
    2.4938   -5.5545    1.6197 C   0  0  0  0  0  0  0  0  0  0  0  0
    1.3941   -6.3005    1.7491 N   0  0  0  0  0  0  0  0  0  0  0  0
    0.7988   -6.2175    0.5704 N   0  0  0  0  0  0  0  0  0  0  0  0
    1.4199   -5.4556   -0.3194 N   0  0  0  0  0  0  0  0  0  0  0  0
    3.2175   -5.4005    2.4110 H   0  0  0  0  0  0  0  0  0  0  0  0
  1  2  1  0
  2  9  2  0
  2  3  1  0
  3  4  1  0
  3  5  2  0
  5  6  1  0
  5  7  1  0
  7  8  2  0
  7  9  1  0
  9 10  1  0
 10 14  2  0
 10 11  1  0
 11 15  1  0
 11 12  2  0
 12 13  1  0
 13 14  1  0
M  CHG  2   1  -1  13  -1
M  END
>  <i_m_ct_stereo_status>  (234) 
1

>  <s_m_source_file>  (234) 
/var/tmp/pbs.5076255.sched01/tmp0eyfkrct/966b1hsbd3.sdf

>  <i_m_source_file_index>  (234) 
7

>  <i_lp_mmshare_version>  (234) 
48012

>  <i_f3d_flags>  (234) 
0

>  <s_epik_input>  (234) 
Tz1DMUMoQ2wpPUMoQ2wpQyg9TylbQ0hdMWMyW2NIXVtuSF1ubjI=

>  <s_epik_cmdline>  (234) 
J2VwaWtfcHl0aG9uJywgJy1waHQnLCAnMi4wJywgJy1waCcsICc3LjAnLCAnLXRuJywgJzgnLCAnLW1hJywgJzIwMCcsICctaW1hZScsICc8aW5maWxlLm1hZT4nLCAnLW9tYWUnLCAnPG91dGZpbGUubWFlPic=

>  <r_epik_Ionization_Penalty>  (234) 
0.00693837

>  <r_epik_Ionization_Penalty_Charging>  (234) 
0.00692898

>  <r_epik_Ionization_Penalty_Neutral>  (234) 
9.38587e-06

>  <r_epik_State_Penalty>  (234) 
0.000500809

>  <r_epik_Charging_Adjusted_Penalty>  (234) 
0.00742979

>  <i_epik_Tot_Q>  (234) 
-2

>  <i_epik_Tot_abs_Q>  (234) 
2

>  <s_lp_Force_Field>  (234) 
OPLS3e

>  <r_lp_Energy>  (234) 
13.3932

>  <b_lp_Chiralities_Consistent>  (234) 
1

>  <s_lp_Variant>  (234) 
66:0-1

>  <s_i_glide_gridfile>  (234) 
pfpi4k_grid

>  <i_i_glide_lignum>  (234) 
7

>  <i_i_glide_rotatable_bonds>  (234) 
1

>  <r_i_docking_score>  (234) 
-3.01208

>  <r_i_glide_ligand_efficiency>  (234) 
-0.215149

>  <r_i_glide_ligand_efficiency_sa>  (234) 
-0.518539

>  <r_i_glide_ligand_efficiency_ln>  (234) 
-0.82771

>  <r_i_glide_gscore>  (234) 
-3.01208

>  <r_i_glide_lipo>  (234) 
-0.0492271

>  <r_i_glide_hbond>  (234) 
0

>  <r_i_glide_metal>  (234) 
-0

>  <r_i_glide_rewards>  (234) 
-1.96125

>  <r_i_glide_evdw>  (234) 
-14.0687

>  <r_i_glide_ecoul>  (234) 
-2.42508

>  <r_i_glide_erotb>  (234) 
0.322776

>  <r_i_glide_esite>  (234) 
-0.257188

>  <r_i_glide_emodel>  (234) 
-23.0231

>  <r_i_glide_energy>  (234) 
-16.4938

>  <r_i_glide_einternal>  (234) 
0.494421

>  <r_i_glide_intrahb_reward>  (234) 
-0

>  <i_i_glide_confnum>  (234) 
4

>  <i_i_glide_posenum>  (234) 
3

>  <r_i_glide_eff_state_penalty>  (234) 
0

>  <ligand_id>  (234) 
66

>  <original_smiles>  (234) 
O=C1C(Cl)=C(Cl)C(=O)C1c1c[nH]nn1

>  <smiles>  (234) 
[H]c1n[n-]nc1C1=C([O-])C(Cl)=C(Cl)C1=O

$$$$
66:0:1
     RDKit          3D

 15 16  0  0  1  0  0  0  0  0999 V2000
    1.6450   -1.3290    3.2864 O   0  0  0  0  0  0  0  0  0  0  0  0
    0.8436   -0.4235    3.6007 C   0  0  0  0  0  0  0  0  0  0  0  0
    0.8570    0.8800    3.1136 C   0  0  0  0  0  0  0  0  0  0  0  0
    1.9667    1.5113    1.9518 Cl  0  0  0  0  0  0  0  0  0  0  0  0
   -0.1193    1.6178    3.6661 C   0  0  0  0  0  0  0  0  0  0  0  0
   -0.4531    3.2796    3.3501 Cl  0  0  0  0  0  0  0  0  0  0  0  0
   -0.8554    0.7966    4.5929 C   0  0  0  0  0  0  0  0  0  0  0  0
   -1.7860    1.1473    5.3201 O   0  0  0  0  0  0  0  0  0  0  0  0
   -0.2178   -0.5031    4.4877 C   0  0  0  0  0  0  0  0  0  0  0  0
   -0.5615   -1.6848    5.2957 C   0  0  0  0  0  0  0  0  0  0  0  0
    0.2119   -2.8214    5.6921 C   0  0  0  0  0  0  0  0  0  0  0  0
   -0.5624   -3.6162    6.4381 N   0  0  0  0  0  0  0  0  0  0  0  0
   -1.7199   -2.9825    6.4752 N   0  0  0  0  0  0  0  0  0  0  0  0
   -1.7866   -1.8599    5.7862 N   0  0  0  0  0  0  0  0  0  0  0  0
    1.2470   -3.0326    5.4679 H   0  0  0  0  0  0  0  0  0  0  0  0
  1  2  1  0
  2  9  2  0
  2  3  1  0
  3  4  1  0
  3  5  2  0
  5  6  1  0
  5  7  1  0
  7  8  2  0
  7  9  1  0
  9 10  1  0
 10 14  2  0
 10 11  1  0
 11 15  1  0
 11 12  2  0
 12 13  1  0
 13 14  1  0
M  CHG  2   1  -1  13  -1
M  END
>  <i_m_ct_stereo_status>  (235) 
1

>  <s_m_source_file>  (235) 
/var/tmp/pbs.5076255.sched01/tmp0eyfkrct/966b1hsbd3.sdf

>  <i_m_source_file_index>  (235) 
7

>  <i_lp_mmshare_version>  (235) 
48012

>  <i_f3d_flags>  (235) 
0

>  <s_epik_input>  (235) 
Tz1DMUMoQ2wpPUMoQ2wpQyg9TylbQ0hdMWMyW2NIXVtuSF1ubjI=

>  <s_epik_cmdline>  (235) 
J2VwaWtfcHl0aG9uJywgJy1waHQnLCAnMi4wJywgJy1waCcsICc3LjAnLCAnLXRuJywgJzgnLCAnLW1hJywgJzIwMCcsICctaW1hZScsICc8aW5maWxlLm1hZT4nLCAnLW9tYWUnLCAnPG91dGZpbGUubWFlPic=

>  <r_epik_Ionization_Penalty>  (235) 
0.00693837

>  <r_epik_Ionization_Penalty_Charging>  (235) 
0.00692898

>  <r_epik_Ionization_Penalty_Neutral>  (235) 
9.38587e-06

>  <r_epik_State_Penalty>  (235) 
0.000500809

>  <r_epik_Charging_Adjusted_Penalty>  (235) 
0.00742979

>  <i_epik_Tot_Q>  (235) 
-2

>  <i_epik_Tot_abs_Q>  (235) 
2

>  <s_lp_Force_Field>  (235) 
OPLS3e

>  <r_lp_Energy>  (235) 
13.3932

>  <b_lp_Chiralities_Consistent>  (235) 
1

>  <s_lp_Variant>  (235) 
66:0-1

>  <s_i_glide_gridfile>  (235) 
pfpi4k_grid

>  <i_i_glide_lignum>  (235) 
7

>  <i_i_glide_rotatable_bonds>  (235) 
1

>  <r_i_docking_score>  (235) 
-2.91949

>  <r_i_glide_ligand_efficiency>  (235) 
-0.208535

>  <r_i_glide_ligand_efficiency_sa>  (235) 
-0.502599

>  <r_i_glide_ligand_efficiency_ln>  (235) 
-0.802265

>  <r_i_glide_gscore>  (235) 
-2.91949

>  <r_i_glide_lipo>  (235) 
0

>  <r_i_glide_hbond>  (235) 
0

>  <r_i_glide_metal>  (235) 
-0

>  <r_i_glide_rewards>  (235) 
-1.84086

>  <r_i_glide_evdw>  (235) 
-12.9892

>  <r_i_glide_ecoul>  (235) 
-3.99241

>  <r_i_glide_erotb>  (235) 
0.322776

>  <r_i_glide_esite>  (235) 
-0.153084

>  <r_i_glide_emodel>  (235) 
-23.1723

>  <r_i_glide_energy>  (235) 
-16.9816

>  <r_i_glide_einternal>  (235) 
0.730246

>  <r_i_glide_intrahb_reward>  (235) 
-0

>  <i_i_glide_confnum>  (235) 
4

>  <i_i_glide_posenum>  (235) 
13

>  <r_i_glide_eff_state_penalty>  (235) 
0

>  <ligand_id>  (235) 
66

>  <original_smiles>  (235) 
O=C1C(Cl)=C(Cl)C(=O)C1c1c[nH]nn1

>  <smiles>  (235) 
[H]c1n[n-]nc1C1=C([O-])C(Cl)=C(Cl)C1=O

$$$$
66:0:2
     RDKit          3D

 15 16  0  0  1  0  0  0  0  0999 V2000
    1.9530   -3.1488    3.5774 O   0  0  0  0  0  0  0  0  0  0  0  0
    1.3834   -4.2401    3.8013 C   0  0  0  0  0  0  0  0  0  0  0  0
    1.4074   -5.3418    2.9485 C   0  0  0  0  0  0  0  0  0  0  0  0
    2.2196   -5.4355    1.4260 Cl  0  0  0  0  0  0  0  0  0  0  0  0
    0.6976   -6.3608    3.4511 C   0  0  0  0  0  0  0  0  0  0  0  0
    0.4490   -7.8986    2.7022 Cl  0  0  0  0  0  0  0  0  0  0  0  0
    0.1374   -5.9601    4.7168 C   0  0  0  0  0  0  0  0  0  0  0  0
   -0.5815   -6.6363    5.4426 O   0  0  0  0  0  0  0  0  0  0  0  0
    0.6005   -4.5920    4.8934 C   0  0  0  0  0  0  0  0  0  0  0  0
    0.2887   -3.7213    6.0485 C   0  0  0  0  0  0  0  0  0  0  0  0
    0.7475   -2.4051    6.3708 C   0  0  0  0  0  0  0  0  0  0  0  0
    0.1877   -2.0302    7.5165 N   0  0  0  0  0  0  0  0  0  0  0  0
   -0.5795   -3.0549    7.8454 N   0  0  0  0  0  0  0  0  0  0  0  0
   -0.5619   -4.0803    7.0135 N   0  0  0  0  0  0  0  0  0  0  0  0
    1.4300   -1.7805    5.8108 H   0  0  0  0  0  0  0  0  0  0  0  0
  1  2  1  0
  2  9  2  0
  2  3  1  0
  3  4  1  0
  3  5  2  0
  5  6  1  0
  5  7  1  0
  7  8  2  0
  7  9  1  0
  9 10  1  0
 10 14  2  0
 10 11  1  0
 11 15  1  0
 11 12  2  0
 12 13  1  0
 13 14  1  0
M  CHG  2   1  -1  13  -1
M  END
>  <i_m_ct_stereo_status>  (236) 
1

>  <s_m_source_file>  (236) 
/var/tmp/pbs.5076255.sched01/tmp0eyfkrct/966b1hsbd3.sdf

>  <i_m_source_file_index>  (236) 
7

>  <i_lp_mmshare_version>  (236) 
48012

>  <i_f3d_flags>  (236) 
0

>  <s_epik_input>  (236) 
Tz1DMUMoQ2wpPUMoQ2wpQyg9TylbQ0hdMWMyW2NIXVtuSF1ubjI=

>  <s_epik_cmdline>  (236) 
J2VwaWtfcHl0aG9uJywgJy1waHQnLCAnMi4wJywgJy1waCcsICc3LjAnLCAnLXRuJywgJzgnLCAnLW1hJywgJzIwMCcsICctaW1hZScsICc8aW5maWxlLm1hZT4nLCAnLW9tYWUnLCAnPG91dGZpbGUubWFlPic=

>  <r_epik_Ionization_Penalty>  (236) 
0.00693837

>  <r_epik_Ionization_Penalty_Charging>  (236) 
0.00692898

>  <r_epik_Ionization_Penalty_Neutral>  (236) 
9.38587e-06

>  <r_epik_State_Penalty>  (236) 
0.000500809

>  <r_epik_Charging_Adjusted_Penalty>  (236) 
0.00742979

>  <i_epik_Tot_Q>  (236) 
-2

>  <i_epik_Tot_abs_Q>  (236) 
2

>  <s_lp_Force_Field>  (236) 
OPLS3e

>  <r_lp_Energy>  (236) 
13.3932

>  <b_lp_Chiralities_Consistent>  (236) 
1

>  <s_lp_Variant>  (236) 
66:0-1

>  <s_i_glide_gridfile>  (236) 
pfpi4k_grid

>  <i_i_glide_lignum>  (236) 
7

>  <i_i_glide_rotatable_bonds>  (236) 
1

>  <r_i_docking_score>  (236) 
-2.90232

>  <r_i_glide_ligand_efficiency>  (236) 
-0.207308

>  <r_i_glide_ligand_efficiency_sa>  (236) 
-0.499643

>  <r_i_glide_ligand_efficiency_ln>  (236) 
-0.797546

>  <r_i_glide_gscore>  (236) 
-2.90232

>  <r_i_glide_lipo>  (236) 
0

>  <r_i_glide_hbond>  (236) 
0

>  <r_i_glide_metal>  (236) 
-0

>  <r_i_glide_rewards>  (236) 
-1.84086

>  <r_i_glide_evdw>  (236) 
-9.97485

>  <r_i_glide_ecoul>  (236) 
-4.81642

>  <r_i_glide_erotb>  (236) 
0.322776

>  <r_i_glide_esite>  (236) 
-0.163027

>  <r_i_glide_emodel>  (236) 
-21.2238

>  <r_i_glide_energy>  (236) 
-14.7913

>  <r_i_glide_einternal>  (236) 
0.198625

>  <r_i_glide_intrahb_reward>  (236) 
-0

>  <i_i_glide_confnum>  (236) 
4

>  <i_i_glide_posenum>  (236) 
34

>  <r_i_glide_eff_state_penalty>  (236) 
0

>  <ligand_id>  (236) 
66

>  <original_smiles>  (236) 
O=C1C(Cl)=C(Cl)C(=O)C1c1c[nH]nn1

>  <smiles>  (236) 
[H]c1n[n-]nc1C1=C([O-])C(Cl)=C(Cl)C1=O

$$$$
67:0:0
     RDKit          3D

 24 26  0  0  1  0  0  0  0  0999 V2000
    3.0356   -0.7548   -3.6169 C   0  0  0  0  0  0  0  0  0  0  0  0
    4.1980   -1.4128   -3.9195 C   0  0  0  0  0  0  0  0  0  0  0  0
    4.5083   -2.1495   -2.8085 N   0  0  0  0  0  0  0  0  0  0  0  0
    3.6281   -1.9728   -1.8671 C   0  0  0  0  0  0  0  0  0  0  0  0
    2.7158   -1.1198   -2.3175 N   0  0  0  0  0  0  0  0  0  0  0  0
    3.8306   -2.7196   -0.6125 C   0  0  0  0  0  0  0  0  0  0  0  0
    5.1356   -3.4788   -0.9573 C   0  0  1  0  0  0  0  0  0  0  0  0
    4.9651   -4.9221   -0.8795 N   0  0  0  0  0  0  0  0  0  0  0  0
    5.0872   -5.5521    0.3588 C   0  0  0  0  0  0  0  0  0  0  0  0
    4.6676   -6.8005    0.4962 N   0  0  0  0  0  0  0  0  0  0  0  0
    4.9581   -7.2464    1.7322 C   0  0  0  0  0  0  0  0  0  0  0  0
    5.5650   -6.4073    2.5961 N   0  0  0  0  0  0  0  0  0  0  0  0
    5.8165   -4.9282    1.8243 S   0  0  0  0  0  0  0  0  0  0  0  0
    5.5433   -3.0671   -2.4013 C   0  0  0  0  0  0  0  0  0  0  0  0
    2.4321   -0.0630   -4.2106 H   0  0  0  0  0  0  0  0  0  0  0  0
    4.8063   -1.4083   -4.7956 H   0  0  0  0  0  0  0  0  0  0  0  0
    3.9333   -1.9811    0.1862 H   0  0  0  0  0  0  0  0  0  0  0  0
    2.9473   -3.3428   -0.4555 H   0  0  0  0  0  0  0  0  0  0  0  0
    5.9261   -3.1438   -0.2873 H   0  0  0  0  0  0  0  0  0  0  0  0
    4.7086   -8.2628    2.0429 H   0  0  0  0  0  0  0  0  0  0  0  0
    5.5553   -3.9006   -3.1023 H   0  0  0  0  0  0  0  0  0  0  0  0
    6.5047   -2.5559   -2.4300 H   0  0  0  0  0  0  0  0  0  0  0  0
    4.4822   -5.4281   -1.6328 H   0  0  0  0  0  0  0  0  0  0  0  0
    1.9138   -0.8519   -1.7392 H   0  0  0  0  0  0  0  0  0  0  0  0
  1  5  1  0
  1  2  2  0
  1 15  1  0
  2  3  1  0
  2 16  1  0
  3 14  1  0
  3  4  1  0
  4  5  2  0
  4  6  1  0
  5 24  1  0
  6  7  1  0
  6 17  1  0
  6 18  1  0
  7  8  1  0
  7 14  1  0
  7 19  1  1
  8  9  1  0
  8 23  1  0
  9 13  1  0
  9 10  2  0
 10 11  1  0
 11 12  2  0
 11 20  1  0
 12 13  1  0
 14 21  1  0
 14 22  1  0
M  CHG  1   5   1
M  END
>  <i_m_ct_stereo_status>  (237) 
1

>  <s_m_source_file>  (237) 
/var/tmp/pbs.5076255.sched01/tmp0eyfkrct/966b1hsbd3.sdf

>  <i_m_source_file_index>  (237) 
8

>  <i_lp_mmshare_version>  (237) 
48012

>  <i_f3d_flags>  (237) 
0

>  <s_epik_input>  (237) 
W2NIXTFbY0hdbmMobjEyKVtDSDJdW0NASF0oW0NIMl0yKS9OPWMzXFtuSF1bY0hdbnMz

>  <s_epik_cmdline>  (237) 
J2VwaWtfcHl0aG9uJywgJy1waHQnLCAnMi4wJywgJy1waCcsICc3LjAnLCAnLXRuJywgJzgnLCAnLW1hJywgJzIwMCcsICctaW1hZScsICc8aW5maWxlLm1hZT4nLCAnLW9tYWUnLCAnPG91dGZpbGUubWFlPic=

>  <r_lp_tautomer_probability>  (237) 
1

>  <r_epik_Ionization_Penalty>  (237) 
0.0435943

>  <r_epik_Ionization_Penalty_Charging>  (237) 
0

>  <r_epik_Ionization_Penalty_Neutral>  (237) 
0.0435943

>  <r_epik_State_Penalty>  (237) 
0.0368864

>  <r_epik_Charging_Adjusted_Penalty>  (237) 
0.0368864

>  <i_epik_Tot_Q>  (237) 
1

>  <i_epik_Tot_abs_Q>  (237) 
1

>  <s_lp_Force_Field>  (237) 
OPLS3e

>  <r_lp_Energy>  (237) 
23.1924

>  <b_lp_Chiralities_Consistent>  (237) 
1

>  <s_lp_Variant>  (237) 
67:0-1

>  <s_i_glide_gridfile>  (237) 
pfpi4k_grid

>  <i_i_glide_lignum>  (237) 
8

>  <i_i_glide_rotatable_bonds>  (237) 
2

>  <r_i_docking_score>  (237) 
-4.6436

>  <r_i_glide_ligand_efficiency>  (237) 
-0.331685

>  <r_i_glide_ligand_efficiency_sa>  (237) 
-0.799409

>  <r_i_glide_ligand_efficiency_ln>  (237) 
-1.27604

>  <r_i_glide_gscore>  (237) 
-4.6436

>  <r_i_glide_lipo>  (237) 
-0.690321

>  <r_i_glide_hbond>  (237) 
-0.497691

>  <r_i_glide_metal>  (237) 
-0

>  <r_i_glide_rewards>  (237) 
-2.18981

>  <r_i_glide_evdw>  (237) 
-16.6669

>  <r_i_glide_ecoul>  (237) 
-7.06707

>  <r_i_glide_erotb>  (237) 
0.763233

>  <r_i_glide_esite>  (237) 
-0.135601

>  <r_i_glide_emodel>  (237) 
-32.1242

>  <r_i_glide_energy>  (237) 
-23.7339

>  <r_i_glide_einternal>  (237) 
1.23023

>  <r_i_glide_intrahb_reward>  (237) 
-0

>  <i_i_glide_confnum>  (237) 
4

>  <i_i_glide_posenum>  (237) 
32

>  <r_i_glide_eff_state_penalty>  (237) 
0

>  <ligand_id>  (237) 
67

>  <original_smiles>  (237) 
c1cn2c(n1)CC(N=c1[nH]cns1)C2

>  <smiles>  (237) 
[H]c1nsc(N([H])C2([H])C([H])([H])c3n(c([H])c([H])[n+]3[H])C2([H])[H])n1

$$$$
67:0:1
     RDKit          3D

 24 26  0  0  1  0  0  0  0  0999 V2000
    2.5095   -2.6564   -3.5338 C   0  0  0  0  0  0  0  0  0  0  0  0
    3.7387   -3.2313   -3.8207 C   0  0  0  0  0  0  0  0  0  0  0  0
    4.5508   -2.8169   -2.8011 N   0  0  0  0  0  0  0  0  0  0  0  0
    3.9123   -2.0563   -1.9296 C   0  0  0  0  0  0  0  0  0  0  0  0
    2.6573   -1.9847   -2.3454 N   0  0  0  0  0  0  0  0  0  0  0  0
    4.7027   -1.6853   -0.7148 C   0  0  0  0  0  0  0  0  0  0  0  0
    6.0476   -2.4200   -0.9711 C   0  0  1  0  0  0  0  0  0  0  0  0
    6.4529   -3.3440    0.1122 N   0  0  0  0  0  0  0  0  0  0  0  0
    5.6833   -4.4773    0.4646 C   0  0  0  0  0  0  0  0  0  0  0  0
    6.1559   -5.3759    1.3201 N   0  0  0  0  0  0  0  0  0  0  0  0
    5.2493   -6.3690    1.4857 C   0  0  0  0  0  0  0  0  0  0  0  0
    4.0788   -6.3250    0.8122 N   0  0  0  0  0  0  0  0  0  0  0  0
    4.0663   -4.8883   -0.0968 S   0  0  0  0  0  0  0  0  0  0  0  0
    5.9039   -3.1306   -2.3667 C   0  0  0  0  0  0  0  0  0  0  0  0
    1.5506   -2.7208   -4.0367 H   0  0  0  0  0  0  0  0  0  0  0  0
    4.0472   -3.9153   -4.5873 H   0  0  0  0  0  0  0  0  0  0  0  0
    4.7779   -0.5961   -0.6873 H   0  0  0  0  0  0  0  0  0  0  0  0
    4.1352   -2.0031    0.1672 H   0  0  0  0  0  0  0  0  0  0  0  0
    6.8096   -1.6645   -1.0839 H   0  0  0  0  0  0  0  0  0  0  0  0
    5.4516   -7.1953    2.1631 H   0  0  0  0  0  0  0  0  0  0  0  0
    5.9942   -4.2169   -2.3499 H   0  0  0  0  0  0  0  0  0  0  0  0
    6.6024   -2.7414   -3.1182 H   0  0  0  0  0  0  0  0  0  0  0  0
    7.3524   -3.2424    0.5754 H   0  0  0  0  0  0  0  0  0  0  0  0
    1.9070   -1.5337   -1.8012 H   0  0  0  0  0  0  0  0  0  0  0  0
  1  5  1  0
  1  2  2  0
  1 15  1  0
  2  3  1  0
  2 16  1  0
  3 14  1  0
  3  4  1  0
  4  5  2  0
  4  6  1  0
  5 24  1  0
  6  7  1  0
  6 17  1  0
  6 18  1  0
  7  8  1  0
  7 14  1  0
  7 19  1  6
  8  9  1  0
  8 23  1  0
  9 13  1  0
  9 10  2  0
 10 11  1  0
 11 12  2  0
 11 20  1  0
 12 13  1  0
 14 21  1  0
 14 22  1  0
M  CHG  1   5   1
M  END
>  <i_m_ct_stereo_status>  (238) 
1

>  <s_m_source_file>  (238) 
/var/tmp/pbs.5076255.sched01/tmp0eyfkrct/966b1hsbd3.sdf

>  <i_m_source_file_index>  (238) 
8

>  <i_lp_mmshare_version>  (238) 
48012

>  <i_f3d_flags>  (238) 
0

>  <s_epik_input>  (238) 
W2NIXTFbY0hdbmMobjEyKVtDSDJdW0NASF0oW0NIMl0yKS9OPWMzXFtuSF1bY0hdbnMz

>  <s_epik_cmdline>  (238) 
J2VwaWtfcHl0aG9uJywgJy1waHQnLCAnMi4wJywgJy1waCcsICc3LjAnLCAnLXRuJywgJzgnLCAnLW1hJywgJzIwMCcsICctaW1hZScsICc8aW5maWxlLm1hZT4nLCAnLW9tYWUnLCAnPG91dGZpbGUubWFlPic=

>  <r_lp_tautomer_probability>  (238) 
1

>  <r_epik_Ionization_Penalty>  (238) 
0.0435943

>  <r_epik_Ionization_Penalty_Charging>  (238) 
0

>  <r_epik_Ionization_Penalty_Neutral>  (238) 
0.0435943

>  <r_epik_State_Penalty>  (238) 
0.0368864

>  <r_epik_Charging_Adjusted_Penalty>  (238) 
0.0368864

>  <i_epik_Tot_Q>  (238) 
1

>  <i_epik_Tot_abs_Q>  (238) 
1

>  <s_lp_Force_Field>  (238) 
OPLS3e

>  <r_lp_Energy>  (238) 
23.1924

>  <b_lp_Chiralities_Consistent>  (238) 
1

>  <s_lp_Variant>  (238) 
67:0-1

>  <s_i_glide_gridfile>  (238) 
pfpi4k_grid

>  <i_i_glide_lignum>  (238) 
8

>  <i_i_glide_rotatable_bonds>  (238) 
2

>  <r_i_docking_score>  (238) 
-4.10949

>  <r_i_glide_ligand_efficiency>  (238) 
-0.293535

>  <r_i_glide_ligand_efficiency_sa>  (238) 
-0.707461

>  <r_i_glide_ligand_efficiency_ln>  (238) 
-1.12927

>  <r_i_glide_gscore>  (238) 
-4.10949

>  <r_i_glide_lipo>  (238) 
-0.657704

>  <r_i_glide_hbond>  (238) 
-0.2

>  <r_i_glide_metal>  (238) 
-0

>  <r_i_glide_rewards>  (238) 
-2.22756

>  <r_i_glide_evdw>  (238) 
-20.5996

>  <r_i_glide_ecoul>  (238) 
-4.39066

>  <r_i_glide_erotb>  (238) 
0.763233

>  <r_i_glide_esite>  (238) 
-0.0988774

>  <r_i_glide_emodel>  (238) 
-32.034

>  <r_i_glide_energy>  (238) 
-24.9902

>  <r_i_glide_einternal>  (238) 
1.54859

>  <r_i_glide_intrahb_reward>  (238) 
-0

>  <i_i_glide_confnum>  (238) 
5

>  <i_i_glide_posenum>  (238) 
2

>  <r_i_glide_eff_state_penalty>  (238) 
0

>  <ligand_id>  (238) 
67

>  <original_smiles>  (238) 
c1cn2c(n1)CC(N=c1[nH]cns1)C2

>  <smiles>  (238) 
[H]c1nsc(N([H])C2([H])C([H])([H])c3n(c([H])c([H])[n+]3[H])C2([H])[H])n1

$$$$
67:0:2
     RDKit          3D

 24 26  0  0  1  0  0  0  0  0999 V2000
    2.5950   -2.7136   -3.5628 C   0  0  0  0  0  0  0  0  0  0  0  0
    3.7759   -3.4375   -3.5909 C   0  0  0  0  0  0  0  0  0  0  0  0
    4.5163   -2.9391   -2.5575 N   0  0  0  0  0  0  0  0  0  0  0  0
    3.8694   -1.9764   -1.9170 C   0  0  0  0  0  0  0  0  0  0  0  0
    2.6822   -1.8515   -2.4979 N   0  0  0  0  0  0  0  0  0  0  0  0
    4.5371   -1.4557   -0.7030 C   0  0  0  0  0  0  0  0  0  0  0  0
    5.8289   -2.3201   -0.6694 C   0  0  1  0  0  0  0  0  0  0  0  0
    5.9991   -3.0604    0.5824 N   0  0  0  0  0  0  0  0  0  0  0  0
    5.0698   -4.0322    1.0099 C   0  0  0  0  0  0  0  0  0  0  0  0
    5.3041   -4.7511    2.1030 N   0  0  0  0  0  0  0  0  0  0  0  0
    4.2854   -5.6147    2.3061 C   0  0  0  0  0  0  0  0  0  0  0  0
    3.2427   -5.6238    1.4514 N   0  0  0  0  0  0  0  0  0  0  0  0
    3.5394   -4.4743    0.2612 S   0  0  0  0  0  0  0  0  0  0  0  0
    5.7796   -3.2585   -1.9233 C   0  0  0  0  0  0  0  0  0  0  0  0
    1.7000   -2.7793   -4.1679 H   0  0  0  0  0  0  0  0  0  0  0  0
    4.0962   -4.2655   -4.2109 H   0  0  0  0  0  0  0  0  0  0  0  0
    4.7147   -0.3924   -0.8472 H   0  0  0  0  0  0  0  0  0  0  0  0
    3.8698   -1.5834    0.1530 H   0  0  0  0  0  0  0  0  0  0  0  0
    6.6825   -1.6539   -0.8018 H   0  0  0  0  0  0  0  0  0  0  0  0
    4.3054   -6.2902    3.1555 H   0  0  0  0  0  0  0  0  0  0  0  0
    5.7652   -4.3255   -1.6778 H   0  0  0  0  0  0  0  0  0  0  0  0
    6.5817   -3.0756   -2.6434 H   0  0  0  0  0  0  0  0  0  0  0  0
    6.8433   -2.9295    1.1363 H   0  0  0  0  0  0  0  0  0  0  0  0
    1.9182   -1.2975   -2.0923 H   0  0  0  0  0  0  0  0  0  0  0  0
  1  5  1  0
  1  2  2  0
  1 15  1  0
  2  3  1  0
  2 16  1  0
  3 14  1  0
  3  4  1  0
  4  5  2  0
  4  6  1  0
  5 24  1  0
  6  7  1  0
  6 17  1  0
  6 18  1  0
  7  8  1  0
  7 14  1  0
  7 19  1  6
  8  9  1  0
  8 23  1  0
  9 13  1  0
  9 10  2  0
 10 11  1  0
 11 12  2  0
 11 20  1  0
 12 13  1  0
 14 21  1  0
 14 22  1  0
M  CHG  1   5   1
M  END
>  <i_m_ct_stereo_status>  (239) 
1

>  <s_m_source_file>  (239) 
/var/tmp/pbs.5076255.sched01/tmp0eyfkrct/966b1hsbd3.sdf

>  <i_m_source_file_index>  (239) 
8

>  <i_lp_mmshare_version>  (239) 
48012

>  <i_f3d_flags>  (239) 
0

>  <s_epik_input>  (239) 
W2NIXTFbY0hdbmMobjEyKVtDSDJdW0NASF0oW0NIMl0yKS9OPWMzXFtuSF1bY0hdbnMz

>  <s_epik_cmdline>  (239) 
J2VwaWtfcHl0aG9uJywgJy1waHQnLCAnMi4wJywgJy1waCcsICc3LjAnLCAnLXRuJywgJzgnLCAnLW1hJywgJzIwMCcsICctaW1hZScsICc8aW5maWxlLm1hZT4nLCAnLW9tYWUnLCAnPG91dGZpbGUubWFlPic=

>  <r_lp_tautomer_probability>  (239) 
1

>  <r_epik_Ionization_Penalty>  (239) 
0.0435943

>  <r_epik_Ionization_Penalty_Charging>  (239) 
0

>  <r_epik_Ionization_Penalty_Neutral>  (239) 
0.0435943

>  <r_epik_State_Penalty>  (239) 
0.0368864

>  <r_epik_Charging_Adjusted_Penalty>  (239) 
0.0368864

>  <i_epik_Tot_Q>  (239) 
1

>  <i_epik_Tot_abs_Q>  (239) 
1

>  <s_lp_Force_Field>  (239) 
OPLS3e

>  <r_lp_Energy>  (239) 
23.1924

>  <b_lp_Chiralities_Consistent>  (239) 
1

>  <s_lp_Variant>  (239) 
67:0-1

>  <s_i_glide_gridfile>  (239) 
pfpi4k_grid

>  <i_i_glide_lignum>  (239) 
8

>  <i_i_glide_rotatable_bonds>  (239) 
2

>  <r_i_docking_score>  (239) 
-3.92294

>  <r_i_glide_ligand_efficiency>  (239) 
-0.28021

>  <r_i_glide_ligand_efficiency_sa>  (239) 
-0.675346

>  <r_i_glide_ligand_efficiency_ln>  (239) 
-1.07801

>  <r_i_glide_gscore>  (239) 
-3.92294

>  <r_i_glide_lipo>  (239) 
-0.631881

>  <r_i_glide_hbond>  (239) 
-0.2

>  <r_i_glide_metal>  (239) 
-0

>  <r_i_glide_rewards>  (239) 
-2.0691

>  <r_i_glide_evdw>  (239) 
-20.552

>  <r_i_glide_ecoul>  (239) 
-4.35269

>  <r_i_glide_erotb>  (239) 
0.763233

>  <r_i_glide_esite>  (239) 
-0.104687

>  <r_i_glide_emodel>  (239) 
-31.5735

>  <r_i_glide_energy>  (239) 
-24.9047

>  <r_i_glide_einternal>  (239) 
1.49503

>  <r_i_glide_intrahb_reward>  (239) 
-0

>  <i_i_glide_confnum>  (239) 
5

>  <i_i_glide_posenum>  (239) 
28

>  <r_i_glide_eff_state_penalty>  (239) 
0

>  <ligand_id>  (239) 
67

>  <original_smiles>  (239) 
c1cn2c(n1)CC(N=c1[nH]cns1)C2

>  <smiles>  (239) 
[H]c1nsc(N([H])C2([H])C([H])([H])c3n(c([H])c([H])[n+]3[H])C2([H])[H])n1

$$$$
67:1:0
     RDKit          3D

 23 25  0  0  1  0  0  0  0  0999 V2000
    3.7934   -1.1539   -4.1930 C   0  0  0  0  0  0  0  0  0  0  0  0
    4.1470   -0.4053   -3.0874 C   0  0  0  0  0  0  0  0  0  0  0  0
    4.4972   -1.3364   -2.1314 N   0  0  0  0  0  0  0  0  0  0  0  0
    4.3610   -2.5272   -2.6682 C   0  0  0  0  0  0  0  0  0  0  0  0
    3.9496   -2.5222   -3.9275 N   0  0  0  0  0  0  0  0  0  0  0  0
    4.7490   -3.5933   -1.7236 C   0  0  0  0  0  0  0  0  0  0  0  0
    5.1740   -2.7987   -0.4514 C   0  0  1  0  0  0  0  0  0  0  0  0
    6.5555   -3.0638   -0.0563 N   0  0  0  0  0  0  0  0  0  0  0  0
    6.9070   -4.2992    0.4881 C   0  0  0  0  0  0  0  0  0  0  0  0
    8.1803   -4.5884    0.7232 N   0  0  0  0  0  0  0  0  0  0  0  0
    8.2649   -5.8214    1.2556 C   0  0  0  0  0  0  0  0  0  0  0  0
    7.1371   -6.5348    1.4419 N   0  0  0  0  0  0  0  0  0  0  0  0
    5.8258   -5.6019    0.9241 S   0  0  0  0  0  0  0  0  0  0  0  0
    4.9610   -1.2955   -0.7756 C   0  0  0  0  0  0  0  0  0  0  0  0
    3.4452   -0.8093   -5.1550 H   0  0  0  0  0  0  0  0  0  0  0  0
    4.1674    0.6586   -2.9083 H   0  0  0  0  0  0  0  0  0  0  0  0
    3.8932   -4.2412   -1.5295 H   0  0  0  0  0  0  0  0  0  0  0  0
    5.5474   -4.1968   -2.1522 H   0  0  0  0  0  0  0  0  0  0  0  0
    4.5157   -3.0674    0.3753 H   0  0  0  0  0  0  0  0  0  0  0  0
    9.2278   -6.2349    1.5289 H   0  0  0  0  0  0  0  0  0  0  0  0
    5.8786   -0.7120   -0.7235 H   0  0  0  0  0  0  0  0  0  0  0  0
    4.2029   -0.8315   -0.1416 H   0  0  0  0  0  0  0  0  0  0  0  0
    7.2929   -2.4209   -0.3063 H   0  0  0  0  0  0  0  0  0  0  0  0
  1  5  1  0
  1  2  2  0
  1 15  1  0
  2  3  1  0
  2 16  1  0
  3 14  1  0
  3  4  1  0
  4  5  2  0
  4  6  1  0
  6  7  1  0
  6 17  1  0
  6 18  1  0
  7  8  1  0
  7 14  1  0
  7 19  1  1
  8  9  1  0
  8 23  1  0
  9 13  1  0
  9 10  2  0
 10 11  1  0
 11 12  2  0
 11 20  1  0
 12 13  1  0
 14 21  1  0
 14 22  1  0
M  END
>  <i_m_ct_stereo_status>  (240) 
1

>  <s_m_source_file>  (240) 
/var/tmp/pbs.5076255.sched01/tmp0eyfkrct/966b1hsbd3.sdf

>  <i_m_source_file_index>  (240) 
9

>  <i_lp_mmshare_version>  (240) 
48012

>  <i_f3d_flags>  (240) 
0

>  <s_epik_input>  (240) 
W2NIXTFbY0hdbmMobjEyKVtDSDJdW0NASF0oW0NIMl0yKS9OPWMzXFtuSF1bY0hdbnMz

>  <s_epik_cmdline>  (240) 
J2VwaWtfcHl0aG9uJywgJy1waHQnLCAnMi4wJywgJy1waCcsICc3LjAnLCAnLXRuJywgJzgnLCAnLW1hJywgJzIwMCcsICctaW1hZScsICc8aW5maWxlLm1hZT4nLCAnLW9tYWUnLCAnPG91dGZpbGUubWFlPic=

>  <r_lp_tautomer_probability>  (240) 
1

>  <r_epik_Ionization_Penalty>  (240) 
1.56784

>  <r_epik_Ionization_Penalty_Charging>  (240) 
1.56783

>  <r_epik_Ionization_Penalty_Neutral>  (240) 
1.62552e-05

>  <r_epik_State_Penalty>  (240) 
1.66337

>  <r_epik_Charging_Adjusted_Penalty>  (240) 
3.2312

>  <i_epik_Tot_Q>  (240) 
0

>  <i_epik_Tot_abs_Q>  (240) 
0

>  <s_lp_Force_Field>  (240) 
OPLS3e

>  <r_lp_Energy>  (240) 
17.6637

>  <b_lp_Chiralities_Consistent>  (240) 
1

>  <s_lp_Variant>  (240) 
67:0-2

>  <s_i_glide_gridfile>  (240) 
pfpi4k_grid

>  <i_i_glide_lignum>  (240) 
9

>  <i_i_glide_rotatable_bonds>  (240) 
2

>  <r_i_docking_score>  (240) 
-3.76888

>  <r_i_glide_ligand_efficiency>  (240) 
-0.269205

>  <r_i_glide_ligand_efficiency_sa>  (240) 
-0.648823

>  <r_i_glide_ligand_efficiency_ln>  (240) 
-1.03567

>  <r_i_glide_gscore>  (240) 
-3.76888

>  <r_i_glide_lipo>  (240) 
-0.482042

>  <r_i_glide_hbond>  (240) 
-0.166056

>  <r_i_glide_metal>  (240) 
-0

>  <r_i_glide_rewards>  (240) 
-2.13756

>  <r_i_glide_evdw>  (240) 
-25.4807

>  <r_i_glide_ecoul>  (240) 
-2.81139

>  <r_i_glide_erotb>  (240) 
0.769461

>  <r_i_glide_esite>  (240) 
-0.0569325

>  <r_i_glide_emodel>  (240) 
-34.313

>  <r_i_glide_energy>  (240) 
-28.2921

>  <r_i_glide_einternal>  (240) 
0.788848

>  <r_i_glide_intrahb_reward>  (240) 
-0

>  <i_i_glide_confnum>  (240) 
4

>  <i_i_glide_posenum>  (240) 
30

>  <r_i_glide_eff_state_penalty>  (240) 
0

>  <ligand_id>  (240) 
67

>  <original_smiles>  (240) 
c1cn2c(n1)CC(N=c1[nH]cns1)C2

>  <smiles>  (240) 
[H]c1nsc(N([H])C2([H])C([H])([H])c3nc([H])c([H])n3C2([H])[H])n1

$$$$
67:1:1
     RDKit          3D

 23 25  0  0  1  0  0  0  0  0999 V2000
    3.8108   -0.9121   -4.3187 C   0  0  0  0  0  0  0  0  0  0  0  0
    4.0975   -0.2569   -3.1342 C   0  0  0  0  0  0  0  0  0  0  0  0
    3.9848   -1.2293   -2.1575 N   0  0  0  0  0  0  0  0  0  0  0  0
    3.6643   -2.3518   -2.7528 C   0  0  0  0  0  0  0  0  0  0  0  0
    3.5622   -2.2695   -4.0718 N   0  0  0  0  0  0  0  0  0  0  0  0
    3.5438   -3.4540   -1.7793 C   0  0  0  0  0  0  0  0  0  0  0  0
    3.8803   -2.7825   -0.4143 C   0  0  1  0  0  0  0  0  0  0  0  0
    5.0461   -3.3558    0.2598 N   0  0  0  0  0  0  0  0  0  0  0  0
    5.1337   -4.7079    0.6170 C   0  0  0  0  0  0  0  0  0  0  0  0
    4.1438   -5.5878    0.5033 N   0  0  0  0  0  0  0  0  0  0  0  0
    4.5757   -6.7932    0.9235 C   0  0  0  0  0  0  0  0  0  0  0  0
    5.8393   -6.9215    1.3731 N   0  0  0  0  0  0  0  0  0  0  0  0
    6.5893   -5.4161    1.2614 S   0  0  0  0  0  0  0  0  0  0  0  0
    4.1472   -1.2851   -0.7336 C   0  0  0  0  0  0  0  0  0  0  0  0
    3.7711   -0.5122   -5.3205 H   0  0  0  0  0  0  0  0  0  0  0  0
    4.3431    0.7724   -2.9217 H   0  0  0  0  0  0  0  0  0  0  0  0
    2.5251   -3.8485   -1.8058 H   0  0  0  0  0  0  0  0  0  0  0  0
    4.2283   -4.2543   -2.0602 H   0  0  0  0  0  0  0  0  0  0  0  0
    3.0080   -2.8499    0.2374 H   0  0  0  0  0  0  0  0  0  0  0  0
    3.9269   -7.6586    0.9148 H   0  0  0  0  0  0  0  0  0  0  0  0
    5.1565   -0.9592   -0.4799 H   0  0  0  0  0  0  0  0  0  0  0  0
    3.4229   -0.6274   -0.2531 H   0  0  0  0  0  0  0  0  0  0  0  0
    5.8754   -2.7825    0.3368 H   0  0  0  0  0  0  0  0  0  0  0  0
  1  5  1  0
  1  2  2  0
  1 15  1  0
  2  3  1  0
  2 16  1  0
  3 14  1  0
  3  4  1  0
  4  5  2  0
  4  6  1  0
  6  7  1  0
  6 17  1  0
  6 18  1  0
  7  8  1  0
  7 14  1  0
  7 19  1  1
  8  9  1  0
  8 23  1  0
  9 13  1  0
  9 10  2  0
 10 11  1  0
 11 12  2  0
 11 20  1  0
 12 13  1  0
 14 21  1  0
 14 22  1  0
M  END
>  <i_m_ct_stereo_status>  (241) 
1

>  <s_m_source_file>  (241) 
/var/tmp/pbs.5076255.sched01/tmp0eyfkrct/966b1hsbd3.sdf

>  <i_m_source_file_index>  (241) 
9

>  <i_lp_mmshare_version>  (241) 
48012

>  <i_f3d_flags>  (241) 
0

>  <s_epik_input>  (241) 
W2NIXTFbY0hdbmMobjEyKVtDSDJdW0NASF0oW0NIMl0yKS9OPWMzXFtuSF1bY0hdbnMz

>  <s_epik_cmdline>  (241) 
J2VwaWtfcHl0aG9uJywgJy1waHQnLCAnMi4wJywgJy1waCcsICc3LjAnLCAnLXRuJywgJzgnLCAnLW1hJywgJzIwMCcsICctaW1hZScsICc8aW5maWxlLm1hZT4nLCAnLW9tYWUnLCAnPG91dGZpbGUubWFlPic=

>  <r_lp_tautomer_probability>  (241) 
1

>  <r_epik_Ionization_Penalty>  (241) 
1.56784

>  <r_epik_Ionization_Penalty_Charging>  (241) 
1.56783

>  <r_epik_Ionization_Penalty_Neutral>  (241) 
1.62552e-05

>  <r_epik_State_Penalty>  (241) 
1.66337

>  <r_epik_Charging_Adjusted_Penalty>  (241) 
3.2312

>  <i_epik_Tot_Q>  (241) 
0

>  <i_epik_Tot_abs_Q>  (241) 
0

>  <s_lp_Force_Field>  (241) 
OPLS3e

>  <r_lp_Energy>  (241) 
17.6637

>  <b_lp_Chiralities_Consistent>  (241) 
1

>  <s_lp_Variant>  (241) 
67:0-2

>  <s_i_glide_gridfile>  (241) 
pfpi4k_grid

>  <i_i_glide_lignum>  (241) 
9

>  <i_i_glide_rotatable_bonds>  (241) 
2

>  <r_i_docking_score>  (241) 
-3.5799

>  <r_i_glide_ligand_efficiency>  (241) 
-0.255707

>  <r_i_glide_ligand_efficiency_sa>  (241) 
-0.616291

>  <r_i_glide_ligand_efficiency_ln>  (241) 
-0.983745

>  <r_i_glide_gscore>  (241) 
-3.5799

>  <r_i_glide_lipo>  (241) 
-0.445981

>  <r_i_glide_hbond>  (241) 
-0.212569

>  <r_i_glide_metal>  (241) 
-0

>  <r_i_glide_rewards>  (241) 
-2.18626

>  <r_i_glide_evdw>  (241) 
-22.9719

>  <r_i_glide_ecoul>  (241) 
-2.08346

>  <r_i_glide_erotb>  (241) 
0.769461

>  <r_i_glide_esite>  (241) 
-0.0434368

>  <r_i_glide_emodel>  (241) 
-30.9053

>  <r_i_glide_energy>  (241) 
-25.0554

>  <r_i_glide_einternal>  (241) 
0.292663

>  <r_i_glide_intrahb_reward>  (241) 
-0

>  <i_i_glide_confnum>  (241) 
1

>  <i_i_glide_posenum>  (241) 
23

>  <r_i_glide_eff_state_penalty>  (241) 
0

>  <ligand_id>  (241) 
67

>  <original_smiles>  (241) 
c1cn2c(n1)CC(N=c1[nH]cns1)C2

>  <smiles>  (241) 
[H]c1nsc(N([H])C2([H])C([H])([H])c3nc([H])c([H])n3C2([H])[H])n1

$$$$
67:1:2
     RDKit          3D

 23 25  0  0  1  0  0  0  0  0999 V2000
    3.4136   -0.9653   -4.3195 C   0  0  0  0  0  0  0  0  0  0  0  0
    2.9036   -2.1365   -3.7890 C   0  0  0  0  0  0  0  0  0  0  0  0
    3.4020   -2.1811   -2.5053 N   0  0  0  0  0  0  0  0  0  0  0  0
    4.1375   -1.1104   -2.3276 C   0  0  0  0  0  0  0  0  0  0  0  0
    4.2090   -0.3083   -3.3765 N   0  0  0  0  0  0  0  0  0  0  0  0
    4.6903   -1.0549   -0.9633 C   0  0  0  0  0  0  0  0  0  0  0  0
    4.1226   -2.3430   -0.2953 C   0  0  1  0  0  0  0  0  0  0  0  0
    3.3344   -2.0756    0.9015 N   0  0  0  0  0  0  0  0  0  0  0  0
    3.9221   -1.4733    2.0130 C   0  0  0  0  0  0  0  0  0  0  0  0
    3.1825   -1.1251    3.0568 N   0  0  0  0  0  0  0  0  0  0  0  0
    3.9631   -0.5640    3.9942 C   0  0  0  0  0  0  0  0  0  0  0  0
    5.2803   -0.4181    3.7555 N   0  0  0  0  0  0  0  0  0  0  0  0
    5.6139   -1.0657    2.2309 S   0  0  0  0  0  0  0  0  0  0  0  0
    3.2745   -3.0603   -1.3800 C   0  0  0  0  0  0  0  0  0  0  0  0
    3.2563   -0.5433   -5.3002 H   0  0  0  0  0  0  0  0  0  0  0  0
    2.2400   -2.8887   -4.1858 H   0  0  0  0  0  0  0  0  0  0  0  0
    5.7767   -1.0724   -1.0188 H   0  0  0  0  0  0  0  0  0  0  0  0
    4.3812   -0.1325   -0.4737 H   0  0  0  0  0  0  0  0  0  0  0  0
    4.9518   -2.9951   -0.0118 H   0  0  0  0  0  0  0  0  0  0  0  0
    3.5327   -0.2417    4.9403 H   0  0  0  0  0  0  0  0  0  0  0  0
    2.2198   -3.1431   -1.1125 H   0  0  0  0  0  0  0  0  0  0  0  0
    3.6726   -4.0458   -1.6296 H   0  0  0  0  0  0  0  0  0  0  0  0
    2.3171   -2.0803    0.8294 H   0  0  0  0  0  0  0  0  0  0  0  0
  1  5  1  0
  1  2  2  0
  1 15  1  0
  2  3  1  0
  2 16  1  0
  3 14  1  0
  3  4  1  0
  4  5  2  0
  4  6  1  0
  6  7  1  0
  6 17  1  0
  6 18  1  0
  7  8  1  0
  7 14  1  0
  7 19  1  1
  8  9  1  0
  8 23  1  0
  9 13  1  0
  9 10  2  0
 10 11  1  0
 11 12  2  0
 11 20  1  0
 12 13  1  0
 14 21  1  0
 14 22  1  0
M  END
>  <i_m_ct_stereo_status>  (242) 
1

>  <s_m_source_file>  (242) 
/var/tmp/pbs.5076255.sched01/tmp0eyfkrct/966b1hsbd3.sdf

>  <i_m_source_file_index>  (242) 
9

>  <i_lp_mmshare_version>  (242) 
48012

>  <i_f3d_flags>  (242) 
0

>  <s_epik_input>  (242) 
W2NIXTFbY0hdbmMobjEyKVtDSDJdW0NASF0oW0NIMl0yKS9OPWMzXFtuSF1bY0hdbnMz

>  <s_epik_cmdline>  (242) 
J2VwaWtfcHl0aG9uJywgJy1waHQnLCAnMi4wJywgJy1waCcsICc3LjAnLCAnLXRuJywgJzgnLCAnLW1hJywgJzIwMCcsICctaW1hZScsICc8aW5maWxlLm1hZT4nLCAnLW9tYWUnLCAnPG91dGZpbGUubWFlPic=

>  <r_lp_tautomer_probability>  (242) 
1

>  <r_epik_Ionization_Penalty>  (242) 
1.56784

>  <r_epik_Ionization_Penalty_Charging>  (242) 
1.56783

>  <r_epik_Ionization_Penalty_Neutral>  (242) 
1.62552e-05

>  <r_epik_State_Penalty>  (242) 
1.66337

>  <r_epik_Charging_Adjusted_Penalty>  (242) 
3.2312

>  <i_epik_Tot_Q>  (242) 
0

>  <i_epik_Tot_abs_Q>  (242) 
0

>  <s_lp_Force_Field>  (242) 
OPLS3e

>  <r_lp_Energy>  (242) 
17.6637

>  <b_lp_Chiralities_Consistent>  (242) 
1

>  <s_lp_Variant>  (242) 
67:0-2

>  <s_i_glide_gridfile>  (242) 
pfpi4k_grid

>  <i_i_glide_lignum>  (242) 
9

>  <i_i_glide_rotatable_bonds>  (242) 
2

>  <r_i_docking_score>  (242) 
-3.12598

>  <r_i_glide_ligand_efficiency>  (242) 
-0.223284

>  <r_i_glide_ligand_efficiency_sa>  (242) 
-0.538146

>  <r_i_glide_ligand_efficiency_ln>  (242) 
-0.859007

>  <r_i_glide_gscore>  (242) 
-3.12598

>  <r_i_glide_lipo>  (242) 
-0.372977

>  <r_i_glide_hbond>  (242) 
0

>  <r_i_glide_metal>  (242) 
-0

>  <r_i_glide_rewards>  (242) 
-2.00637

>  <r_i_glide_evdw>  (242) 
-22.9514

>  <r_i_glide_ecoul>  (242) 
-1.86719

>  <r_i_glide_erotb>  (242) 
0.769461

>  <r_i_glide_esite>  (242) 
-0.0884421

>  <r_i_glide_emodel>  (242) 
-29.6124

>  <r_i_glide_energy>  (242) 
-24.8185

>  <r_i_glide_einternal>  (242) 
0.904327

>  <r_i_glide_intrahb_reward>  (242) 
-0

>  <i_i_glide_confnum>  (242) 
4

>  <i_i_glide_posenum>  (242) 
2

>  <r_i_glide_eff_state_penalty>  (242) 
0

>  <ligand_id>  (242) 
67

>  <original_smiles>  (242) 
c1cn2c(n1)CC(N=c1[nH]cns1)C2

>  <smiles>  (242) 
[H]c1nsc(N([H])C2([H])C([H])([H])c3nc([H])c([H])n3C2([H])[H])n1

$$$$
69:0:0
     RDKit          3D

 13 14  0  0  1  0  0  0  0  0999 V2000
    0.0025   -9.7831    3.2691 C   0  0  0  0  0  0  0  0  0  0  0  0
   -1.0996   -8.9251    3.0338 C   0  0  0  0  0  0  0  0  0  0  0  0
   -1.0188   -7.7452    2.4232 N   0  0  0  0  0  0  0  0  0  0  0  0
    0.2000   -7.3848    1.9853 C   0  0  0  0  0  0  0  0  0  0  0  0
    0.5837   -6.2791    1.3467 N   0  0  0  0  0  0  0  0  0  0  0  0
    1.9290   -6.4604    1.1977 C   0  0  0  0  0  0  0  0  0  0  0  0
    2.4319   -7.5879    1.6821 N   0  0  0  0  0  0  0  0  0  0  0  0
    1.3282   -8.1949    2.1907 N   0  0  0  0  0  0  0  0  0  0  0  0
    1.2474   -9.3945    2.8298 C   0  0  0  0  0  0  0  0  0  0  0  0
   -0.1404  -10.7270    3.7895 H   0  0  0  0  0  0  0  0  0  0  0  0
   -2.0859   -9.2236    3.3743 H   0  0  0  0  0  0  0  0  0  0  0  0
    2.5586   -5.7372    0.6986 H   0  0  0  0  0  0  0  0  0  0  0  0
    2.1572   -9.9737    2.9565 H   0  0  0  0  0  0  0  0  0  0  0  0
  1  9  2  0
  1  2  1  0
  1 10  1  0
  2  3  2  0
  2 11  1  0
  3  4  1  0
  4  8  1  0
  4  5  2  0
  5  6  1  0
  6  7  2  0
  6 12  1  0
  7  8  1  0
  8  9  1  0
  9 13  1  0
M  END
>  <i_m_ct_stereo_status>  (243) 
1

>  <s_m_source_file>  (243) 
/var/tmp/pbs.5076255.sched01/tmp0eyfkrct/966b1hsbd3.sdf

>  <i_m_source_file_index>  (243) 
11

>  <i_lp_mmshare_version>  (243) 
48012

>  <i_f3d_flags>  (243) 
0

>  <s_epik_input>  (243) 
bjFbY0hdW2NIXVtjSF1uKGMxMiluW2NIXW4y

>  <s_epik_cmdline>  (243) 
J2VwaWtfcHl0aG9uJywgJy1waHQnLCAnMi4wJywgJy1waCcsICc3LjAnLCAnLXRuJywgJzgnLCAnLW1hJywgJzIwMCcsICctaW1hZScsICc8aW5maWxlLm1hZT4nLCAnLW9tYWUnLCAnPG91dGZpbGUubWFlPic=

>  <r_lp_tautomer_probability>  (243) 
1

>  <r_epik_Ionization_Penalty>  (243) 
1.66986e-07

>  <r_epik_Ionization_Penalty_Charging>  (243) 
0

>  <r_epik_Ionization_Penalty_Neutral>  (243) 
1.66986e-07

>  <r_epik_State_Penalty>  (243) 
-0

>  <r_epik_Charging_Adjusted_Penalty>  (243) 
0

>  <i_epik_Tot_Q>  (243) 
0

>  <i_epik_Tot_abs_Q>  (243) 
0

>  <s_lp_Force_Field>  (243) 
OPLS3e

>  <r_lp_Energy>  (243) 
14.6748

>  <b_lp_Chiralities_Consistent>  (243) 
1

>  <s_lp_Variant>  (243) 
69:0-1

>  <s_i_glide_gridfile>  (243) 
pfpi4k_grid

>  <i_i_glide_lignum>  (243) 
11

>  <i_i_glide_rotatable_bonds>  (243) 
0

>  <r_i_docking_score>  (243) 
-4.2457

>  <r_i_glide_ligand_efficiency>  (243) 
-0.471744

>  <r_i_glide_ligand_efficiency_sa>  (243) 
-0.981268

>  <r_i_glide_ligand_efficiency_ln>  (243) 
-1.32793

>  <r_i_glide_gscore>  (243) 
-4.2457

>  <r_i_glide_lipo>  (243) 
-0.0335694

>  <r_i_glide_hbond>  (243) 
-0.16

>  <r_i_glide_metal>  (243) 
-0

>  <r_i_glide_rewards>  (243) 
-2.25

>  <r_i_glide_evdw>  (243) 
-13.9361

>  <r_i_glide_ecoul>  (243) 
-6.47193

>  <r_i_glide_erotb>  (243) 
0

>  <r_i_glide_esite>  (243) 
-0.134534

>  <r_i_glide_emodel>  (243) 
-27.1664

>  <r_i_glide_energy>  (243) 
-20.4081

>  <r_i_glide_einternal>  (243) 
0

>  <r_i_glide_intrahb_reward>  (243) 
-0

>  <i_i_glide_confnum>  (243) 
1

>  <i_i_glide_posenum>  (243) 
1

>  <r_i_glide_eff_state_penalty>  (243) 
0

>  <ligand_id>  (243) 
69

>  <original_smiles>  (243) 
c1cnc2ncnn2c1

>  <smiles>  (243) 
[H]c1nc2nc([H])c([H])c([H])n2n1

$$$$
69:0:1
     RDKit          3D

 13 14  0  0  1  0  0  0  0  0999 V2000
   -0.4155   -9.0801    2.7929 C   0  0  0  0  0  0  0  0  0  0  0  0
   -0.4283   -7.8555    2.0831 C   0  0  0  0  0  0  0  0  0  0  0  0
   -0.2420   -6.6587    2.6354 N   0  0  0  0  0  0  0  0  0  0  0  0
   -0.0091   -6.6498    3.9626 C   0  0  0  0  0  0  0  0  0  0  0  0
    0.2055   -5.6248    4.7817 N   0  0  0  0  0  0  0  0  0  0  0  0
    0.3608   -6.2201    5.9991 C   0  0  0  0  0  0  0  0  0  0  0  0
    0.2479   -7.5417    6.0266 N   0  0  0  0  0  0  0  0  0  0  0  0
    0.0132   -7.8328    4.7194 N   0  0  0  0  0  0  0  0  0  0  0  0
   -0.1860   -9.0531    4.1504 C   0  0  0  0  0  0  0  0  0  0  0  0
   -0.5784  -10.0219    2.2734 H   0  0  0  0  0  0  0  0  0  0  0  0
   -0.6059   -7.8619    1.0134 H   0  0  0  0  0  0  0  0  0  0  0  0
    0.5561   -5.6539    6.8974 H   0  0  0  0  0  0  0  0  0  0  0  0
   -0.1590   -9.9295    4.7918 H   0  0  0  0  0  0  0  0  0  0  0  0
  1  9  2  0
  1  2  1  0
  1 10  1  0
  2  3  2  0
  2 11  1  0
  3  4  1  0
  4  8  1  0
  4  5  2  0
  5  6  1  0
  6  7  2  0
  6 12  1  0
  7  8  1  0
  8  9  1  0
  9 13  1  0
M  END
>  <i_m_ct_stereo_status>  (244) 
1

>  <s_m_source_file>  (244) 
/var/tmp/pbs.5076255.sched01/tmp0eyfkrct/966b1hsbd3.sdf

>  <i_m_source_file_index>  (244) 
11

>  <i_lp_mmshare_version>  (244) 
48012

>  <i_f3d_flags>  (244) 
0

>  <s_epik_input>  (244) 
bjFbY0hdW2NIXVtjSF1uKGMxMiluW2NIXW4y

>  <s_epik_cmdline>  (244) 
J2VwaWtfcHl0aG9uJywgJy1waHQnLCAnMi4wJywgJy1waCcsICc3LjAnLCAnLXRuJywgJzgnLCAnLW1hJywgJzIwMCcsICctaW1hZScsICc8aW5maWxlLm1hZT4nLCAnLW9tYWUnLCAnPG91dGZpbGUubWFlPic=

>  <r_lp_tautomer_probability>  (244) 
1

>  <r_epik_Ionization_Penalty>  (244) 
1.66986e-07

>  <r_epik_Ionization_Penalty_Charging>  (244) 
0

>  <r_epik_Ionization_Penalty_Neutral>  (244) 
1.66986e-07

>  <r_epik_State_Penalty>  (244) 
-0

>  <r_epik_Charging_Adjusted_Penalty>  (244) 
0

>  <i_epik_Tot_Q>  (244) 
0

>  <i_epik_Tot_abs_Q>  (244) 
0

>  <s_lp_Force_Field>  (244) 
OPLS3e

>  <r_lp_Energy>  (244) 
14.6748

>  <b_lp_Chiralities_Consistent>  (244) 
1

>  <s_lp_Variant>  (244) 
69:0-1

>  <s_i_glide_gridfile>  (244) 
pfpi4k_grid

>  <i_i_glide_lignum>  (244) 
11

>  <i_i_glide_rotatable_bonds>  (244) 
0

>  <r_i_docking_score>  (244) 
-3.62809

>  <r_i_glide_ligand_efficiency>  (244) 
-0.403121

>  <r_i_glide_ligand_efficiency_sa>  (244) 
-0.838526

>  <r_i_glide_ligand_efficiency_ln>  (244) 
-1.13476

>  <r_i_glide_gscore>  (244) 
-3.62809

>  <r_i_glide_lipo>  (244) 
0

>  <r_i_glide_hbond>  (244) 
-0.16

>  <r_i_glide_metal>  (244) 
-0

>  <r_i_glide_rewards>  (244) 
-2.25

>  <r_i_glide_evdw>  (244) 
-11.0514

>  <r_i_glide_ecoul>  (244) 
-3.88131

>  <r_i_glide_erotb>  (244) 
0

>  <r_i_glide_esite>  (244) 
-0.0833245

>  <r_i_glide_emodel>  (244) 
-20.708

>  <r_i_glide_energy>  (244) 
-14.9327

>  <r_i_glide_einternal>  (244) 
0

>  <r_i_glide_intrahb_reward>  (244) 
-0

>  <i_i_glide_confnum>  (244) 
1

>  <i_i_glide_posenum>  (244) 
3

>  <r_i_glide_eff_state_penalty>  (244) 
0

>  <ligand_id>  (244) 
69

>  <original_smiles>  (244) 
c1cnc2ncnn2c1

>  <smiles>  (244) 
[H]c1nc2nc([H])c([H])c([H])n2n1

$$$$
69:0:2
     RDKit          3D

 13 14  0  0  1  0  0  0  0  0999 V2000
   -0.5268    1.9461    2.8817 C   0  0  0  0  0  0  0  0  0  0  0  0
   -1.3521    2.5193    3.8779 C   0  0  0  0  0  0  0  0  0  0  0  0
   -1.7836    1.8790    4.9610 N   0  0  0  0  0  0  0  0  0  0  0  0
   -1.4029    0.5968    5.0862 C   0  0  0  0  0  0  0  0  0  0  0  0
   -1.6780   -0.2914    6.0425 N   0  0  0  0  0  0  0  0  0  0  0  0
   -1.0109   -1.4096    5.6292 C   0  0  0  0  0  0  0  0  0  0  0  0
   -0.3470   -1.3156    4.4851 N   0  0  0  0  0  0  0  0  0  0  0  0
   -0.5861   -0.0272    4.1276 N   0  0  0  0  0  0  0  0  0  0  0  0
   -0.1398    0.6340    3.0230 C   0  0  0  0  0  0  0  0  0  0  0  0
   -0.2067    2.5362    2.0240 H   0  0  0  0  0  0  0  0  0  0  0  0
   -1.6632    3.5527    3.7807 H   0  0  0  0  0  0  0  0  0  0  0  0
   -1.0278   -2.3328    6.1903 H   0  0  0  0  0  0  0  0  0  0  0  0
    0.4878    0.0980    2.3180 H   0  0  0  0  0  0  0  0  0  0  0  0
  1  9  2  0
  1  2  1  0
  1 10  1  0
  2  3  2  0
  2 11  1  0
  3  4  1  0
  4  8  1  0
  4  5  2  0
  5  6  1  0
  6  7  2  0
  6 12  1  0
  7  8  1  0
  8  9  1  0
  9 13  1  0
M  END
>  <i_m_ct_stereo_status>  (245) 
1

>  <s_m_source_file>  (245) 
/var/tmp/pbs.5076255.sched01/tmp0eyfkrct/966b1hsbd3.sdf

>  <i_m_source_file_index>  (245) 
11

>  <i_lp_mmshare_version>  (245) 
48012

>  <i_f3d_flags>  (245) 
0

>  <s_epik_input>  (245) 
bjFbY0hdW2NIXVtjSF1uKGMxMiluW2NIXW4y

>  <s_epik_cmdline>  (245) 
J2VwaWtfcHl0aG9uJywgJy1waHQnLCAnMi4wJywgJy1waCcsICc3LjAnLCAnLXRuJywgJzgnLCAnLW1hJywgJzIwMCcsICctaW1hZScsICc8aW5maWxlLm1hZT4nLCAnLW9tYWUnLCAnPG91dGZpbGUubWFlPic=

>  <r_lp_tautomer_probability>  (245) 
1

>  <r_epik_Ionization_Penalty>  (245) 
1.66986e-07

>  <r_epik_Ionization_Penalty_Charging>  (245) 
0

>  <r_epik_Ionization_Penalty_Neutral>  (245) 
1.66986e-07

>  <r_epik_State_Penalty>  (245) 
-0

>  <r_epik_Charging_Adjusted_Penalty>  (245) 
0

>  <i_epik_Tot_Q>  (245) 
0

>  <i_epik_Tot_abs_Q>  (245) 
0

>  <s_lp_Force_Field>  (245) 
OPLS3e

>  <r_lp_Energy>  (245) 
14.6748

>  <b_lp_Chiralities_Consistent>  (245) 
1

>  <s_lp_Variant>  (245) 
69:0-1

>  <s_i_glide_gridfile>  (245) 
pfpi4k_grid

>  <i_i_glide_lignum>  (245) 
11

>  <i_i_glide_rotatable_bonds>  (245) 
0

>  <r_i_docking_score>  (245) 
-3.61166

>  <r_i_glide_ligand_efficiency>  (245) 
-0.401295

>  <r_i_glide_ligand_efficiency_sa>  (245) 
-0.834728

>  <r_i_glide_ligand_efficiency_ln>  (245) 
-1.12962

>  <r_i_glide_gscore>  (245) 
-3.61166

>  <r_i_glide_lipo>  (245) 
0

>  <r_i_glide_hbond>  (245) 
-0.136992

>  <r_i_glide_metal>  (245) 
-0

>  <r_i_glide_rewards>  (245) 
-2.25

>  <r_i_glide_evdw>  (245) 
-11.621

>  <r_i_glide_ecoul>  (245) 
-3.60831

>  <r_i_glide_erotb>  (245) 
0

>  <r_i_glide_esite>  (245) 
-0.10237

>  <r_i_glide_emodel>  (245) 
-20.9787

>  <r_i_glide_energy>  (245) 
-15.2293

>  <r_i_glide_einternal>  (245) 
0

>  <r_i_glide_intrahb_reward>  (245) 
-0

>  <i_i_glide_confnum>  (245) 
1

>  <i_i_glide_posenum>  (245) 
2

>  <r_i_glide_eff_state_penalty>  (245) 
0

>  <ligand_id>  (245) 
69

>  <original_smiles>  (245) 
c1cnc2ncnn2c1

>  <smiles>  (245) 
[H]c1nc2nc([H])c([H])c([H])n2n1

$$$$
70:0:0
     RDKit          3D

 48 51  0  0  1  0  0  0  0  0999 V2000
   -1.6645    3.3951    2.9016 C   0  0  0  0  0  0  0  0  0  0  0  0
   -0.5732    3.5190    3.9710 C   0  0  0  0  0  0  0  0  0  0  0  0
    0.7769    3.9830    3.4016 C   0  0  0  0  0  0  0  0  0  0  0  0
   -0.9836    4.4837    4.7966 F   0  0  0  0  0  0  0  0  0  0  0  0
   -0.4376    2.2424    4.7701 C   0  0  0  0  0  0  0  0  0  0  0  0
   -0.1858    1.0585    4.1892 N   0  0  0  0  0  0  0  0  0  0  0  0
   -0.1214    0.1009    5.1362 N   0  0  0  0  0  0  0  0  0  0  0  0
    0.0827   -1.2569    5.1033 C   0  0  0  0  0  0  0  0  0  0  0  0
    0.0421   -1.6466    6.4165 C   0  0  0  0  0  0  0  0  0  0  0  0
    0.1864   -2.9702    6.9816 C   0  0  0  0  0  0  0  0  0  0  0  0
    0.0215   -3.4770    8.2559 C   0  0  0  0  0  0  0  0  0  0  0  0
    0.3315   -4.8824    8.1649 C   0  0  0  0  0  0  0  0  0  0  0  0
    0.3870   -5.9968    9.0337 C   0  0  0  0  0  0  0  0  0  0  0  0
    0.7805   -7.2696    8.5424 C   0  0  0  0  0  0  0  0  0  0  0  0
    1.1886   -7.4355    7.1981 C   0  0  0  0  0  0  0  0  0  0  0  0
    1.5131   -8.7112    6.8011 O   0  0  0  0  0  0  0  0  0  0  0  0
    2.0699   -8.9134    5.5085 C   0  0  0  0  0  0  0  0  0  0  0  0
    1.0321   -8.7271    4.3758 C   0  0  0  0  0  0  0  0  0  0  0  0
    1.7183   -8.6529    3.0045 C   0  0  0  0  0  0  0  0  0  0  0  0
    0.6899   -8.4238    1.8891 C   0  0  0  0  0  0  0  0  0  0  0  0
    0.0834   -7.0046    1.8177 C   0  0  0  0  0  0  0  0  0  0  0  0
    0.4510   -6.2686    0.8895 O   0  0  0  0  0  0  0  0  0  0  0  0
   -0.7815   -6.6536    2.6645 O   0  0  0  0  0  0  0  0  0  0  0  0
    1.2148   -6.3013    6.3555 C   0  0  0  0  0  0  0  0  0  0  0  0
    0.7340   -5.0939    6.8323 C   0  0  0  0  0  0  0  0  0  0  0  0
    0.5852   -3.9351    6.0985 O   0  0  0  0  0  0  0  0  0  0  0  0
   -0.1838   -0.5600    7.2665 N   0  0  0  0  0  0  0  0  0  0  0  0
   -0.2789    0.4519    6.4523 C   0  0  0  0  0  0  0  0  0  0  0  0
   -0.5791    2.1792    6.5386 S   0  0  0  0  0  0  0  0  0  0  0  0
   -1.3776    2.6358    2.1748 H   0  0  0  0  0  0  0  0  0  0  0  0
   -1.7982    4.3340    2.3643 H   0  0  0  0  0  0  0  0  0  0  0  0
   -2.6222    3.0971    3.3379 H   0  0  0  0  0  0  0  0  0  0  0  0
    1.1515    3.2577    2.6795 H   0  0  0  0  0  0  0  0  0  0  0  0
    1.5316    4.1009    4.1830 H   0  0  0  0  0  0  0  0  0  0  0  0
    0.6796    4.9368    2.8841 H   0  0  0  0  0  0  0  0  0  0  0  0
    0.2376   -1.8059    4.1659 H   0  0  0  0  0  0  0  0  0  0  0  0
   -0.2403   -2.9214    9.1490 H   0  0  0  0  0  0  0  0  0  0  0  0
    0.1702   -5.8659   10.0826 H   0  0  0  0  0  0  0  0  0  0  0  0
    0.8169   -8.1229    9.2082 H   0  0  0  0  0  0  0  0  0  0  0  0
    2.9725   -8.3057    5.4151 H   0  0  0  0  0  0  0  0  0  0  0  0
    2.4293   -9.9353    5.4820 H   0  0  0  0  0  0  0  0  0  0  0  0
    0.2920   -9.5400    4.4137 H   0  0  0  0  0  0  0  0  0  0  0  0
    0.4511   -7.8042    4.4678 H   0  0  0  0  0  0  0  0  0  0  0  0
    2.4698   -7.8562    2.9648 H   0  0  0  0  0  0  0  0  0  0  0  0
    2.2577   -9.5780    2.8048 H   0  0  0  0  0  0  0  0  0  0  0  0
    1.1944   -8.6211    0.9336 H   0  0  0  0  0  0  0  0  0  0  0  0
   -0.1261   -9.1345    2.0131 H   0  0  0  0  0  0  0  0  0  0  0  0
    1.5506   -6.2916    5.3272 H   0  0  0  0  0  0  0  0  0  0  0  0
  1  2  1  0
  1 30  1  0
  1 31  1  0
  1 32  1  0
  2  3  1  0
  2  4  1  0
  2  5  1  0
  3 33  1  0
  3 34  1  0
  3 35  1  0
  5 29  1  0
  5  6  2  0
  6  7  1  0
  7 28  1  0
  7  8  1  0
  8  9  2  0
  8 36  1  0
  9 10  1  0
  9 27  1  0
 10 26  1  0
 10 11  2  0
 11 12  1  0
 11 37  1  0
 12 25  2  0
 12 13  1  0
 13 14  2  0
 13 38  1  0
 14 15  1  0
 14 39  1  0
 15 16  1  0
 15 24  2  0
 16 17  1  0
 17 18  1  0
 17 40  1  0
 17 41  1  0
 18 19  1  0
 18 42  1  0
 18 43  1  0
 19 20  1  0
 19 44  1  0
 19 45  1  0
 20 21  1  0
 20 46  1  0
 20 47  1  0
 21 22  2  0
 21 23  1  0
 24 25  1  0
 24 48  1  0
 25 26  1  0
 27 28  2  0
 28 29  1  0
M  CHG  1  23  -1
M  END
>  <i_m_ct_stereo_status>  (246) 
1

>  <s_m_source_file>  (246) 
/var/tmp/pbs.5076255.sched01/tmp0eyfkrct/966b1hsbd3.sdf

>  <i_m_source_file_index>  (246) 
12

>  <i_lp_mmshare_version>  (246) 
48012

>  <i_f3d_flags>  (246) 
0

>  <s_epik_input>  (246) 
W0NIM11DKEYpKFtDSDNdKWMobjEpc2MobjEyKW5jKFtjSF0yKS1jKFtjSF0zKW9jKGMzNClbY0hdYyhbY0hdW2NIXTQpT1tDSDJdW0NIMl1bQ0gyXVtDSDJdQyg9TylbT0hd

>  <s_epik_cmdline>  (246) 
J2VwaWtfcHl0aG9uJywgJy1waHQnLCAnMi4wJywgJy1waCcsICc3LjAnLCAnLXRuJywgJzgnLCAnLW1hJywgJzIwMCcsICctaW1hZScsICc8aW5maWxlLm1hZT4nLCAnLW9tYWUnLCAnPG91dGZpbGUubWFlPic=

>  <r_lp_tautomer_probability>  (246) 
1

>  <r_epik_Ionization_Penalty>  (246) 
0.00528688

>  <r_epik_Ionization_Penalty_Charging>  (246) 
0.00528688

>  <r_epik_Ionization_Penalty_Neutral>  (246) 
3.66382e-10

>  <r_epik_State_Penalty>  (246) 
-0

>  <r_epik_Charging_Adjusted_Penalty>  (246) 
0.00528688

>  <i_epik_Tot_Q>  (246) 
-1

>  <i_epik_Tot_abs_Q>  (246) 
1

>  <s_lp_Force_Field>  (246) 
OPLS3e

>  <r_lp_Energy>  (246) 
17.4222

>  <b_lp_Chiralities_Consistent>  (246) 
1

>  <s_lp_Variant>  (246) 
70:0-1

>  <s_i_glide_gridfile>  (246) 
pfpi4k_grid

>  <i_i_glide_lignum>  (246) 
12

>  <i_i_glide_rotatable_bonds>  (246) 
8

>  <r_i_docking_score>  (246) 
-2.80803

>  <r_i_glide_ligand_efficiency>  (246) 
-0.0968287

>  <r_i_glide_ligand_efficiency_sa>  (246) 
-0.297489

>  <r_i_glide_ligand_efficiency_ln>  (246) 
-0.642968

>  <r_i_glide_gscore>  (246) 
-2.80803

>  <r_i_glide_lipo>  (246) 
0

>  <r_i_glide_hbond>  (246) 
-0.4

>  <r_i_glide_metal>  (246) 
-0

>  <r_i_glide_rewards>  (246) 
-0.56968

>  <r_i_glide_evdw>  (246) 
-20.6049

>  <r_i_glide_ecoul>  (246) 
-8.61093

>  <r_i_glide_erotb>  (246) 
0.68349

>  <r_i_glide_esite>  (246) 
-0.199961

>  <r_i_glide_emodel>  (246) 
-35.2504

>  <r_i_glide_energy>  (246) 
-29.2158

>  <r_i_glide_einternal>  (246) 
2.35769

>  <r_i_glide_intrahb_reward>  (246) 
-0

>  <i_i_glide_confnum>  (246) 
1

>  <i_i_glide_posenum>  (246) 
1

>  <r_i_glide_eff_state_penalty>  (246) 
0

>  <ligand_id>  (246) 
70

>  <original_smiles>  (246) 
CC(C)(F)c1nn2cc(-c3cc4ccc(OCCCCC(=O)O)cc4o3)nc2s1

>  <smiles>  (246) 
[H]c1c(OC([H])([H])C([H])([H])C([H])([H])C([H])([H])C(=O)[O-])c([H])c2oc(-c3nc4sc(C(F)(C([H])([H])[H])C([H])([H])[H])nn4c3[H])c([H])c2c1[H]

$$$$
70:0:1
     RDKit          3D

 48 51  0  0  1  0  0  0  0  0999 V2000
    3.5683   -0.8806   -2.8569 C   0  0  0  0  0  0  0  0  0  0  0  0
    4.1183   -2.0532   -2.0387 C   0  0  0  0  0  0  0  0  0  0  0  0
    3.1940   -3.2752   -2.0707 C   0  0  0  0  0  0  0  0  0  0  0  0
    5.2562   -2.4219   -2.6253 F   0  0  0  0  0  0  0  0  0  0  0  0
    4.4393   -1.6319   -0.6159 C   0  0  0  0  0  0  0  0  0  0  0  0
    3.4995   -1.2242    0.2354 N   0  0  0  0  0  0  0  0  0  0  0  0
    4.0629   -0.8882    1.4142 N   0  0  0  0  0  0  0  0  0  0  0  0
    3.5718   -0.4173    2.6124 C   0  0  0  0  0  0  0  0  0  0  0  0
    4.6806   -0.2838    3.4107 C   0  0  0  0  0  0  0  0  0  0  0  0
    4.7548    0.1636    4.7879 C   0  0  0  0  0  0  0  0  0  0  0  0
    5.8092    0.5706    5.5691 C   0  0  0  0  0  0  0  0  0  0  0  0
    5.2472    0.8971    6.8510 C   0  0  0  0  0  0  0  0  0  0  0  0
    5.6997    1.3698    8.1033 C   0  0  0  0  0  0  0  0  0  0  0  0
    4.7992    1.5619    9.1747 C   0  0  0  0  0  0  0  0  0  0  0  0
    3.4263    1.2665    9.0332 C   0  0  0  0  0  0  0  0  0  0  0  0
    2.6310    1.4542   10.1387 O   0  0  0  0  0  0  0  0  0  0  0  0
    1.2624    1.0699   10.0760 C   0  0  0  0  0  0  0  0  0  0  0  0
    0.4265    2.1043    9.2916 C   0  0  0  0  0  0  0  0  0  0  0  0
   -1.0716    1.9990    9.5911 C   0  0  0  0  0  0  0  0  0  0  0  0
   -1.9121    2.8757    8.6334 C   0  0  0  0  0  0  0  0  0  0  0  0
   -2.2456    2.1984    7.2984 C   0  0  0  0  0  0  0  0  0  0  0  0
   -2.1855    0.9459    7.2307 O   0  0  0  0  0  0  0  0  0  0  0  0
   -2.5888    2.9627    6.3678 O   0  0  0  0  0  0  0  0  0  0  0  0
    2.9604    0.7906    7.7850 C   0  0  0  0  0  0  0  0  0  0  0  0
    3.8656    0.6370    6.7368 C   0  0  0  0  0  0  0  0  0  0  0  0
    3.5705    0.2087    5.4652 O   0  0  0  0  0  0  0  0  0  0  0  0
    5.8405   -0.6574    2.7353 N   0  0  0  0  0  0  0  0  0  0  0  0
    5.4229   -1.0129    1.5563 C   0  0  0  0  0  0  0  0  0  0  0  0
    6.0909   -1.6237    0.0607 S   0  0  0  0  0  0  0  0  0  0  0  0
    2.6171   -0.5522   -2.4382 H   0  0  0  0  0  0  0  0  0  0  0  0
    3.3882   -1.1668   -3.8929 H   0  0  0  0  0  0  0  0  0  0  0  0
    4.2533   -0.0312   -2.8493 H   0  0  0  0  0  0  0  0  0  0  0  0
    2.2229   -3.0340   -1.6369 H   0  0  0  0  0  0  0  0  0  0  0  0
    3.6165   -4.1087   -1.5081 H   0  0  0  0  0  0  0  0  0  0  0  0
    3.0235   -3.6142   -3.0923 H   0  0  0  0  0  0  0  0  0  0  0  0
    2.5192   -0.2294    2.7725 H   0  0  0  0  0  0  0  0  0  0  0  0
    6.8452    0.6364    5.2725 H   0  0  0  0  0  0  0  0  0  0  0  0
    6.7503    1.5771    8.2363 H   0  0  0  0  0  0  0  0  0  0  0  0
    5.1659    1.9205   10.1271 H   0  0  0  0  0  0  0  0  0  0  0  0
    1.1489    0.0567    9.6806 H   0  0  0  0  0  0  0  0  0  0  0  0
    0.9100    1.0158   11.1078 H   0  0  0  0  0  0  0  0  0  0  0  0
    0.7660    3.1104    9.5395 H   0  0  0  0  0  0  0  0  0  0  0  0
    0.5593    2.0014    8.2145 H   0  0  0  0  0  0  0  0  0  0  0  0
   -1.3753    0.9512    9.5423 H   0  0  0  0  0  0  0  0  0  0  0  0
   -1.2624    2.3009   10.6235 H   0  0  0  0  0  0  0  0  0  0  0  0
   -2.8545    3.1411    9.1076 H   0  0  0  0  0  0  0  0  0  0  0  0
   -1.3967    3.8162    8.4304 H   0  0  0  0  0  0  0  0  0  0  0  0
    1.9375    0.5250    7.5822 H   0  0  0  0  0  0  0  0  0  0  0  0
  1  2  1  0
  1 30  1  0
  1 31  1  0
  1 32  1  0
  2  3  1  0
  2  4  1  0
  2  5  1  0
  3 33  1  0
  3 34  1  0
  3 35  1  0
  5 29  1  0
  5  6  2  0
  6  7  1  0
  7 28  1  0
  7  8  1  0
  8  9  2  0
  8 36  1  0
  9 10  1  0
  9 27  1  0
 10 26  1  0
 10 11  2  0
 11 12  1  0
 11 37  1  0
 12 25  2  0
 12 13  1  0
 13 14  2  0
 13 38  1  0
 14 15  1  0
 14 39  1  0
 15 16  1  0
 15 24  2  0
 16 17  1  0
 17 18  1  0
 17 40  1  0
 17 41  1  0
 18 19  1  0
 18 42  1  0
 18 43  1  0
 19 20  1  0
 19 44  1  0
 19 45  1  0
 20 21  1  0
 20 46  1  0
 20 47  1  0
 21 22  2  0
 21 23  1  0
 24 25  1  0
 24 48  1  0
 25 26  1  0
 27 28  2  0
 28 29  1  0
M  CHG  1  23  -1
M  END
>  <i_m_ct_stereo_status>  (247) 
1

>  <s_m_source_file>  (247) 
/var/tmp/pbs.5076255.sched01/tmp0eyfkrct/966b1hsbd3.sdf

>  <i_m_source_file_index>  (247) 
12

>  <i_lp_mmshare_version>  (247) 
48012

>  <i_f3d_flags>  (247) 
0

>  <s_epik_input>  (247) 
W0NIM11DKEYpKFtDSDNdKWMobjEpc2MobjEyKW5jKFtjSF0yKS1jKFtjSF0zKW9jKGMzNClbY0hdYyhbY0hdW2NIXTQpT1tDSDJdW0NIMl1bQ0gyXVtDSDJdQyg9TylbT0hd

>  <s_epik_cmdline>  (247) 
J2VwaWtfcHl0aG9uJywgJy1waHQnLCAnMi4wJywgJy1waCcsICc3LjAnLCAnLXRuJywgJzgnLCAnLW1hJywgJzIwMCcsICctaW1hZScsICc8aW5maWxlLm1hZT4nLCAnLW9tYWUnLCAnPG91dGZpbGUubWFlPic=

>  <r_lp_tautomer_probability>  (247) 
1

>  <r_epik_Ionization_Penalty>  (247) 
0.00528688

>  <r_epik_Ionization_Penalty_Charging>  (247) 
0.00528688

>  <r_epik_Ionization_Penalty_Neutral>  (247) 
3.66382e-10

>  <r_epik_State_Penalty>  (247) 
-0

>  <r_epik_Charging_Adjusted_Penalty>  (247) 
0.00528688

>  <i_epik_Tot_Q>  (247) 
-1

>  <i_epik_Tot_abs_Q>  (247) 
1

>  <s_lp_Force_Field>  (247) 
OPLS3e

>  <r_lp_Energy>  (247) 
17.4222

>  <b_lp_Chiralities_Consistent>  (247) 
1

>  <s_lp_Variant>  (247) 
70:0-1

>  <s_i_glide_gridfile>  (247) 
pfpi4k_grid

>  <i_i_glide_lignum>  (247) 
12

>  <i_i_glide_rotatable_bonds>  (247) 
8

>  <r_i_docking_score>  (247) 
-2.72733

>  <r_i_glide_ligand_efficiency>  (247) 
-0.0940458

>  <r_i_glide_ligand_efficiency_sa>  (247) 
-0.288938

>  <r_i_glide_ligand_efficiency_ln>  (247) 
-0.624489

>  <r_i_glide_gscore>  (247) 
-2.72733

>  <r_i_glide_lipo>  (247) 
-0.260979

>  <r_i_glide_hbond>  (247) 
-0.2

>  <r_i_glide_metal>  (247) 
-0

>  <r_i_glide_rewards>  (247) 
-0.981455

>  <r_i_glide_evdw>  (247) 
-25.3849

>  <r_i_glide_ecoul>  (247) 
-4.62905

>  <r_i_glide_erotb>  (247) 
0.68349

>  <r_i_glide_esite>  (247) 
-0.00478186

>  <r_i_glide_emodel>  (247) 
-35.9467

>  <r_i_glide_energy>  (247) 
-30.0139

>  <r_i_glide_einternal>  (247) 
3.03548

>  <r_i_glide_intrahb_reward>  (247) 
-0

>  <i_i_glide_confnum>  (247) 
1

>  <i_i_glide_posenum>  (247) 
3

>  <r_i_glide_eff_state_penalty>  (247) 
0

>  <ligand_id>  (247) 
70

>  <original_smiles>  (247) 
CC(C)(F)c1nn2cc(-c3cc4ccc(OCCCCC(=O)O)cc4o3)nc2s1

>  <smiles>  (247) 
[H]c1c(OC([H])([H])C([H])([H])C([H])([H])C([H])([H])C(=O)[O-])c([H])c2oc(-c3nc4sc(C(F)(C([H])([H])[H])C([H])([H])[H])nn4c3[H])c([H])c2c1[H]

$$$$
70:0:2
     RDKit          3D

 48 51  0  0  1  0  0  0  0  0999 V2000
    4.6476   -3.7506   -2.1309 C   0  0  0  0  0  0  0  0  0  0  0  0
    3.5597   -2.7524   -1.7140 C   0  0  0  0  0  0  0  0  0  0  0  0
    3.3042   -1.7022   -2.8033 C   0  0  0  0  0  0  0  0  0  0  0  0
    2.4359   -3.4517   -1.5534 F   0  0  0  0  0  0  0  0  0  0  0  0
    3.9029   -2.0963   -0.3849 C   0  0  0  0  0  0  0  0  0  0  0  0
    3.0542   -1.9734    0.6365 N   0  0  0  0  0  0  0  0  0  0  0  0
    3.6501   -1.3083    1.6529 N   0  0  0  0  0  0  0  0  0  0  0  0
    3.2458   -0.8961    2.9050 C   0  0  0  0  0  0  0  0  0  0  0  0
    4.3596   -0.2906    3.4420 C   0  0  0  0  0  0  0  0  0  0  0  0
    4.5061    0.3094    4.7526 C   0  0  0  0  0  0  0  0  0  0  0  0
    5.6021    0.8271    5.4077 C   0  0  0  0  0  0  0  0  0  0  0  0
    5.1210    1.2739    6.6859 C   0  0  0  0  0  0  0  0  0  0  0  0
    5.6378    1.8855    7.8521 C   0  0  0  0  0  0  0  0  0  0  0  0
    4.8091    2.1697    8.9616 C   0  0  0  0  0  0  0  0  0  0  0  0
    3.4401    1.8165    8.9508 C   0  0  0  0  0  0  0  0  0  0  0  0
    2.7109    2.1029   10.0832 O   0  0  0  0  0  0  0  0  0  0  0  0
    1.3898    1.5878   10.1902 C   0  0  0  0  0  0  0  0  0  0  0  0
    0.3654    2.4239    9.3836 C   0  0  0  0  0  0  0  0  0  0  0  0
   -1.0792    2.0259    9.6933 C   0  0  0  0  0  0  0  0  0  0  0  0
   -2.0782    2.8053    8.8083 C   0  0  0  0  0  0  0  0  0  0  0  0
   -2.2988    2.1969    7.4130 C   0  0  0  0  0  0  0  0  0  0  0  0
   -2.6250    2.9946    6.5015 O   0  0  0  0  0  0  0  0  0  0  0  0
   -2.1897    0.9645    7.2766 O   0  0  0  0  0  0  0  0  0  0  0  0
    2.9167    1.1817    7.7994 C   0  0  0  0  0  0  0  0  0  0  0  0
    3.7467    0.9520    6.7067 C   0  0  0  0  0  0  0  0  0  0  0  0
    3.3823    0.3688    5.5208 O   0  0  0  0  0  0  0  0  0  0  0  0
    5.4275   -0.3104    2.5541 N   0  0  0  0  0  0  0  0  0  0  0  0
    4.9571   -0.9117    1.4998 C   0  0  0  0  0  0  0  0  0  0  0  0
    5.5076   -1.3706   -0.0913 S   0  0  0  0  0  0  0  0  0  0  0  0
    5.6012   -3.2529   -2.3006 H   0  0  0  0  0  0  0  0  0  0  0  0
    4.3855   -4.2541   -3.0569 H   0  0  0  0  0  0  0  0  0  0  0  0
    4.7972   -4.5084   -1.3623 H   0  0  0  0  0  0  0  0  0  0  0  0
    4.2020   -1.1176   -3.0023 H   0  0  0  0  0  0  0  0  0  0  0  0
    2.5245   -1.0034   -2.5050 H   0  0  0  0  0  0  0  0  0  0  0  0
    2.9941   -2.1714   -3.7355 H   0  0  0  0  0  0  0  0  0  0  0  0
    2.2477   -1.0749    3.2774 H   0  0  0  0  0  0  0  0  0  0  0  0
    6.6120    0.8775    5.0311 H   0  0  0  0  0  0  0  0  0  0  0  0
    6.6909    2.1215    7.8873 H   0  0  0  0  0  0  0  0  0  0  0  0
    5.2293    2.6355    9.8464 H   0  0  0  0  0  0  0  0  0  0  0  0
    1.3644    0.5198    9.9535 H   0  0  0  0  0  0  0  0  0  0  0  0
    1.1432    1.6410   11.2505 H   0  0  0  0  0  0  0  0  0  0  0  0
    0.5156    3.4806    9.6092 H   0  0  0  0  0  0  0  0  0  0  0  0
    0.4826    2.3398    8.2997 H   0  0  0  0  0  0  0  0  0  0  0  0
   -1.1880    0.9472    9.5776 H   0  0  0  0  0  0  0  0  0  0  0  0
   -1.2987    2.2231   10.7437 H   0  0  0  0  0  0  0  0  0  0  0  0
   -3.0459    2.8446    9.3028 H   0  0  0  0  0  0  0  0  0  0  0  0
   -1.7419    3.8369    8.6994 H   0  0  0  0  0  0  0  0  0  0  0  0
    1.9004    0.8356    7.6865 H   0  0  0  0  0  0  0  0  0  0  0  0
  1  2  1  0
  1 30  1  0
  1 31  1  0
  1 32  1  0
  2  3  1  0
  2  4  1  0
  2  5  1  0
  3 33  1  0
  3 34  1  0
  3 35  1  0
  5 29  1  0
  5  6  2  0
  6  7  1  0
  7 28  1  0
  7  8  1  0
  8  9  2  0
  8 36  1  0
  9 10  1  0
  9 27  1  0
 10 26  1  0
 10 11  2  0
 11 12  1  0
 11 37  1  0
 12 25  2  0
 12 13  1  0
 13 14  2  0
 13 38  1  0
 14 15  1  0
 14 39  1  0
 15 16  1  0
 15 24  2  0
 16 17  1  0
 17 18  1  0
 17 40  1  0
 17 41  1  0
 18 19  1  0
 18 42  1  0
 18 43  1  0
 19 20  1  0
 19 44  1  0
 19 45  1  0
 20 21  1  0
 20 46  1  0
 20 47  1  0
 21 22  2  0
 21 23  1  0
 24 25  1  0
 24 48  1  0
 25 26  1  0
 27 28  2  0
 28 29  1  0
M  CHG  1  23  -1
M  END
>  <i_m_ct_stereo_status>  (248) 
1

>  <s_m_source_file>  (248) 
/var/tmp/pbs.5076255.sched01/tmp0eyfkrct/966b1hsbd3.sdf

>  <i_m_source_file_index>  (248) 
12

>  <i_lp_mmshare_version>  (248) 
48012

>  <i_f3d_flags>  (248) 
0

>  <s_epik_input>  (248) 
W0NIM11DKEYpKFtDSDNdKWMobjEpc2MobjEyKW5jKFtjSF0yKS1jKFtjSF0zKW9jKGMzNClbY0hdYyhbY0hdW2NIXTQpT1tDSDJdW0NIMl1bQ0gyXVtDSDJdQyg9TylbT0hd

>  <s_epik_cmdline>  (248) 
J2VwaWtfcHl0aG9uJywgJy1waHQnLCAnMi4wJywgJy1waCcsICc3LjAnLCAnLXRuJywgJzgnLCAnLW1hJywgJzIwMCcsICctaW1hZScsICc8aW5maWxlLm1hZT4nLCAnLW9tYWUnLCAnPG91dGZpbGUubWFlPic=

>  <r_lp_tautomer_probability>  (248) 
1

>  <r_epik_Ionization_Penalty>  (248) 
0.00528688

>  <r_epik_Ionization_Penalty_Charging>  (248) 
0.00528688

>  <r_epik_Ionization_Penalty_Neutral>  (248) 
3.66382e-10

>  <r_epik_State_Penalty>  (248) 
-0

>  <r_epik_Charging_Adjusted_Penalty>  (248) 
0.00528688

>  <i_epik_Tot_Q>  (248) 
-1

>  <i_epik_Tot_abs_Q>  (248) 
1

>  <s_lp_Force_Field>  (248) 
OPLS3e

>  <r_lp_Energy>  (248) 
17.4222

>  <b_lp_Chiralities_Consistent>  (248) 
1

>  <s_lp_Variant>  (248) 
70:0-1

>  <s_i_glide_gridfile>  (248) 
pfpi4k_grid

>  <i_i_glide_lignum>  (248) 
12

>  <i_i_glide_rotatable_bonds>  (248) 
8

>  <r_i_docking_score>  (248) 
-2.47133

>  <r_i_glide_ligand_efficiency>  (248) 
-0.0852183

>  <r_i_glide_ligand_efficiency_sa>  (248) 
-0.261818

>  <r_i_glide_ligand_efficiency_ln>  (248) 
-0.565872

>  <r_i_glide_gscore>  (248) 
-2.47133

>  <r_i_glide_lipo>  (248) 
-0.170185

>  <r_i_glide_hbond>  (248) 
-0.307439

>  <r_i_glide_metal>  (248) 
-0

>  <r_i_glide_rewards>  (248) 
-0.882365

>  <r_i_glide_evdw>  (248) 
-23.8957

>  <r_i_glide_ecoul>  (248) 
-3.86737

>  <r_i_glide_erotb>  (248) 
0.68349

>  <r_i_glide_esite>  (248) 
-0.0199427

>  <r_i_glide_emodel>  (248) 
-33.3626

>  <r_i_glide_energy>  (248) 
-27.7631

>  <r_i_glide_einternal>  (248) 
1.95874

>  <r_i_glide_intrahb_reward>  (248) 
-0

>  <i_i_glide_confnum>  (248) 
1

>  <i_i_glide_posenum>  (248) 
17

>  <r_i_glide_eff_state_penalty>  (248) 
0

>  <ligand_id>  (248) 
70

>  <original_smiles>  (248) 
CC(C)(F)c1nn2cc(-c3cc4ccc(OCCCCC(=O)O)cc4o3)nc2s1

>  <smiles>  (248) 
[H]c1c(OC([H])([H])C([H])([H])C([H])([H])C([H])([H])C(=O)[O-])c([H])c2oc(-c3nc4sc(C(F)(C([H])([H])[H])C([H])([H])[H])nn4c3[H])c([H])c2c1[H]

$$$$
71:0:0
     RDKit          3D

 78 83  0  0  1  0  0  0  0  0999 V2000
    0.6237   -5.5524    8.5511 C   0  0  0  0  0  0  0  0  0  0  0  0
    1.5316   -6.8004    8.3941 C   0  0  1  0  0  0  0  0  0  0  0  0
    2.3598   -7.0126    9.6929 C   0  0  0  0  0  0  0  0  0  0  0  0
    1.5008   -7.3759   10.9161 C   0  0  0  0  0  0  0  0  0  0  0  0
    0.4668   -8.4502   10.6014 C   0  0  0  0  0  0  0  0  0  0  0  0
   -0.0423   -9.0977   11.5138 O   0  0  0  0  0  0  0  0  0  0  0  0
    0.1102   -8.6570    9.3238 N   0  0  0  0  0  0  0  0  0  0  0  0
    0.6147   -8.0076    8.1941 C   0  0  0  0  0  0  0  0  0  0  0  0
    0.2647   -8.4572    6.9837 C   0  0  0  0  0  0  0  0  0  0  0  0
    0.6746   -7.8199    5.6749 C   0  0  0  0  0  0  0  0  0  0  0  0
    1.7483   -6.7274    5.7903 C   0  0  0  0  0  0  0  0  0  0  0  0
    2.0198   -5.8956    4.7470 C   0  0  0  0  0  0  0  0  0  0  0  0
    1.1468   -5.8745    3.4884 C   0  0  0  0  0  0  0  0  0  0  0  0
    1.9431   -5.7532    2.1966 C   0  0  0  0  0  0  0  0  0  0  0  0
    1.7016   -6.4918    1.2426 O   0  0  0  0  0  0  0  0  0  0  0  0
    2.9908   -4.6281    2.1458 C   0  0  2  0  0  0  0  0  0  0  0  0
    3.6727   -4.4417    0.7279 C   0  0  1  0  0  0  0  0  0  0  0  0
    2.6111   -4.0138   -0.3268 C   0  0  0  0  0  0  0  0  0  0  0  0
    3.1365   -3.3039   -1.5781 C   0  0  0  0  0  0  0  0  0  0  0  0
    3.9093   -2.0514   -1.2082 C   0  0  0  0  0  0  0  0  0  0  0  0
    3.8859   -1.0715   -1.9528 O   0  0  0  0  0  0  0  0  0  0  0  0
    4.7061   -2.0569    0.1235 C   0  0  0  0  0  0  0  0  0  0  0  0
    6.0171   -1.2779   -0.1784 C   0  0  0  0  0  0  0  0  0  0  0  0
    3.8973   -1.2148    1.1347 C   0  0  0  0  0  0  0  0  0  0  0  0
    4.9801   -3.5398    0.6559 C   0  0  2  0  0  0  0  0  0  0  0  0
    5.9734   -4.2541   -0.3148 C   0  0  0  0  0  0  0  0  0  0  0  0
    5.7491   -3.5626    2.0165 C   0  0  0  0  0  0  0  0  0  0  0  0
    4.9095   -3.5985    3.3020 C   0  0  0  0  0  0  0  0  0  0  0  0
    3.9483   -4.8111    3.3640 C   0  0  2  0  0  0  0  0  0  0  0  0
    4.7694   -6.1276    3.1769 C   0  0  0  0  0  0  0  0  0  0  0  0
    3.1560   -4.8505    4.7615 C   0  0  1  0  0  0  0  0  0  0  0  0
    2.4741   -3.4905    5.0724 C   0  0  0  0  0  0  0  0  0  0  0  0
    4.1408   -5.1678    5.9301 C   0  0  0  0  0  0  0  0  0  0  0  0
    3.4456   -5.4709    7.2532 C   0  0  0  0  0  0  0  0  0  0  0  0
    2.4819   -6.6731    7.1456 C   0  0  1  0  0  0  0  0  0  0  0  0
    1.1763   -4.6746    8.8875 H   0  0  0  0  0  0  0  0  0  0  0  0
   -0.1706   -5.7197    9.2792 H   0  0  0  0  0  0  0  0  0  0  0  0
    0.1370   -5.3019    7.6078 H   0  0  0  0  0  0  0  0  0  0  0  0
    3.0819   -7.8172    9.5328 H   0  0  0  0  0  0  0  0  0  0  0  0
    2.9452   -6.1249    9.9302 H   0  0  0  0  0  0  0  0  0  0  0  0
    2.1326   -7.7206   11.7340 H   0  0  0  0  0  0  0  0  0  0  0  0
    0.9681   -6.5041   11.2875 H   0  0  0  0  0  0  0  0  0  0  0  0
   -0.5332   -9.4036    9.1369 H   0  0  0  0  0  0  0  0  0  0  0  0
   -0.3984   -9.3134    6.8938 H   0  0  0  0  0  0  0  0  0  0  0  0
    1.0400   -8.6130    5.0204 H   0  0  0  0  0  0  0  0  0  0  0  0
   -0.2383   -7.4152    5.2399 H   0  0  0  0  0  0  0  0  0  0  0  0
    0.5236   -6.7619    3.4034 H   0  0  0  0  0  0  0  0  0  0  0  0
    0.4804   -5.0163    3.5487 H   0  0  0  0  0  0  0  0  0  0  0  0
    2.4248   -3.7177    2.3136 H   0  0  0  0  0  0  0  0  0  0  0  0
    3.9754   -5.4413    0.4166 H   0  0  0  0  0  0  0  0  0  0  0  0
    2.0637   -4.8876   -0.6757 H   0  0  0  0  0  0  0  0  0  0  0  0
    1.8677   -3.3577    0.1274 H   0  0  0  0  0  0  0  0  0  0  0  0
    3.7668   -3.9526   -2.1821 H   0  0  0  0  0  0  0  0  0  0  0  0
    2.3029   -3.0220   -2.2240 H   0  0  0  0  0  0  0  0  0  0  0  0
    6.6762   -1.1667    0.6809 H   0  0  0  0  0  0  0  0  0  0  0  0
    5.8059   -0.2636   -0.5207 H   0  0  0  0  0  0  0  0  0  0  0  0
    6.5928   -1.7495   -0.9753 H   0  0  0  0  0  0  0  0  0  0  0  0
    4.5019   -0.9336    1.9971 H   0  0  0  0  0  0  0  0  0  0  0  0
    3.0232   -1.7516    1.4940 H   0  0  0  0  0  0  0  0  0  0  0  0
    3.5344   -0.2844    0.6947 H   0  0  0  0  0  0  0  0  0  0  0  0
    6.9751   -3.8219   -0.2690 H   0  0  0  0  0  0  0  0  0  0  0  0
    5.6654   -4.2402   -1.3594 H   0  0  0  0  0  0  0  0  0  0  0  0
    6.1002   -5.3044   -0.0422 H   0  0  0  0  0  0  0  0  0  0  0  0
    6.4210   -4.4247    2.0489 H   0  0  0  0  0  0  0  0  0  0  0  0
    6.4263   -2.7173    2.0815 H   0  0  0  0  0  0  0  0  0  0  0  0
    5.5962   -3.6090    4.1465 H   0  0  0  0  0  0  0  0  0  0  0  0
    4.3573   -2.6674    3.3930 H   0  0  0  0  0  0  0  0  0  0  0  0
    5.6916   -6.1186    3.7619 H   0  0  0  0  0  0  0  0  0  0  0  0
    5.0795   -6.2924    2.1441 H   0  0  0  0  0  0  0  0  0  0  0  0
    4.2006   -7.0126    3.4680 H   0  0  0  0  0  0  0  0  0  0  0  0
    3.1962   -2.7150    5.3324 H   0  0  0  0  0  0  0  0  0  0  0  0
    1.7979   -3.5815    5.9237 H   0  0  0  0  0  0  0  0  0  0  0  0
    1.8645   -3.1187    4.2487 H   0  0  0  0  0  0  0  0  0  0  0  0
    4.7525   -6.0404    5.7102 H   0  0  0  0  0  0  0  0  0  0  0  0
    4.8385   -4.3441    6.0815 H   0  0  0  0  0  0  0  0  0  0  0  0
    4.2056   -5.6812    8.0047 H   0  0  0  0  0  0  0  0  0  0  0  0
    2.9380   -4.5723    7.5932 H   0  0  0  0  0  0  0  0  0  0  0  0
    3.1080   -7.5673    7.1336 H   0  0  0  0  0  0  0  0  0  0  0  0
  2  1  1  1
  1 36  1  0
  1 37  1  0
  1 38  1  0
  2  8  1  0
  2 35  1  0
  2  3  1  0
  3  4  1  0
  3 39  1  0
  3 40  1  0
  4  5  1  0
  4 41  1  0
  4 42  1  0
  5  6  2  0
  5  7  1  0
  7  8  1  0
  7 43  1  0
  8  9  2  0
  9 10  1  0
  9 44  1  0
 10 11  1  0
 10 45  1  0
 10 46  1  0
 11 35  1  0
 11 12  2  0
 12 31  1  0
 12 13  1  0
 13 14  1  0
 13 47  1  0
 13 48  1  0
 14 15  2  0
 14 16  1  0
 16 29  1  0
 16 17  1  0
 16 49  1  1
 17 25  1  0
 17 18  1  0
 17 50  1  6
 18 19  1  0
 18 51  1  0
 18 52  1  0
 19 20  1  0
 19 53  1  0
 19 54  1  0
 20 21  2  0
 20 22  1  0
 22 23  1  0
 22 24  1  0
 22 25  1  0
 23 55  1  0
 23 56  1  0
 23 57  1  0
 24 58  1  0
 24 59  1  0
 24 60  1  0
 25 26  1  6
 25 27  1  0
 26 61  1  0
 26 62  1  0
 26 63  1  0
 27 28  1  0
 27 64  1  0
 27 65  1  0
 28 29  1  0
 28 66  1  0
 28 67  1  0
 29 30  1  6
 29 31  1  0
 30 68  1  0
 30 69  1  0
 30 70  1  0
 31 32  1  1
 31 33  1  0
 32 71  1  0
 32 72  1  0
 32 73  1  0
 33 34  1  0
 33 74  1  0
 33 75  1  0
 34 35  1  0
 34 76  1  0
 34 77  1  0
 35 78  1  6
M  END
>  <i_m_ct_stereo_status>  (249) 
1

>  <s_m_source_file>  (249) 
/var/tmp/pbs.5076255.sched01/tmp0eyfkrct/966b1hsbd3.sdf

>  <i_m_source_file_index>  (249) 
13

>  <i_lp_mmshare_version>  (249) 
48012

>  <i_f3d_flags>  (249) 
0

>  <s_epik_input>  (249) 
W0NIMl0xW0NIMl1DKD1PKVtOSF1DKFtDQEBdMTJbQ0gzXSk9W0NIXVtDSDJdQzM9QzRbQ0BAXShbQ0gzXSkoW0NIMl1bQ0gyXVtDQEBIXTIzKVtDQEBdNShbQ0gzXSlbQ0BIXShDKD1PKVtDSDJdNClbQ0BASF02W0NAXShbQ0gzXSkoW0NIMl1bQ0gyXTUpQyhbQ0gzXSkoW0NIM10pQyg9TylbQ0gyXVtDSDJdNg==

>  <s_epik_cmdline>  (249) 
J2VwaWtfcHl0aG9uJywgJy1waHQnLCAnMi4wJywgJy1waCcsICc3LjAnLCAnLXRuJywgJzgnLCAnLW1hJywgJzIwMCcsICctaW1hZScsICc8aW5maWxlLm1hZT4nLCAnLW9tYWUnLCAnPG91dGZpbGUubWFlPic=

>  <r_lp_tautomer_probability>  (249) 
1

>  <r_epik_Ionization_Penalty>  (249) 
1.7679e-08

>  <r_epik_Ionization_Penalty_Charging>  (249) 
0

>  <r_epik_Ionization_Penalty_Neutral>  (249) 
1.7679e-08

>  <r_epik_State_Penalty>  (249) 
-0

>  <r_epik_Charging_Adjusted_Penalty>  (249) 
0

>  <i_epik_Tot_Q>  (249) 
0

>  <i_epik_Tot_abs_Q>  (249) 
0

>  <s_lp_Force_Field>  (249) 
OPLS3e

>  <r_lp_Energy>  (249) 
81.4976

>  <b_lp_Chiralities_Consistent>  (249) 
1

>  <s_lp_Variant>  (249) 
71:0-1

>  <s_i_glide_gridfile>  (249) 
pfpi4k_grid

>  <i_i_glide_lignum>  (249) 
13

>  <i_i_glide_rotatable_bonds>  (249) 
0

>  <r_i_docking_score>  (249) 
-2.1908

>  <r_i_glide_ligand_efficiency>  (249) 
-0.0625943

>  <r_i_glide_ligand_efficiency_sa>  (249) 
-0.20475

>  <r_i_glide_ligand_efficiency_ln>  (249) 
-0.480929

>  <r_i_glide_gscore>  (249) 
-2.1908

>  <r_i_glide_lipo>  (249) 
-0.252806

>  <r_i_glide_hbond>  (249) 
0

>  <r_i_glide_metal>  (249) 
-0

>  <r_i_glide_rewards>  (249) 
-0.152195

>  <r_i_glide_evdw>  (249) 
-30.1957

>  <r_i_glide_ecoul>  (249) 
-0.873134

>  <r_i_glide_erotb>  (249) 
0

>  <r_i_glide_esite>  (249) 
-0.145042

>  <r_i_glide_emodel>  (249) 
-34.6852

>  <r_i_glide_energy>  (249) 
-31.0688

>  <r_i_glide_einternal>  (249) 
0

>  <r_i_glide_intrahb_reward>  (249) 
-0

>  <i_i_glide_confnum>  (249) 
2

>  <i_i_glide_posenum>  (249) 
1

>  <r_i_glide_eff_state_penalty>  (249) 
0

>  <ligand_id>  (249) 
71

>  <original_smiles>  (249) 
CC12CCC(=O)NC1=CCC1=C3CC(=O)C4C5CCC(=O)C(C)(C)C5(C)CCC4(C)C3(C)CCC12

>  <smiles>  (249) 
[H]C1=C2N([H])C(=O)C([H])([H])C([H])([H])C2(C([H])([H])[H])C2([H])C(=C3C([H])([H])C(=O)C4([H])C5([H])C([H])([H])C([H])([H])C(=O)C(C([H])([H])[H])(C([H])([H])[H])C5(C([H])([H])[H])C([H])([H])C([H])([H])C4(C([H])([H])[H])C3(C([H])([H])[H])C([H])([H])C2([H])[H])C1([H])[H]

$$$$
73:0:0
     RDKit          3D

 34 36  0  0  1  0  0  0  0  0999 V2000
    2.5375   -8.8862    3.3659 C   0  0  0  0  0  0  0  0  0  0  0  0
    1.7320   -8.3012    2.2008 C   0  0  2  0  0  0  0  0  0  0  0  0
    2.3113   -6.9889    1.6893 C   0  0  0  0  0  0  0  0  0  0  0  0
    1.6420   -5.8336    1.7159 N   0  0  0  0  0  0  0  0  0  0  0  0
    2.3559   -4.7604    1.2331 N   0  0  0  0  0  0  0  0  0  0  0  0
    3.5623   -5.1093    0.7986 C   0  0  0  0  0  0  0  0  0  0  0  0
    4.4732   -4.0852    0.2010 C   0  0  0  0  0  0  0  0  0  0  0  0
    4.8709   -3.0001    1.2268 C   0  0  0  0  0  0  0  0  0  0  0  0
    5.7768   -1.9303    0.5965 C   0  0  0  0  0  0  0  0  0  0  0  0
    5.1313   -1.3155   -0.6551 C   0  0  0  0  0  0  0  0  0  0  0  0
    4.7688   -2.3932   -1.6854 C   0  0  0  0  0  0  0  0  0  0  0  0
    3.8526   -3.4562   -1.0666 C   0  0  0  0  0  0  0  0  0  0  0  0
    3.9450   -6.8300    0.9940 S   0  0  0  0  0  0  0  0  0  0  0  0
    0.2916   -8.2742    2.5499 N   0  0  0  0  0  0  0  0  0  0  0  0
   -0.6057   -9.2579    2.4785 C   0  0  0  0  0  0  0  0  0  0  0  0
   -1.8126   -8.8391    2.8323 N   0  0  0  0  0  0  0  0  0  0  0  0
   -1.6100   -7.5521    3.2475 N   0  0  0  0  0  0  0  0  0  0  0  0
   -0.3589   -7.2369    3.1428 N   0  0  0  0  0  0  0  0  0  0  0  0
    3.5783   -9.0684    3.0914 H   0  0  0  0  0  0  0  0  0  0  0  0
    2.1251   -9.8488    3.6673 H   0  0  0  0  0  0  0  0  0  0  0  0
    2.5235   -8.2333    4.2376 H   0  0  0  0  0  0  0  0  0  0  0  0
    1.8382   -8.9840    1.3616 H   0  0  0  0  0  0  0  0  0  0  0  0
    5.3811   -4.6128   -0.1008 H   0  0  0  0  0  0  0  0  0  0  0  0
    3.9732   -2.5108    1.6156 H   0  0  0  0  0  0  0  0  0  0  0  0
    5.3657   -3.4581    2.0851 H   0  0  0  0  0  0  0  0  0  0  0  0
    5.9820   -1.1489    1.3278 H   0  0  0  0  0  0  0  0  0  0  0  0
    6.7374   -2.3750    0.3361 H   0  0  0  0  0  0  0  0  0  0  0  0
    4.2346   -0.7613   -0.3739 H   0  0  0  0  0  0  0  0  0  0  0  0
    5.8075   -0.5927   -1.1045 H   0  0  0  0  0  0  0  0  0  0  0  0
    4.2652   -1.9393   -2.5387 H   0  0  0  0  0  0  0  0  0  0  0  0
    5.6724   -2.8691   -2.0680 H   0  0  0  0  0  0  0  0  0  0  0  0
    3.6495   -4.2368   -1.7975 H   0  0  0  0  0  0  0  0  0  0  0  0
    2.8881   -2.9933   -0.8297 H   0  0  0  0  0  0  0  0  0  0  0  0
   -0.4083  -10.2544    2.1323 H   0  0  0  0  0  0  0  0  0  0  0  0
  1  2  1  0
  1 19  1  0
  1 20  1  0
  1 21  1  0
  2  3  1  0
  2 14  1  0
  2 22  1  6
  3 13  1  0
  3  4  2  0
  4  5  1  0
  5  6  2  0
  6  7  1  0
  6 13  1  0
  7 12  1  0
  7  8  1  0
  7 23  1  0
  8  9  1  0
  8 24  1  0
  8 25  1  0
  9 10  1  0
  9 26  1  0
  9 27  1  0
 10 11  1  0
 10 28  1  0
 10 29  1  0
 11 12  1  0
 11 30  1  0
 11 31  1  0
 12 32  1  0
 12 33  1  0
 14 18  1  0
 14 15  1  0
 15 16  2  0
 15 34  1  0
 16 17  1  0
 17 18  2  0
M  END
>  <i_m_ct_stereo_status>  (250) 
1

>  <s_m_source_file>  (250) 
/var/tmp/pbs.5076255.sched01/tmp0eyfkrct/966b1hsbd3.sdf

>  <i_m_source_file_index>  (250) 
15

>  <i_lp_mmshare_version>  (250) 
48012

>  <i_f3d_flags>  (250) 
0

>  <s_epik_input>  (250) 
bjFubltjSF1uMVtDQEhdKFtDSDNdKWMybm5jKHMyKVtDSF0zW0NIMl1bQ0gyXVtDSDJdW0NIMl1bQ0gyXTM=

>  <s_epik_cmdline>  (250) 
J2VwaWtfcHl0aG9uJywgJy1waHQnLCAnMi4wJywgJy1waCcsICc3LjAnLCAnLXRuJywgJzgnLCAnLW1hJywgJzIwMCcsICctaW1hZScsICc8aW5maWxlLm1hZT4nLCAnLW9tYWUnLCAnPG91dGZpbGUubWFlPic=

>  <r_lp_tautomer_probability>  (250) 
1

>  <r_epik_Ionization_Penalty>  (250) 
1.45235e-07

>  <r_epik_Ionization_Penalty_Charging>  (250) 
0

>  <r_epik_Ionization_Penalty_Neutral>  (250) 
1.45235e-07

>  <r_epik_State_Penalty>  (250) 
-0

>  <r_epik_Charging_Adjusted_Penalty>  (250) 
0

>  <i_epik_Tot_Q>  (250) 
0

>  <i_epik_Tot_abs_Q>  (250) 
0

>  <s_lp_Force_Field>  (250) 
OPLS3e

>  <r_lp_Energy>  (250) 
9.79039

>  <b_lp_Chiralities_Consistent>  (250) 
1

>  <s_lp_Variant>  (250) 
73:0-1

>  <s_i_glide_gridfile>  (250) 
pfpi4k_grid

>  <i_i_glide_lignum>  (250) 
15

>  <i_i_glide_rotatable_bonds>  (250) 
3

>  <r_i_docking_score>  (250) 
-3.40759

>  <r_i_glide_ligand_efficiency>  (250) 
-0.189311

>  <r_i_glide_ligand_efficiency_sa>  (250) 
-0.496134

>  <r_i_glide_ligand_efficiency_ln>  (250) 
-0.875904

>  <r_i_glide_gscore>  (250) 
-3.40759

>  <r_i_glide_lipo>  (250) 
-0.240075

>  <r_i_glide_hbond>  (250) 
0

>  <r_i_glide_metal>  (250) 
-0

>  <r_i_glide_rewards>  (250) 
-1.73519

>  <r_i_glide_evdw>  (250) 
-26.6432

>  <r_i_glide_ecoul>  (250) 
-3.9196

>  <r_i_glide_erotb>  (250) 
0.763109

>  <r_i_glide_esite>  (250) 
-0.275333

>  <r_i_glide_emodel>  (250) 
-35.5284

>  <r_i_glide_energy>  (250) 
-30.5628

>  <r_i_glide_einternal>  (250) 
3.09746

>  <r_i_glide_intrahb_reward>  (250) 
-0

>  <i_i_glide_confnum>  (250) 
4

>  <i_i_glide_posenum>  (250) 
15

>  <r_i_glide_eff_state_penalty>  (250) 
0

>  <ligand_id>  (250) 
73

>  <original_smiles>  (250) 
CC(c1nnc(C2CCCCC2)s1)n1cnnn1

>  <smiles>  (250) 
[H]c1nnnn1C([H])(c1nnc(C2([H])C([H])([H])C([H])([H])C([H])([H])C([H])([H])C2([H])[H])s1)C([H])([H])[H]

$$$$
73:0:1
     RDKit          3D

 34 36  0  0  1  0  0  0  0  0999 V2000
    3.5147   -7.1558    3.6576 C   0  0  0  0  0  0  0  0  0  0  0  0
    3.1604   -7.3108    2.1639 C   0  0  2  0  0  0  0  0  0  0  0  0
    3.9366   -6.3436    1.2844 C   0  0  0  0  0  0  0  0  0  0  0  0
    5.2037   -6.5411    0.8987 N   0  0  0  0  0  0  0  0  0  0  0  0
    5.7025   -5.5095    0.0872 N   0  0  0  0  0  0  0  0  0  0  0  0
    4.7946   -4.5574   -0.1232 C   0  0  0  0  0  0  0  0  0  0  0  0
    4.9439   -3.3500   -1.0031 C   0  0  0  0  0  0  0  0  0  0  0  0
    4.5199   -2.0877   -0.2193 C   0  0  0  0  0  0  0  0  0  0  0  0
    4.6281   -0.8298   -1.0696 C   0  0  0  0  0  0  0  0  0  0  0  0
    3.8172   -0.9475   -2.3713 C   0  0  0  0  0  0  0  0  0  0  0  0
    4.2300   -2.1863   -3.1714 C   0  0  0  0  0  0  0  0  0  0  0  0
    4.1201   -3.4663   -2.3154 C   0  0  0  0  0  0  0  0  0  0  0  0
    3.3115   -4.7938    0.7705 S   0  0  0  0  0  0  0  0  0  0  0  0
    1.6742   -7.3927    1.9836 N   0  0  0  0  0  0  0  0  0  0  0  0
    0.8166   -8.3604    2.3359 C   0  0  0  0  0  0  0  0  0  0  0  0
   -0.4369   -8.0322    2.1074 N   0  0  0  0  0  0  0  0  0  0  0  0
   -0.3402   -6.7977    1.5158 N   0  0  0  0  0  0  0  0  0  0  0  0
    0.9196   -6.3746    1.4996 N   0  0  0  0  0  0  0  0  0  0  0  0
    4.5793   -7.2995    3.8566 H   0  0  0  0  0  0  0  0  0  0  0  0
    3.0063   -7.9011    4.2642 H   0  0  0  0  0  0  0  0  0  0  0  0
    3.2322   -6.1797    4.0472 H   0  0  0  0  0  0  0  0  0  0  0  0
    3.5476   -8.2896    1.8849 H   0  0  0  0  0  0  0  0  0  0  0  0
    5.9982   -3.2559   -1.2818 H   0  0  0  0  0  0  0  0  0  0  0  0
    3.4789   -2.1347    0.1108 H   0  0  0  0  0  0  0  0  0  0  0  0
    5.1220   -1.9917    0.6851 H   0  0  0  0  0  0  0  0  0  0  0  0
    4.2698    0.0136   -0.4774 H   0  0  0  0  0  0  0  0  0  0  0  0
    5.6741   -0.6430   -1.2967 H   0  0  0  0  0  0  0  0  0  0  0  0
    2.7522   -1.0000   -2.1410 H   0  0  0  0  0  0  0  0  0  0  0  0
    3.9557   -0.0462   -2.9698 H   0  0  0  0  0  0  0  0  0  0  0  0
    3.6006   -2.2744   -4.0577 H   0  0  0  0  0  0  0  0  0  0  0  0
    5.2554   -2.0847   -3.5176 H   0  0  0  0  0  0  0  0  0  0  0  0
    4.4649   -4.3006   -2.9127 H   0  0  0  0  0  0  0  0  0  0  0  0
    3.0588   -3.6286   -2.1038 H   0  0  0  0  0  0  0  0  0  0  0  0
    1.0797   -9.2972    2.8170 H   0  0  0  0  0  0  0  0  0  0  0  0
  1  2  1  0
  1 19  1  0
  1 20  1  0
  1 21  1  0
  2  3  1  0
  2 14  1  0
  2 22  1  6
  3 13  1  0
  3  4  2  0
  4  5  1  0
  5  6  2  0
  6  7  1  0
  6 13  1  0
  7 12  1  0
  7  8  1  0
  7 23  1  0
  8  9  1  0
  8 24  1  0
  8 25  1  0
  9 10  1  0
  9 26  1  0
  9 27  1  0
 10 11  1  0
 10 28  1  0
 10 29  1  0
 11 12  1  0
 11 30  1  0
 11 31  1  0
 12 32  1  0
 12 33  1  0
 14 18  1  0
 14 15  1  0
 15 16  2  0
 15 34  1  0
 16 17  1  0
 17 18  2  0
M  END
>  <i_m_ct_stereo_status>  (251) 
1

>  <s_m_source_file>  (251) 
/var/tmp/pbs.5076255.sched01/tmp0eyfkrct/966b1hsbd3.sdf

>  <i_m_source_file_index>  (251) 
15

>  <i_lp_mmshare_version>  (251) 
48012

>  <i_f3d_flags>  (251) 
0

>  <s_epik_input>  (251) 
bjFubltjSF1uMVtDQEhdKFtDSDNdKWMybm5jKHMyKVtDSF0zW0NIMl1bQ0gyXVtDSDJdW0NIMl1bQ0gyXTM=

>  <s_epik_cmdline>  (251) 
J2VwaWtfcHl0aG9uJywgJy1waHQnLCAnMi4wJywgJy1waCcsICc3LjAnLCAnLXRuJywgJzgnLCAnLW1hJywgJzIwMCcsICctaW1hZScsICc8aW5maWxlLm1hZT4nLCAnLW9tYWUnLCAnPG91dGZpbGUubWFlPic=

>  <r_lp_tautomer_probability>  (251) 
1

>  <r_epik_Ionization_Penalty>  (251) 
1.45235e-07

>  <r_epik_Ionization_Penalty_Charging>  (251) 
0

>  <r_epik_Ionization_Penalty_Neutral>  (251) 
1.45235e-07

>  <r_epik_State_Penalty>  (251) 
-0

>  <r_epik_Charging_Adjusted_Penalty>  (251) 
0

>  <i_epik_Tot_Q>  (251) 
0

>  <i_epik_Tot_abs_Q>  (251) 
0

>  <s_lp_Force_Field>  (251) 
OPLS3e

>  <r_lp_Energy>  (251) 
9.79039

>  <b_lp_Chiralities_Consistent>  (251) 
1

>  <s_lp_Variant>  (251) 
73:0-1

>  <s_i_glide_gridfile>  (251) 
pfpi4k_grid

>  <i_i_glide_lignum>  (251) 
15

>  <i_i_glide_rotatable_bonds>  (251) 
3

>  <r_i_docking_score>  (251) 
-3.11043

>  <r_i_glide_ligand_efficiency>  (251) 
-0.172801

>  <r_i_glide_ligand_efficiency_sa>  (251) 
-0.452868

>  <r_i_glide_ligand_efficiency_ln>  (251) 
-0.799519

>  <r_i_glide_gscore>  (251) 
-3.11043

>  <r_i_glide_lipo>  (251) 
-0.294733

>  <r_i_glide_hbond>  (251) 
0

>  <r_i_glide_metal>  (251) 
-0

>  <r_i_glide_rewards>  (251) 
-1.6067

>  <r_i_glide_evdw>  (251) 
-24.3799

>  <r_i_glide_ecoul>  (251) 
-2.91158

>  <r_i_glide_erotb>  (251) 
0.763109

>  <r_i_glide_esite>  (251) 
-0.316373

>  <r_i_glide_emodel>  (251) 
-30.875

>  <r_i_glide_energy>  (251) 
-27.2914

>  <r_i_glide_einternal>  (251) 
3.49215

>  <r_i_glide_intrahb_reward>  (251) 
-0

>  <i_i_glide_confnum>  (251) 
5

>  <i_i_glide_posenum>  (251) 
12

>  <r_i_glide_eff_state_penalty>  (251) 
0

>  <ligand_id>  (251) 
73

>  <original_smiles>  (251) 
CC(c1nnc(C2CCCCC2)s1)n1cnnn1

>  <smiles>  (251) 
[H]c1nnnn1C([H])(c1nnc(C2([H])C([H])([H])C([H])([H])C([H])([H])C([H])([H])C2([H])[H])s1)C([H])([H])[H]

$$$$
73:0:2
     RDKit          3D

 34 36  0  0  1  0  0  0  0  0999 V2000
    6.2371   -5.4569    3.4990 C   0  0  0  0  0  0  0  0  0  0  0  0
    6.6782   -5.6937    2.0489 C   0  0  2  0  0  0  0  0  0  0  0  0
    5.9985   -4.8313    1.0560 C   0  0  0  0  0  0  0  0  0  0  0  0
    4.6658   -4.7832    0.9412 N   0  0  0  0  0  0  0  0  0  0  0  0
    4.2682   -3.9176   -0.0423 N   0  0  0  0  0  0  0  0  0  0  0  0
    5.2944   -3.4070   -0.7287 C   0  0  0  0  0  0  0  0  0  0  0  0
    5.0555   -2.4780   -1.8859 C   0  0  0  0  0  0  0  0  0  0  0  0
    4.4475   -1.1348   -1.4619 C   0  0  0  0  0  0  0  0  0  0  0  0
    4.1394   -0.2932   -2.6808 C   0  0  0  0  0  0  0  0  0  0  0  0
    3.2602   -0.8764   -3.7363 C   0  0  0  0  0  0  0  0  0  0  0  0
    3.8975   -2.1650   -4.1768 C   0  0  0  0  0  0  0  0  0  0  0  0
    4.2194   -3.1276   -3.0125 C   0  0  0  0  0  0  0  0  0  0  0  0
    6.8809   -3.8022   -0.0632 S   0  0  0  0  0  0  0  0  0  0  0  0
    6.5419   -7.0993    1.7276 N   0  0  0  0  0  0  0  0  0  0  0  0
    7.4536   -8.0064    1.4607 C   0  0  0  0  0  0  0  0  0  0  0  0
    6.9257   -9.2070    1.3026 N   0  0  0  0  0  0  0  0  0  0  0  0
    5.5805   -8.9836    1.5245 N   0  0  0  0  0  0  0  0  0  0  0  0
    5.3397   -7.7373    1.7858 N   0  0  0  0  0  0  0  0  0  0  0  0
    6.3033   -4.4241    3.7946 H   0  0  0  0  0  0  0  0  0  0  0  0
    6.8443   -6.0461    4.1903 H   0  0  0  0  0  0  0  0  0  0  0  0
    5.1778   -5.6471    3.6583 H   0  0  0  0  0  0  0  0  0  0  0  0
    7.7392   -5.4567    1.9638 H   0  0  0  0  0  0  0  0  0  0  0  0
    6.0288   -2.2518   -2.3183 H   0  0  0  0  0  0  0  0  0  0  0  0
    3.5059   -1.2757   -0.9458 H   0  0  0  0  0  0  0  0  0  0  0  0
    5.1195   -0.5953   -0.7801 H   0  0  0  0  0  0  0  0  0  0  0  0
    3.8090    0.7216   -2.4659 H   0  0  0  0  0  0  0  0  0  0  0  0
    5.0444   -0.0764   -3.1496 H   0  0  0  0  0  0  0  0  0  0  0  0
    2.2876   -1.0449   -3.3086 H   0  0  0  0  0  0  0  0  0  0  0  0
    3.1817   -0.1800   -4.5824 H   0  0  0  0  0  0  0  0  0  0  0  0
    3.2609   -2.6711   -4.9042 H   0  0  0  0  0  0  0  0  0  0  0  0
    4.7955   -1.8205   -4.6714 H   0  0  0  0  0  0  0  0  0  0  0  0
    4.7159   -4.0187   -3.3950 H   0  0  0  0  0  0  0  0  0  0  0  0
    3.2525   -3.4246   -2.6094 H   0  0  0  0  0  0  0  0  0  0  0  0
    8.5276   -7.8421    1.3975 H   0  0  0  0  0  0  0  0  0  0  0  0
  1  2  1  0
  1 19  1  0
  1 20  1  0
  1 21  1  0
  2  3  1  0
  2 14  1  0
  2 22  1  1
  3 13  1  0
  3  4  2  0
  4  5  1  0
  5  6  2  0
  6  7  1  0
  6 13  1  0
  7 12  1  0
  7  8  1  0
  7 23  1  0
  8  9  1  0
  8 24  1  0
  8 25  1  0
  9 10  1  0
  9 26  1  0
  9 27  1  0
 10 11  1  0
 10 28  1  0
 10 29  1  0
 11 12  1  0
 11 30  1  0
 11 31  1  0
 12 32  1  0
 12 33  1  0
 14 18  1  0
 14 15  1  0
 15 16  2  0
 15 34  1  0
 16 17  1  0
 17 18  2  0
M  END
>  <i_m_ct_stereo_status>  (252) 
1

>  <s_m_source_file>  (252) 
/var/tmp/pbs.5076255.sched01/tmp0eyfkrct/966b1hsbd3.sdf

>  <i_m_source_file_index>  (252) 
15

>  <i_lp_mmshare_version>  (252) 
48012

>  <i_f3d_flags>  (252) 
0

>  <s_epik_input>  (252) 
bjFubltjSF1uMVtDQEhdKFtDSDNdKWMybm5jKHMyKVtDSF0zW0NIMl1bQ0gyXVtDSDJdW0NIMl1bQ0gyXTM=

>  <s_epik_cmdline>  (252) 
J2VwaWtfcHl0aG9uJywgJy1waHQnLCAnMi4wJywgJy1waCcsICc3LjAnLCAnLXRuJywgJzgnLCAnLW1hJywgJzIwMCcsICctaW1hZScsICc8aW5maWxlLm1hZT4nLCAnLW9tYWUnLCAnPG91dGZpbGUubWFlPic=

>  <r_lp_tautomer_probability>  (252) 
1

>  <r_epik_Ionization_Penalty>  (252) 
1.45235e-07

>  <r_epik_Ionization_Penalty_Charging>  (252) 
0

>  <r_epik_Ionization_Penalty_Neutral>  (252) 
1.45235e-07

>  <r_epik_State_Penalty>  (252) 
-0

>  <r_epik_Charging_Adjusted_Penalty>  (252) 
0

>  <i_epik_Tot_Q>  (252) 
0

>  <i_epik_Tot_abs_Q>  (252) 
0

>  <s_lp_Force_Field>  (252) 
OPLS3e

>  <r_lp_Energy>  (252) 
9.79039

>  <b_lp_Chiralities_Consistent>  (252) 
1

>  <s_lp_Variant>  (252) 
73:0-1

>  <s_i_glide_gridfile>  (252) 
pfpi4k_grid

>  <i_i_glide_lignum>  (252) 
15

>  <i_i_glide_rotatable_bonds>  (252) 
3

>  <r_i_docking_score>  (252) 
-2.48369

>  <r_i_glide_ligand_efficiency>  (252) 
-0.137983

>  <r_i_glide_ligand_efficiency_sa>  (252) 
-0.361617

>  <r_i_glide_ligand_efficiency_ln>  (252) 
-0.63842

>  <r_i_glide_gscore>  (252) 
-2.48369

>  <r_i_glide_lipo>  (252) 
-0.808214

>  <r_i_glide_hbond>  (252) 
0

>  <r_i_glide_metal>  (252) 
-0

>  <r_i_glide_rewards>  (252) 
-1.73636

>  <r_i_glide_evdw>  (252) 
-14.251

>  <r_i_glide_ecoul>  (252) 
0.0688474

>  <r_i_glide_erotb>  (252) 
0.763109

>  <r_i_glide_esite>  (252) 
0

>  <r_i_glide_emodel>  (252) 
-17.5322

>  <r_i_glide_energy>  (252) 
-14.1822

>  <r_i_glide_einternal>  (252) 
1.87523

>  <r_i_glide_intrahb_reward>  (252) 
-0

>  <i_i_glide_confnum>  (252) 
4

>  <i_i_glide_posenum>  (252) 
1

>  <r_i_glide_eff_state_penalty>  (252) 
0

>  <ligand_id>  (252) 
73

>  <original_smiles>  (252) 
CC(c1nnc(C2CCCCC2)s1)n1cnnn1

>  <smiles>  (252) 
[H]c1nnnn1C([H])(c1nnc(C2([H])C([H])([H])C([H])([H])C([H])([H])C([H])([H])C2([H])[H])s1)C([H])([H])[H]

$$$$
74:0:0
     RDKit          3D

 36 39  0  0  1  0  0  0  0  0999 V2000
    3.6491   -2.9331   -2.8738 C   0  0  0  0  0  0  0  0  0  0  0  0
    4.4130   -2.0626   -1.8222 C   0  0  0  0  0  0  0  0  0  0  0  0
    4.3741   -0.6977   -2.5698 C   0  0  0  0  0  0  0  0  0  0  0  0
    3.6361   -1.9862   -0.4767 C   0  0  2  0  0  0  0  0  0  0  0  0
    4.4301   -0.9523    0.2913 C   0  0  0  0  0  0  0  0  0  0  0  0
    5.8567   -1.3720   -0.0101 C   0  0  0  0  0  0  0  0  0  0  0  0
    5.9423   -2.2093   -1.3493 C   0  0  2  0  0  0  0  0  0  0  0  0
    7.2341   -3.0598   -0.9142 C   0  0  0  0  0  0  0  0  0  0  0  0
    7.2673   -4.0054    0.3606 C   0  0  0  0  0  0  0  0  0  0  0  0
    5.9582   -4.5102    1.0418 C   0  0  1  0  0  0  0  0  0  0  0  0
    5.8061   -3.8641    2.2967 O   0  0  0  0  0  0  0  0  0  0  0  0
    4.6952   -4.3314    0.2039 C   0  0  1  0  0  0  0  0  0  0  0  0
    4.8875   -4.5554   -1.1480 O   0  0  0  0  0  0  0  0  0  0  0  0
    5.8697   -3.5983   -1.7801 O   0  0  0  0  0  0  0  0  0  0  0  0
    3.4828   -5.2018    0.5595 C   0  0  0  0  0  0  0  0  0  0  0  0
    3.2931   -6.3661    0.9012 O   0  0  0  0  0  0  0  0  0  0  0  0
    2.6026   -4.2284    0.2059 O   0  0  0  0  0  0  0  0  0  0  0  0
    3.6533   -3.2445    0.3977 C   0  0  2  0  0  0  0  0  0  0  0  0
    2.7386   -2.4165   -3.1732 H   0  0  0  0  0  0  0  0  0  0  0  0
    3.2439   -3.8546   -2.4799 H   0  0  0  0  0  0  0  0  0  0  0  0
    4.2150   -3.1359   -3.7827 H   0  0  0  0  0  0  0  0  0  0  0  0
    5.0029    0.0674   -2.1247 H   0  0  0  0  0  0  0  0  0  0  0  0
    3.3643   -0.2889   -2.6299 H   0  0  0  0  0  0  0  0  0  0  0  0
    4.7315   -0.8012   -3.5925 H   0  0  0  0  0  0  0  0  0  0  0  0
    2.6193   -1.6474   -0.6209 H   0  0  0  0  0  0  0  0  0  0  0  0
    4.2221    0.0519   -0.0698 H   0  0  0  0  0  0  0  0  0  0  0  0
    4.2262   -0.9399    1.3616 H   0  0  0  0  0  0  0  0  0  0  0  0
    6.4344   -0.4618   -0.1452 H   0  0  0  0  0  0  0  0  0  0  0  0
    6.2803   -1.8123    0.8876 H   0  0  0  0  0  0  0  0  0  0  0  0
    7.8688   -3.4856   -1.7151 H   0  0  0  0  0  0  0  0  0  0  0  0
    7.9601   -2.2940   -0.6386 H   0  0  0  0  0  0  0  0  0  0  0  0
    7.8264   -4.8920    0.0672 H   0  0  0  0  0  0  0  0  0  0  0  0
    7.9108   -3.5573    1.1204 H   0  0  0  0  0  0  0  0  0  0  0  0
    6.1035   -5.5649    1.2879 H   0  0  0  0  0  0  0  0  0  0  0  0
    5.1179   -4.2876    2.7862 H   0  0  0  0  0  0  0  0  0  0  0  0
    3.6291   -2.9612    1.4490 H   0  0  0  0  0  0  0  0  0  0  0  0
  1  2  1  0
  1 19  1  0
  1 20  1  0
  1 21  1  0
  2  7  1  0
  2  3  1  0
  2  4  1  0
  3 22  1  0
  3 23  1  0
  3 24  1  0
  4 18  1  0
  4  5  1  0
  4 25  1  6
  5  6  1  0
  5 26  1  0
  5 27  1  0
  7  6  1  1
  6 28  1  0
  6 29  1  0
  7 14  1  0
  7  8  1  0
  8  9  1  0
  8 30  1  0
  8 31  1  0
  9 10  1  0
  9 32  1  0
  9 33  1  0
 10 11  1  0
 10 12  1  0
 10 34  1  1
 11 35  1  0
 12 18  1  0
 12 13  1  0
 12 15  1  1
 13 14  1  0
 15 16  2  0
 15 17  1  0
 17 18  1  0
 18 36  1  1
M  END
>  <i_m_ct_stereo_status>  (253) 
1

>  <s_m_source_file>  (253) 
/var/tmp/pbs.5076255.sched01/tmp0eyfkrct/966b1hsbd3.sdf

>  <i_m_source_file_index>  (253) 
16

>  <i_lp_mmshare_version>  (253) 
48012

>  <i_f3d_flags>  (253) 
0

>  <s_epik_input>  (253) 
W0NIM11DKEMxMjMpKFtDSDNdKVtDQEhdKFtDSDJdW0NIMl0xKVtDQEBIXTRbQ0BdKE9PMykoQyg9TylPNClbQ0BIXShbT0hdKVtDSDJdW0NIMl0y

>  <s_epik_cmdline>  (253) 
J2VwaWtfcHl0aG9uJywgJy1waHQnLCAnMi4wJywgJy1waCcsICc3LjAnLCAnLXRuJywgJzgnLCAnLW1hJywgJzIwMCcsICctaW1hZScsICc8aW5maWxlLm1hZT4nLCAnLW9tYWUnLCAnPG91dGZpbGUubWFlPic=

>  <r_lp_tautomer_probability>  (253) 
1

>  <r_epik_Ionization_Penalty>  (253) 
5.00197e-07

>  <r_epik_Ionization_Penalty_Charging>  (253) 
0

>  <r_epik_Ionization_Penalty_Neutral>  (253) 
5.00197e-07

>  <r_epik_State_Penalty>  (253) 
-0

>  <r_epik_Charging_Adjusted_Penalty>  (253) 
0

>  <i_epik_Tot_Q>  (253) 
0

>  <i_epik_Tot_abs_Q>  (253) 
0

>  <s_epik_Chemistry_Notes>  (253) 
This compound has an ester and may undergo hydrolysis at high or low pH.

>  <s_lp_Force_Field>  (253) 
OPLS3e

>  <r_lp_Energy>  (253) 
169.531

>  <b_lp_Chiralities_Consistent>  (253) 
1

>  <s_lp_Variant>  (253) 
74:0-1

>  <s_i_glide_gridfile>  (253) 
pfpi4k_grid

>  <i_i_glide_lignum>  (253) 
16

>  <i_i_glide_rotatable_bonds>  (253) 
1

>  <r_i_docking_score>  (253) 
-3.22864

>  <r_i_glide_ligand_efficiency>  (253) 
-0.179369

>  <r_i_glide_ligand_efficiency_sa>  (253) 
-0.47008

>  <r_i_glide_ligand_efficiency_ln>  (253) 
-0.829906

>  <r_i_glide_gscore>  (253) 
-3.22864

>  <r_i_glide_lipo>  (253) 
-0.365648

>  <r_i_glide_hbond>  (253) 
0

>  <r_i_glide_metal>  (253) 
-0

>  <r_i_glide_rewards>  (253) 
-1.67537

>  <r_i_glide_evdw>  (253) 
-23.3342

>  <r_i_glide_ecoul>  (253) 
-0.0805207

>  <r_i_glide_erotb>  (253) 
0

>  <r_i_glide_esite>  (253) 
-0.00883567

>  <r_i_glide_emodel>  (253) 
-27.4235

>  <r_i_glide_energy>  (253) 
-23.4147

>  <r_i_glide_einternal>  (253) 
0.331453

>  <r_i_glide_intrahb_reward>  (253) 
-0

>  <i_i_glide_confnum>  (253) 
1

>  <i_i_glide_posenum>  (253) 
5

>  <r_i_glide_eff_state_penalty>  (253) 
0

>  <ligand_id>  (253) 
74

>  <original_smiles>  (253) 
CC1(C)C2CCC13CCC(O)C1(OO3)C(=O)OC21

>  <smiles>  (253) 
[H]OC1([H])C([H])([H])C([H])([H])C23OOC14C(=O)OC4([H])C([H])(C([H])([H])C2([H])[H])C3(C([H])([H])[H])C([H])([H])[H]

$$$$
74:0:1
     RDKit          3D

 36 39  0  0  1  0  0  0  0  0999 V2000
    3.6536   -2.9331   -2.8794 C   0  0  0  0  0  0  0  0  0  0  0  0
    4.4140   -2.0629   -1.8242 C   0  0  0  0  0  0  0  0  0  0  0  0
    4.3737   -0.6980   -2.5748 C   0  0  0  0  0  0  0  0  0  0  0  0
    3.6339   -1.9793   -0.4800 C   0  0  2  0  0  0  0  0  0  0  0  0
    4.4207   -0.9465    0.2871 C   0  0  0  0  0  0  0  0  0  0  0  0
    5.8513   -1.3634   -0.0127 C   0  0  0  0  0  0  0  0  0  0  0  0
    5.9416   -2.2098   -1.3464 C   0  0  2  0  0  0  0  0  0  0  0  0
    7.2380   -3.0573   -0.9159 C   0  0  0  0  0  0  0  0  0  0  0  0
    7.2691   -3.9972    0.3577 C   0  0  0  0  0  0  0  0  0  0  0  0
    5.9629   -4.4967    1.0452 C   0  0  1  0  0  0  0  0  0  0  0  0
    5.8109   -3.8608    2.3043 O   0  0  0  0  0  0  0  0  0  0  0  0
    4.6956   -4.3181    0.2063 C   0  0  1  0  0  0  0  0  0  0  0  0
    4.8881   -4.5472   -1.1445 O   0  0  0  0  0  0  0  0  0  0  0  0
    5.8757   -3.5950   -1.7824 O   0  0  0  0  0  0  0  0  0  0  0  0
    3.4880   -5.1947    0.5684 C   0  0  0  0  0  0  0  0  0  0  0  0
    3.2941   -6.3707    0.8976 O   0  0  0  0  0  0  0  0  0  0  0  0
    2.5999   -4.2236    0.2012 O   0  0  0  0  0  0  0  0  0  0  0  0
    3.6494   -3.2380    0.3920 C   0  0  2  0  0  0  0  0  0  0  0  0
    2.7425   -2.4168   -3.1842 H   0  0  0  0  0  0  0  0  0  0  0  0
    3.2481   -3.8582   -2.4869 H   0  0  0  0  0  0  0  0  0  0  0  0
    4.2260   -3.1363   -3.7844 H   0  0  0  0  0  0  0  0  0  0  0  0
    5.0039    0.0702   -2.1317 H   0  0  0  0  0  0  0  0  0  0  0  0
    3.3644   -0.2871   -2.6390 H   0  0  0  0  0  0  0  0  0  0  0  0
    4.7346   -0.8028   -3.5987 H   0  0  0  0  0  0  0  0  0  0  0  0
    2.6249   -1.6507   -0.6272 H   0  0  0  0  0  0  0  0  0  0  0  0
    4.2214    0.0543   -0.0763 H   0  0  0  0  0  0  0  0  0  0  0  0
    4.2173   -0.9303    1.3540 H   0  0  0  0  0  0  0  0  0  0  0  0
    6.4307   -0.4526   -0.1517 H   0  0  0  0  0  0  0  0  0  0  0  0
    6.2864   -1.8023    0.8845 H   0  0  0  0  0  0  0  0  0  0  0  0
    7.8661   -3.4799   -1.7191 H   0  0  0  0  0  0  0  0  0  0  0  0
    7.9582   -2.2881   -0.6428 H   0  0  0  0  0  0  0  0  0  0  0  0
    7.8234   -4.8864    0.0685 H   0  0  0  0  0  0  0  0  0  0  0  0
    7.9140   -3.5521    1.1146 H   0  0  0  0  0  0  0  0  0  0  0  0
    6.1006   -5.5505    1.2868 H   0  0  0  0  0  0  0  0  0  0  0  0
    5.6533   -2.9388    2.1757 H   0  0  0  0  0  0  0  0  0  0  0  0
    3.6233   -2.9562    1.4492 H   0  0  0  0  0  0  0  0  0  0  0  0
  1  2  1  0
  1 19  1  0
  1 20  1  0
  1 21  1  0
  2  7  1  0
  2  3  1  0
  2  4  1  0
  3 22  1  0
  3 23  1  0
  3 24  1  0
  4 18  1  0
  4  5  1  0
  4 25  1  6
  5  6  1  0
  5 26  1  0
  5 27  1  0
  7  6  1  1
  6 28  1  0
  6 29  1  0
  7 14  1  0
  7  8  1  0
  8  9  1  0
  8 30  1  0
  8 31  1  0
  9 10  1  0
  9 32  1  0
  9 33  1  0
 10 11  1  0
 10 12  1  0
 10 34  1  1
 11 35  1  0
 12 18  1  0
 12 13  1  0
 12 15  1  1
 13 14  1  0
 15 16  2  0
 15 17  1  0
 17 18  1  0
 18 36  1  1
M  END
>  <i_m_ct_stereo_status>  (254) 
1

>  <s_m_source_file>  (254) 
/var/tmp/pbs.5076255.sched01/tmp0eyfkrct/966b1hsbd3.sdf

>  <i_m_source_file_index>  (254) 
16

>  <i_lp_mmshare_version>  (254) 
48012

>  <i_f3d_flags>  (254) 
0

>  <s_epik_input>  (254) 
W0NIM11DKEMxMjMpKFtDSDNdKVtDQEhdKFtDSDJdW0NIMl0xKVtDQEBIXTRbQ0BdKE9PMykoQyg9TylPNClbQ0BIXShbT0hdKVtDSDJdW0NIMl0y

>  <s_epik_cmdline>  (254) 
J2VwaWtfcHl0aG9uJywgJy1waHQnLCAnMi4wJywgJy1waCcsICc3LjAnLCAnLXRuJywgJzgnLCAnLW1hJywgJzIwMCcsICctaW1hZScsICc8aW5maWxlLm1hZT4nLCAnLW9tYWUnLCAnPG91dGZpbGUubWFlPic=

>  <r_lp_tautomer_probability>  (254) 
1

>  <r_epik_Ionization_Penalty>  (254) 
5.00197e-07

>  <r_epik_Ionization_Penalty_Charging>  (254) 
0

>  <r_epik_Ionization_Penalty_Neutral>  (254) 
5.00197e-07

>  <r_epik_State_Penalty>  (254) 
-0

>  <r_epik_Charging_Adjusted_Penalty>  (254) 
0

>  <i_epik_Tot_Q>  (254) 
0

>  <i_epik_Tot_abs_Q>  (254) 
0

>  <s_epik_Chemistry_Notes>  (254) 
This compound has an ester and may undergo hydrolysis at high or low pH.

>  <s_lp_Force_Field>  (254) 
OPLS3e

>  <r_lp_Energy>  (254) 
169.531

>  <b_lp_Chiralities_Consistent>  (254) 
1

>  <s_lp_Variant>  (254) 
74:0-1

>  <s_i_glide_gridfile>  (254) 
pfpi4k_grid

>  <i_i_glide_lignum>  (254) 
16

>  <i_i_glide_rotatable_bonds>  (254) 
1

>  <r_i_docking_score>  (254) 
-3.22438

>  <r_i_glide_ligand_efficiency>  (254) 
-0.179132

>  <r_i_glide_ligand_efficiency_sa>  (254) 
-0.469459

>  <r_i_glide_ligand_efficiency_ln>  (254) 
-0.828809

>  <r_i_glide_gscore>  (254) 
-3.22438

>  <r_i_glide_lipo>  (254) 
-0.36487

>  <r_i_glide_hbond>  (254) 
0

>  <r_i_glide_metal>  (254) 
-0

>  <r_i_glide_rewards>  (254) 
-1.67537

>  <r_i_glide_evdw>  (254) 
-23.3408

>  <r_i_glide_ecoul>  (254) 
-0.0573695

>  <r_i_glide_erotb>  (254) 
0

>  <r_i_glide_esite>  (254) 
-0.00849122

>  <r_i_glide_emodel>  (254) 
-27.4946

>  <r_i_glide_energy>  (254) 
-23.3981

>  <r_i_glide_einternal>  (254) 
0.00735046

>  <r_i_glide_intrahb_reward>  (254) 
-0

>  <i_i_glide_confnum>  (254) 
1

>  <i_i_glide_posenum>  (254) 
28

>  <r_i_glide_eff_state_penalty>  (254) 
0

>  <ligand_id>  (254) 
74

>  <original_smiles>  (254) 
CC1(C)C2CCC13CCC(O)C1(OO3)C(=O)OC21

>  <smiles>  (254) 
[H]OC1([H])C([H])([H])C([H])([H])C23OOC14C(=O)OC4([H])C([H])(C([H])([H])C2([H])[H])C3(C([H])([H])[H])C([H])([H])[H]

$$$$
74:0:2
     RDKit          3D

 36 39  0  0  1  0  0  0  0  0999 V2000
    3.4860   -2.9272   -2.8247 C   0  0  0  0  0  0  0  0  0  0  0  0
    4.3184   -2.0698   -1.8142 C   0  0  0  0  0  0  0  0  0  0  0  0
    4.2180   -0.6912   -2.5336 C   0  0  0  0  0  0  0  0  0  0  0  0
    3.6436   -2.0232   -0.4128 C   0  0  2  0  0  0  0  0  0  0  0  0
    4.4819   -1.0014    0.3146 C   0  0  0  0  0  0  0  0  0  0  0  0
    5.8892   -1.4028   -0.1022 C   0  0  0  0  0  0  0  0  0  0  0  0
    5.8813   -2.2093   -1.4589 C   0  0  2  0  0  0  0  0  0  0  0  0
    7.2119   -3.0599   -1.1478 C   0  0  0  0  0  0  0  0  0  0  0  0
    7.3514   -4.0241    0.0970 C   0  0  0  0  0  0  0  0  0  0  0  0
    6.1044   -4.5659    0.8570 C   0  0  1  0  0  0  0  0  0  0  0  0
    6.0344   -3.9366    2.1198 O   0  0  0  0  0  0  0  0  0  0  0  0
    4.7734   -4.3756    0.1342 C   0  0  1  0  0  0  0  0  0  0  0  0
    4.8572   -4.5624   -1.2329 O   0  0  0  0  0  0  0  0  0  0  0  0
    5.7947   -3.5923   -1.9123 O   0  0  0  0  0  0  0  0  0  0  0  0
    3.6026   -5.2575    0.5671 C   0  0  0  0  0  0  0  0  0  0  0  0
    3.4487   -6.4438    0.8875 O   0  0  0  0  0  0  0  0  0  0  0  0
    2.6870   -4.2905    0.3025 O   0  0  0  0  0  0  0  0  0  0  0  0
    3.7411   -3.2993    0.4335 C   0  0  2  0  0  0  0  0  0  0  0  0
    2.5531   -2.4101   -3.0433 H   0  0  0  0  0  0  0  0  0  0  0  0
    3.1188   -3.8656   -2.4227 H   0  0  0  0  0  0  0  0  0  0  0  0
    3.9864   -3.1042   -3.7745 H   0  0  0  0  0  0  0  0  0  0  0  0
    4.8643    0.0752   -2.1124 H   0  0  0  0  0  0  0  0  0  0  0  0
    3.1999   -0.2955   -2.5146 H   0  0  0  0  0  0  0  0  0  0  0  0
    4.5122   -0.7671   -3.5794 H   0  0  0  0  0  0  0  0  0  0  0  0
    2.6212   -1.6921   -0.4662 H   0  0  0  0  0  0  0  0  0  0  0  0
    4.2342    0.0058   -0.0078 H   0  0  0  0  0  0  0  0  0  0  0  0
    4.3622   -1.0146    1.3996 H   0  0  0  0  0  0  0  0  0  0  0  0
    6.4433   -0.4821   -0.2623 H   0  0  0  0  0  0  0  0  0  0  0  0
    6.3827   -1.8558    0.7495 H   0  0  0  0  0  0  0  0  0  0  0  0
    7.7845   -3.4601   -2.0021 H   0  0  0  0  0  0  0  0  0  0  0  0
    7.9482   -2.2885   -0.9131 H   0  0  0  0  0  0  0  0  0  0  0  0
    7.9031   -4.8959   -0.2512 H   0  0  0  0  0  0  0  0  0  0  0  0
    8.0458   -3.5824    0.8156 H   0  0  0  0  0  0  0  0  0  0  0  0
    6.2655   -5.6240    1.0719 H   0  0  0  0  0  0  0  0  0  0  0  0
    6.8164   -4.1448    2.6071 H   0  0  0  0  0  0  0  0  0  0  0  0
    3.8007   -3.0421    1.4935 H   0  0  0  0  0  0  0  0  0  0  0  0
  1  2  1  0
  1 19  1  0
  1 20  1  0
  1 21  1  0
  2  7  1  0
  2  3  1  0
  2  4  1  0
  3 22  1  0
  3 23  1  0
  3 24  1  0
  4 18  1  0
  4  5  1  0
  4 25  1  6
  5  6  1  0
  5 26  1  0
  5 27  1  0
  7  6  1  1
  6 28  1  0
  6 29  1  0
  7 14  1  0
  7  8  1  0
  8  9  1  0
  8 30  1  0
  8 31  1  0
  9 10  1  0
  9 32  1  0
  9 33  1  0
 10 11  1  0
 10 12  1  0
 10 34  1  1
 11 35  1  0
 12 18  1  0
 12 13  1  0
 12 15  1  1
 13 14  1  0
 15 16  2  0
 15 17  1  0
 17 18  1  0
 18 36  1  1
M  END
>  <i_m_ct_stereo_status>  (255) 
1

>  <s_m_source_file>  (255) 
/var/tmp/pbs.5076255.sched01/tmp0eyfkrct/966b1hsbd3.sdf

>  <i_m_source_file_index>  (255) 
16

>  <i_lp_mmshare_version>  (255) 
48012

>  <i_f3d_flags>  (255) 
0

>  <s_epik_input>  (255) 
W0NIM11DKEMxMjMpKFtDSDNdKVtDQEhdKFtDSDJdW0NIMl0xKVtDQEBIXTRbQ0BdKE9PMykoQyg9TylPNClbQ0BIXShbT0hdKVtDSDJdW0NIMl0y

>  <s_epik_cmdline>  (255) 
J2VwaWtfcHl0aG9uJywgJy1waHQnLCAnMi4wJywgJy1waCcsICc3LjAnLCAnLXRuJywgJzgnLCAnLW1hJywgJzIwMCcsICctaW1hZScsICc8aW5maWxlLm1hZT4nLCAnLW9tYWUnLCAnPG91dGZpbGUubWFlPic=

>  <r_lp_tautomer_probability>  (255) 
1

>  <r_epik_Ionization_Penalty>  (255) 
5.00197e-07

>  <r_epik_Ionization_Penalty_Charging>  (255) 
0

>  <r_epik_Ionization_Penalty_Neutral>  (255) 
5.00197e-07

>  <r_epik_State_Penalty>  (255) 
-0

>  <r_epik_Charging_Adjusted_Penalty>  (255) 
0

>  <i_epik_Tot_Q>  (255) 
0

>  <i_epik_Tot_abs_Q>  (255) 
0

>  <s_epik_Chemistry_Notes>  (255) 
This compound has an ester and may undergo hydrolysis at high or low pH.

>  <s_lp_Force_Field>  (255) 
OPLS3e

>  <r_lp_Energy>  (255) 
169.531

>  <b_lp_Chiralities_Consistent>  (255) 
1

>  <s_lp_Variant>  (255) 
74:0-1

>  <s_i_glide_gridfile>  (255) 
pfpi4k_grid

>  <i_i_glide_lignum>  (255) 
16

>  <i_i_glide_rotatable_bonds>  (255) 
1

>  <r_i_docking_score>  (255) 
-3.1164

>  <r_i_glide_ligand_efficiency>  (255) 
-0.173133

>  <r_i_glide_ligand_efficiency_sa>  (255) 
-0.453737

>  <r_i_glide_ligand_efficiency_ln>  (255) 
-0.801054

>  <r_i_glide_gscore>  (255) 
-3.1164

>  <r_i_glide_lipo>  (255) 
-0.373062

>  <r_i_glide_hbond>  (255) 
0

>  <r_i_glide_metal>  (255) 
-0

>  <r_i_glide_rewards>  (255) 
-1.67537

>  <r_i_glide_evdw>  (255) 
-23.0551

>  <r_i_glide_ecoul>  (255) 
0.598816

>  <r_i_glide_erotb>  (255) 
0

>  <r_i_glide_esite>  (255) 
-0.00503121

>  <r_i_glide_emodel>  (255) 
-26.2664

>  <r_i_glide_energy>  (255) 
-22.4563

>  <r_i_glide_einternal>  (255) 
0.332672

>  <r_i_glide_intrahb_reward>  (255) 
-0

>  <i_i_glide_confnum>  (255) 
1

>  <i_i_glide_posenum>  (255) 
4

>  <r_i_glide_eff_state_penalty>  (255) 
0

>  <ligand_id>  (255) 
74

>  <original_smiles>  (255) 
CC1(C)C2CCC13CCC(O)C1(OO3)C(=O)OC21

>  <smiles>  (255) 
[H]OC1([H])C([H])([H])C([H])([H])C23OOC14C(=O)OC4([H])C([H])(C([H])([H])C2([H])[H])C3(C([H])([H])[H])C([H])([H])[H]

$$$$
75:0:0
     RDKit          3D

 67 71  0  0  1  0  0  0  0  0999 V2000
    1.8136    0.9079    1.8373 C   0  0  0  0  0  0  0  0  0  0  0  0
    1.9495    1.3371    3.3116 C   0  0  1  0  0  0  0  0  0  0  0  0
    2.4241    2.8228    3.3796 C   0  0  0  0  0  0  0  0  0  0  0  0
    1.4449    3.8214    2.8849 N   0  0  0  0  0  0  0  0  0  0  0  0
    0.5679    1.1485    4.0302 C   0  0  0  0  0  0  0  0  0  0  0  0
   -0.2924    2.0328    4.0012 O   0  0  0  0  0  0  0  0  0  0  0  0
    0.3277   -0.0216    4.6835 O   0  0  0  0  0  0  0  0  0  0  0  0
    1.2734   -1.0703    4.6239 C   0  0  2  0  0  0  0  0  0  0  0  0
    1.0175   -2.2145    5.5882 C   0  0  0  0  0  0  0  0  0  0  0  0
    2.3643   -2.9634    5.5816 C   0  0  1  0  0  0  0  0  0  0  0  0
    2.3549   -4.0064    4.4138 C   0  0  2  0  0  0  0  0  0  0  0  0
    1.6879   -5.3176    4.8814 C   0  0  0  0  0  0  0  0  0  0  0  0
    1.5898   -6.3598    3.7598 C   0  0  0  0  0  0  0  0  0  0  0  0
    2.9677   -6.6423    3.1329 C   0  0  1  0  0  0  0  0  0  0  0  0
    2.9186   -7.7788    2.0874 C   0  0  0  0  0  0  0  0  0  0  0  0
    4.3238   -8.1355    1.5740 C   0  0  1  0  0  0  0  0  0  0  0  0
    4.2296   -9.0485    0.4969 O   0  0  0  0  0  0  0  0  0  0  0  0
    5.0884   -6.8927    1.0903 C   0  0  0  0  0  0  0  0  0  0  0  0
    5.0779   -5.7540    2.1278 C   0  0  0  0  0  0  0  0  0  0  0  0
    3.6524   -5.3433    2.5960 C   0  0  1  0  0  0  0  0  0  0  0  0
    2.8784   -4.7362    1.3905 C   0  0  0  0  0  0  0  0  0  0  0  0
    3.7368   -4.3171    3.7853 C   0  0  1  0  0  0  0  0  0  0  0  0
    4.4471   -2.9920    3.4577 C   0  0  0  0  0  0  0  0  0  0  0  0
    4.7114   -2.2263    4.7516 C   0  0  0  0  0  0  0  0  0  0  0  0
    3.4331   -1.8089    5.5270 C   0  0  2  0  0  0  0  0  0  0  0  0
    3.9032   -1.5060    6.9719 C   0  0  0  0  0  0  0  0  0  0  0  0
    2.6249   -0.5471    5.0474 C   0  0  1  0  0  0  0  0  0  0  0  0
    3.0576    0.4371    3.9515 C   0  0  0  0  0  0  0  0  0  0  0  0
    4.2341    0.5458    3.5990 O   0  0  0  0  0  0  0  0  0  0  0  0
    1.5483   -0.1470    1.7461 H   0  0  0  0  0  0  0  0  0  0  0  0
    2.7572    1.0383    1.2903 H   0  0  0  0  0  0  0  0  0  0  0  0
    1.0463    1.4756    1.3020 H   0  0  0  0  0  0  0  0  0  0  0  0
    2.6305    3.0805    4.4210 H   0  0  0  0  0  0  0  0  0  0  0  0
    3.3729    2.9722    2.8498 H   0  0  0  0  0  0  0  0  0  0  0  0
    1.7826    4.7662    2.9851 H   0  0  0  0  0  0  0  0  0  0  0  0
    0.5874    3.6969    3.3987 H   0  0  0  0  0  0  0  0  0  0  0  0
    1.3227   -1.4605    3.6056 H   0  0  0  0  0  0  0  0  0  0  0  0
    0.8114   -1.8191    6.5834 H   0  0  0  0  0  0  0  0  0  0  0  0
    0.1584   -2.8198    5.2856 H   0  0  0  0  0  0  0  0  0  0  0  0
    2.4859   -3.5087    6.5193 H   0  0  0  0  0  0  0  0  0  0  0  0
    1.7333   -3.5889    3.6245 H   0  0  0  0  0  0  0  0  0  0  0  0
    2.2676   -5.7431    5.7033 H   0  0  0  0  0  0  0  0  0  0  0  0
    0.6898   -5.1242    5.2796 H   0  0  0  0  0  0  0  0  0  0  0  0
    1.1848   -7.2846    4.1719 H   0  0  0  0  0  0  0  0  0  0  0  0
    0.8854   -6.0211    3.0000 H   0  0  0  0  0  0  0  0  0  0  0  0
    3.5890   -7.0222    3.9440 H   0  0  0  0  0  0  0  0  0  0  0  0
    2.4733   -8.6676    2.5345 H   0  0  0  0  0  0  0  0  0  0  0  0
    2.2660   -7.4997    1.2600 H   0  0  0  0  0  0  0  0  0  0  0  0
    4.8944   -8.6032    2.3775 H   0  0  0  0  0  0  0  0  0  0  0  0
    4.0217   -9.9223    0.8160 H   0  0  0  0  0  0  0  0  0  0  0  0
    6.1215   -7.1701    0.8797 H   0  0  0  0  0  0  0  0  0  0  0  0
    4.6861   -6.5381    0.1407 H   0  0  0  0  0  0  0  0  0  0  0  0
    5.6633   -6.0711    2.9920 H   0  0  0  0  0  0  0  0  0  0  0  0
    5.6073   -4.9058    1.6971 H   0  0  0  0  0  0  0  0  0  0  0  0
    3.3717   -3.8425    1.0093 H   0  0  0  0  0  0  0  0  0  0  0  0
    1.8589   -4.4616    1.6496 H   0  0  0  0  0  0  0  0  0  0  0  0
    2.8039   -5.4304    0.5547 H   0  0  0  0  0  0  0  0  0  0  0  0
    4.3327   -4.8008    4.5567 H   0  0  0  0  0  0  0  0  0  0  0  0
    5.4108   -3.1722    2.9801 H   0  0  0  0  0  0  0  0  0  0  0  0
    3.8610   -2.3757    2.7749 H   0  0  0  0  0  0  0  0  0  0  0  0
    5.3110   -2.8822    5.3903 H   0  0  0  0  0  0  0  0  0  0  0  0
    5.3625   -1.3766    4.5615 H   0  0  0  0  0  0  0  0  0  0  0  0
    4.6150   -0.6796    7.0027 H   0  0  0  0  0  0  0  0  0  0  0  0
    4.3882   -2.3731    7.4203 H   0  0  0  0  0  0  0  0  0  0  0  0
    3.0652   -1.2469    7.6191 H   0  0  0  0  0  0  0  0  0  0  0  0
    2.4825    0.0914    5.9262 H   0  0  0  0  0  0  0  0  0  0  0  0
    1.1870    3.7124    1.8970 H   0  0  0  0  0  0  0  0  0  0  0  0
  2  1  1  6
  1 30  1  0
  1 31  1  0
  1 32  1  0
  2 28  1  0
  2  3  1  0
  2  5  1  0
  3  4  1  0
  3 33  1  0
  3 34  1  0
  4 35  1  0
  4 36  1  0
  4 67  1  0
  5  6  2  0
  5  7  1  0
  7  8  1  0
  8 27  1  0
  8  9  1  0
  8 37  1  6
  9 10  1  0
  9 38  1  0
  9 39  1  0
 10 25  1  0
 10 11  1  0
 10 40  1  1
 11 22  1  0
 11 12  1  0
 11 41  1  6
 12 13  1  0
 12 42  1  0
 12 43  1  0
 13 14  1  0
 13 44  1  0
 13 45  1  0
 14 20  1  0
 14 15  1  0
 14 46  1  1
 15 16  1  0
 15 47  1  0
 15 48  1  0
 16 17  1  0
 16 18  1  0
 16 49  1  1
 17 50  1  0
 18 19  1  0
 18 51  1  0
 18 52  1  0
 19 20  1  0
 19 53  1  0
 19 54  1  0
 20 21  1  6
 20 22  1  0
 21 55  1  0
 21 56  1  0
 21 57  1  0
 22 23  1  0
 22 58  1  1
 23 24  1  0
 23 59  1  0
 23 60  1  0
 24 25  1  0
 24 61  1  0
 24 62  1  0
 25 26  1  1
 25 27  1  0
 26 63  1  0
 26 64  1  0
 26 65  1  0
 27 28  1  0
 27 66  1  1
 28 29  2  0
M  CHG  1   4   1
M  END
>  <i_m_ct_stereo_status>  (256) 
1

>  <s_m_source_file>  (256) 
/var/tmp/pbs.5076255.sched01/tmp0eyfkrct/966b1hsbd3.sdf

>  <i_m_source_file_index>  (256) 
17

>  <i_lp_mmshare_version>  (256) 
48012

>  <i_f3d_flags>  (256) 
0

>  <s_epik_input>  (256) 
W05IMl1bQ0gyXVtDQEBdKFtDSDNdKShDMT1PKUMoPU8pT1tDQEhdKFtDSDJdMilbQ0BIXTFbQ0BdKFtDSDNdKShbQ0gyXVtDSDJdW0NAQEhdMzQpW0NAQEhdMltDQEBIXTNbQ0gyXVtDSDJdW0NASF0oW0NAQF00NVtDSDNdKVtDSDJdW0NAQEhdKFtPSF0pW0NIMl1bQ0gyXTU=

>  <s_epik_cmdline>  (256) 
J2VwaWtfcHl0aG9uJywgJy1waHQnLCAnMi4wJywgJy1waCcsICc3LjAnLCAnLXRuJywgJzgnLCAnLW1hJywgJzIwMCcsICctaW1hZScsICc8aW5maWxlLm1hZT4nLCAnLW9tYWUnLCAnPG91dGZpbGUubWFlPic=

>  <r_epik_Ionization_Penalty>  (256) 
0.0385061

>  <r_epik_Ionization_Penalty_Charging>  (256) 
0.0385028

>  <r_epik_Ionization_Penalty_Neutral>  (256) 
3.36678e-06

>  <r_epik_State_Penalty>  (256) 
0.0322928

>  <r_epik_Charging_Adjusted_Penalty>  (256) 
0.0707955

>  <i_epik_Tot_Q>  (256) 
1

>  <i_epik_Tot_abs_Q>  (256) 
1

>  <s_epik_Chemistry_Notes>  (256) 
This compound has an ester and may undergo hydrolysis at high or low pH.

>  <s_lp_Force_Field>  (256) 
OPLS3e

>  <r_lp_Energy>  (256) 
54.5326

>  <b_lp_Chiralities_Consistent>  (256) 
1

>  <s_lp_Variant>  (256) 
75:0-1

>  <s_i_glide_gridfile>  (256) 
pfpi4k_grid

>  <i_i_glide_lignum>  (256) 
17

>  <i_i_glide_rotatable_bonds>  (256) 
2

>  <r_i_docking_score>  (256) 
-4.03607

>  <r_i_glide_ligand_efficiency>  (256) 
-0.139175

>  <r_i_glide_ligand_efficiency_sa>  (256) 
-0.427589

>  <r_i_glide_ligand_efficiency_ln>  (256) 
-0.924157

>  <r_i_glide_gscore>  (256) 
-4.03607

>  <r_i_glide_lipo>  (256) 
-0.143411

>  <r_i_glide_hbond>  (256) 
-0.232927

>  <r_i_glide_metal>  (256) 
-0

>  <r_i_glide_rewards>  (256) 
-1.15071

>  <r_i_glide_evdw>  (256) 
-22.0923

>  <r_i_glide_ecoul>  (256) 
-8.59604

>  <r_i_glide_erotb>  (256) 
0

>  <r_i_glide_esite>  (256) 
-0.114998

>  <r_i_glide_emodel>  (256) 
-42.8972

>  <r_i_glide_energy>  (256) 
-30.6884

>  <r_i_glide_einternal>  (256) 
5.88022

>  <r_i_glide_intrahb_reward>  (256) 
-0.5

>  <i_i_glide_confnum>  (256) 
1

>  <i_i_glide_posenum>  (256) 
13

>  <r_i_glide_eff_state_penalty>  (256) 
0

>  <ligand_id>  (256) 
75

>  <original_smiles>  (256) 
CC1(CN)C(=O)OC2CC3C4CCC5CC(O)CCC5(C)C4CCC3(C)C2C1=O

>  <smiles>  (256) 
[H]OC1([H])C([H])([H])C([H])([H])C2(C([H])([H])[H])C([H])(C([H])([H])C([H])([H])C3([H])C4([H])C([H])([H])C5([H])OC(=O)C(C([H])([H])[H])(C([H])([H])[N+]([H])([H])[H])C(=O)C5([H])C4(C([H])([H])[H])C([H])([H])C([H])([H])C32[H])C1([H])[H]

$$$$
75:0:1
     RDKit          3D

 67 71  0  0  1  0  0  0  0  0999 V2000
    3.1915   -2.2859    0.9566 C   0  0  0  0  0  0  0  0  0  0  0  0
    3.2710   -1.4488    2.2505 C   0  0  1  0  0  0  0  0  0  0  0  0
    4.3230   -0.3130    2.1010 C   0  0  0  0  0  0  0  0  0  0  0  0
    4.1326    0.4784    0.8842 N   0  0  0  0  0  0  0  0  0  0  0  0
    1.8597   -0.8217    2.5510 C   0  0  0  0  0  0  0  0  0  0  0  0
    1.5621    0.2731    2.0547 O   0  0  0  0  0  0  0  0  0  0  0  0
    1.0126   -1.5102    3.3494 O   0  0  0  0  0  0  0  0  0  0  0  0
    1.3722   -2.7801    3.8501 C   0  0  2  0  0  0  0  0  0  0  0  0
    0.4842   -3.3414    4.9523 C   0  0  0  0  0  0  0  0  0  0  0  0
    1.3365   -4.4901    5.5311 C   0  0  1  0  0  0  0  0  0  0  0  0
    1.0608   -5.7956    4.7099 C   0  0  2  0  0  0  0  0  0  0  0  0
   -0.1831   -6.5228    5.2640 C   0  0  0  0  0  0  0  0  0  0  0  0
   -0.5376   -7.7766    4.4528 C   0  0  0  0  0  0  0  0  0  0  0  0
    0.6629   -8.7294    4.3506 C   0  0  1  0  0  0  0  0  0  0  0  0
    0.3134  -10.0336    3.6276 C   0  0  0  0  0  0  0  0  0  0  0  0
    1.4457  -11.0521    3.6994 C   0  0  1  0  0  0  0  0  0  0  0  0
    0.9823  -12.1424    2.9451 O   0  0  0  0  0  0  0  0  0  0  0  0
    2.7631  -10.4649    3.1620 C   0  0  0  0  0  0  0  0  0  0  0  0
    3.0784   -9.1062    3.8344 C   0  0  0  0  0  0  0  0  0  0  0  0
    1.9264   -8.0553    3.7444 C   0  0  1  0  0  0  0  0  0  0  0  0
    1.7028   -7.6687    2.2524 C   0  0  0  0  0  0  0  0  0  0  0  0
    2.2476   -6.7885    4.6152 C   0  0  1  0  0  0  0  0  0  0  0  0
    3.5134   -6.0216    4.1970 C   0  0  0  0  0  0  0  0  0  0  0  0
    3.8682   -5.0084    5.2835 C   0  0  0  0  0  0  0  0  0  0  0  0
    2.7975   -3.9106    5.5128 C   0  0  2  0  0  0  0  0  0  0  0  0
    3.1073   -3.3168    6.9094 C   0  0  0  0  0  0  0  0  0  0  0  0
    2.7303   -2.6941    4.5181 C   0  0  1  0  0  0  0  0  0  0  0  0
    3.7345   -2.4037    3.3948 C   0  0  0  0  0  0  0  0  0  0  0  0
    4.8778   -2.8661    3.3868 O   0  0  0  0  0  0  0  0  0  0  0  0
    2.4989   -3.1262    1.0638 H   0  0  0  0  0  0  0  0  0  0  0  0
    4.1657   -2.7025    0.6911 H   0  0  0  0  0  0  0  0  0  0  0  0
    2.8372   -1.7068    0.0978 H   0  0  0  0  0  0  0  0  0  0  0  0
    4.2481    0.3689    2.9596 H   0  0  0  0  0  0  0  0  0  0  0  0
    5.3455   -0.7013    2.1053 H   0  0  0  0  0  0  0  0  0  0  0  0
    4.7952    1.2454    0.8200 H   0  0  0  0  0  0  0  0  0  0  0  0
    3.1975    0.8730    0.9135 H   0  0  0  0  0  0  0  0  0  0  0  0
    1.4105   -3.5010    3.0306 H   0  0  0  0  0  0  0  0  0  0  0  0
    0.3150   -2.5799    5.7158 H   0  0  0  0  0  0  0  0  0  0  0  0
   -0.4874   -3.6522    4.5732 H   0  0  0  0  0  0  0  0  0  0  0  0
    1.0483   -4.6823    6.5672 H   0  0  0  0  0  0  0  0  0  0  0  0
    0.8269   -5.4839    3.6912 H   0  0  0  0  0  0  0  0  0  0  0  0
    0.0038   -6.8176    6.3015 H   0  0  0  0  0  0  0  0  0  0  0  0
   -1.0454   -5.8578    5.2906 H   0  0  0  0  0  0  0  0  0  0  0  0
   -1.3683   -8.2946    4.9351 H   0  0  0  0  0  0  0  0  0  0  0  0
   -0.8928   -7.4923    3.4620 H   0  0  0  0  0  0  0  0  0  0  0  0
    0.9013   -9.0162    5.3765 H   0  0  0  0  0  0  0  0  0  0  0  0
   -0.5062  -10.5063    4.1074 H   0  0  0  0  0  0  0  0  0  0  0  0
    0.0012   -9.8594    2.5971 H   0  0  0  0  0  0  0  0  0  0  0  0
    1.5922  -11.3781    4.7277 H   0  0  0  0  0  0  0  0  0  0  0  0
    1.4542  -12.9347    3.1784 H   0  0  0  0  0  0  0  0  0  0  0  0
    3.5855  -11.1611    3.3439 H   0  0  0  0  0  0  0  0  0  0  0  0
    2.7132  -10.3409    2.0810 H   0  0  0  0  0  0  0  0  0  0  0  0
    3.3006   -9.2896    4.8891 H   0  0  0  0  0  0  0  0  0  0  0  0
    3.9935   -8.7142    3.3898 H   0  0  0  0  0  0  0  0  0  0  0  0
    2.5953   -7.2158    1.8211 H   0  0  0  0  0  0  0  0  0  0  0  0
    0.8750   -6.9739    2.1175 H   0  0  0  0  0  0  0  0  0  0  0  0
    1.4663   -8.5352    1.6349 H   0  0  0  0  0  0  0  0  0  0  0  0
    2.4304   -7.1585    5.6269 H   0  0  0  0  0  0  0  0  0  0  0  0
    4.3567   -6.6999    4.0873 H   0  0  0  0  0  0  0  0  0  0  0  0
    3.3795   -5.5160    3.2406 H   0  0  0  0  0  0  0  0  0  0  0  0
    4.0006   -5.5722    6.2078 H   0  0  0  0  0  0  0  0  0  0  0  0
    4.8522   -4.5815    5.0863 H   0  0  0  0  0  0  0  0  0  0  0  0
    4.0955   -2.8558    6.9432 H   0  0  0  0  0  0  0  0  0  0  0  0
    3.0772   -4.0868    7.6811 H   0  0  0  0  0  0  0  0  0  0  0  0
    2.3759   -2.5592    7.1922 H   0  0  0  0  0  0  0  0  0  0  0  0
    2.7367   -1.7861    5.1256 H   0  0  0  0  0  0  0  0  0  0  0  0
    4.2240   -0.1052    0.0658 H   0  0  0  0  0  0  0  0  0  0  0  0
  2  1  1  6
  1 30  1  0
  1 31  1  0
  1 32  1  0
  2 28  1  0
  2  3  1  0
  2  5  1  0
  3  4  1  0
  3 33  1  0
  3 34  1  0
  4 35  1  0
  4 36  1  0
  4 67  1  0
  5  6  2  0
  5  7  1  0
  7  8  1  0
  8 27  1  0
  8  9  1  0
  8 37  1  6
  9 10  1  0
  9 38  1  0
  9 39  1  0
 10 25  1  0
 10 11  1  0
 10 40  1  1
 11 22  1  0
 11 12  1  0
 11 41  1  6
 12 13  1  0
 12 42  1  0
 12 43  1  0
 13 14  1  0
 13 44  1  0
 13 45  1  0
 14 20  1  0
 14 15  1  0
 14 46  1  1
 15 16  1  0
 15 47  1  0
 15 48  1  0
 16 17  1  0
 16 18  1  0
 16 49  1  1
 17 50  1  0
 18 19  1  0
 18 51  1  0
 18 52  1  0
 19 20  1  0
 19 53  1  0
 19 54  1  0
 20 21  1  6
 20 22  1  0
 21 55  1  0
 21 56  1  0
 21 57  1  0
 22 23  1  0
 22 58  1  1
 23 24  1  0
 23 59  1  0
 23 60  1  0
 24 25  1  0
 24 61  1  0
 24 62  1  0
 25 26  1  1
 25 27  1  0
 26 63  1  0
 26 64  1  0
 26 65  1  0
 27 28  1  0
 27 66  1  1
 28 29  2  0
M  CHG  1   4   1
M  END
>  <i_m_ct_stereo_status>  (257) 
1

>  <s_m_source_file>  (257) 
/var/tmp/pbs.5076255.sched01/tmp0eyfkrct/966b1hsbd3.sdf

>  <i_m_source_file_index>  (257) 
17

>  <i_lp_mmshare_version>  (257) 
48012

>  <i_f3d_flags>  (257) 
0

>  <s_epik_input>  (257) 
W05IMl1bQ0gyXVtDQEBdKFtDSDNdKShDMT1PKUMoPU8pT1tDQEhdKFtDSDJdMilbQ0BIXTFbQ0BdKFtDSDNdKShbQ0gyXVtDSDJdW0NAQEhdMzQpW0NAQEhdMltDQEBIXTNbQ0gyXVtDSDJdW0NASF0oW0NAQF00NVtDSDNdKVtDSDJdW0NAQEhdKFtPSF0pW0NIMl1bQ0gyXTU=

>  <s_epik_cmdline>  (257) 
J2VwaWtfcHl0aG9uJywgJy1waHQnLCAnMi4wJywgJy1waCcsICc3LjAnLCAnLXRuJywgJzgnLCAnLW1hJywgJzIwMCcsICctaW1hZScsICc8aW5maWxlLm1hZT4nLCAnLW9tYWUnLCAnPG91dGZpbGUubWFlPic=

>  <r_epik_Ionization_Penalty>  (257) 
0.0385061

>  <r_epik_Ionization_Penalty_Charging>  (257) 
0.0385028

>  <r_epik_Ionization_Penalty_Neutral>  (257) 
3.36678e-06

>  <r_epik_State_Penalty>  (257) 
0.0322928

>  <r_epik_Charging_Adjusted_Penalty>  (257) 
0.0707955

>  <i_epik_Tot_Q>  (257) 
1

>  <i_epik_Tot_abs_Q>  (257) 
1

>  <s_epik_Chemistry_Notes>  (257) 
This compound has an ester and may undergo hydrolysis at high or low pH.

>  <s_lp_Force_Field>  (257) 
OPLS3e

>  <r_lp_Energy>  (257) 
54.5326

>  <b_lp_Chiralities_Consistent>  (257) 
1

>  <s_lp_Variant>  (257) 
75:0-1

>  <s_i_glide_gridfile>  (257) 
pfpi4k_grid

>  <i_i_glide_lignum>  (257) 
17

>  <i_i_glide_rotatable_bonds>  (257) 
2

>  <r_i_docking_score>  (257) 
-3.92201

>  <r_i_glide_ligand_efficiency>  (257) 
-0.135242

>  <r_i_glide_ligand_efficiency_sa>  (257) 
-0.415506

>  <r_i_glide_ligand_efficiency_ln>  (257) 
-0.898041

>  <r_i_glide_gscore>  (257) 
-3.92201

>  <r_i_glide_lipo>  (257) 
-0.254805

>  <r_i_glide_hbond>  (257) 
-0.32

>  <r_i_glide_metal>  (257) 
-0

>  <r_i_glide_rewards>  (257) 
-1.15071

>  <r_i_glide_evdw>  (257) 
-20.3705

>  <r_i_glide_ecoul>  (257) 
-7.68627

>  <r_i_glide_erotb>  (257) 
0

>  <r_i_glide_esite>  (257) 
-0.0250343

>  <r_i_glide_emodel>  (257) 
-39.98

>  <r_i_glide_energy>  (257) 
-28.0567

>  <r_i_glide_einternal>  (257) 
5.78318

>  <r_i_glide_intrahb_reward>  (257) 
-0.5

>  <i_i_glide_confnum>  (257) 
1

>  <i_i_glide_posenum>  (257) 
5

>  <r_i_glide_eff_state_penalty>  (257) 
0

>  <ligand_id>  (257) 
75

>  <original_smiles>  (257) 
CC1(CN)C(=O)OC2CC3C4CCC5CC(O)CCC5(C)C4CCC3(C)C2C1=O

>  <smiles>  (257) 
[H]OC1([H])C([H])([H])C([H])([H])C2(C([H])([H])[H])C([H])(C([H])([H])C([H])([H])C3([H])C4([H])C([H])([H])C5([H])OC(=O)C(C([H])([H])[H])(C([H])([H])[N+]([H])([H])[H])C(=O)C5([H])C4(C([H])([H])[H])C([H])([H])C([H])([H])C32[H])C1([H])[H]

$$$$
75:0:2
     RDKit          3D

 67 71  0  0  1  0  0  0  0  0999 V2000
    0.9560   -0.3193    2.3369 C   0  0  0  0  0  0  0  0  0  0  0  0
    1.9271    0.2415    3.3940 C   0  0  1  0  0  0  0  0  0  0  0  0
    2.5923    1.5472    2.8580 C   0  0  0  0  0  0  0  0  0  0  0  0
    1.6260    2.6014    2.4714 N   0  0  0  0  0  0  0  0  0  0  0  0
    1.1232    0.5372    4.7096 C   0  0  0  0  0  0  0  0  0  0  0  0
    0.5402    1.6099    4.8583 O   0  0  0  0  0  0  0  0  0  0  0  0
    1.0654   -0.4423    5.6574 O   0  0  0  0  0  0  0  0  0  0  0  0
    1.6576   -1.7028    5.4200 C   0  0  2  0  0  0  0  0  0  0  0  0
    1.7740   -2.6132    6.6367 C   0  0  0  0  0  0  0  0  0  0  0  0
    2.7718   -3.6890    6.1565 C   0  0  1  0  0  0  0  0  0  0  0  0
    1.9756   -4.8336    5.4412 C   0  0  2  0  0  0  0  0  0  0  0  0
    1.4619   -5.8552    6.4791 C   0  0  0  0  0  0  0  0  0  0  0  0
    0.6157   -6.9663    5.8419 C   0  0  0  0  0  0  0  0  0  0  0  0
    1.3855   -7.6788    4.7152 C   0  0  1  0  0  0  0  0  0  0  0  0
    0.5981   -8.8752    4.1390 C   0  0  0  0  0  0  0  0  0  0  0  0
    1.4278   -9.6526    3.1052 C   0  0  1  0  0  0  0  0  0  0  0  0
    0.6168  -10.6290    2.4905 O   0  0  0  0  0  0  0  0  0  0  0  0
    2.0268   -8.7387    2.0245 C   0  0  0  0  0  0  0  0  0  0  0  0
    2.7509   -7.5171    2.6254 C   0  0  0  0  0  0  0  0  0  0  0  0
    1.8802   -6.6908    3.6139 C   0  0  1  0  0  0  0  0  0  0  0  0
    0.6954   -6.0629    2.8397 C   0  0  0  0  0  0  0  0  0  0  0  0
    2.7430   -5.5782    4.3161 C   0  0  1  0  0  0  0  0  0  0  0  0
    3.3687   -4.5365    3.3684 C   0  0  0  0  0  0  0  0  0  0  0  0
    4.4006   -3.7109    4.1352 C   0  0  0  0  0  0  0  0  0  0  0  0
    3.8172   -2.8759    5.3061 C   0  0  2  0  0  0  0  0  0  0  0  0
    5.0227   -2.5292    6.2135 C   0  0  0  0  0  0  0  0  0  0  0  0
    3.0931   -1.5152    4.9835 C   0  0  1  0  0  0  0  0  0  0  0  0
    3.0404   -0.8331    3.6047 C   0  0  0  0  0  0  0  0  0  0  0  0
    3.8448   -1.0896    2.7130 O   0  0  0  0  0  0  0  0  0  0  0  0
    0.5315   -1.2744    2.6596 H   0  0  0  0  0  0  0  0  0  0  0  0
    1.4607   -0.5003    1.3848 H   0  0  0  0  0  0  0  0  0  0  0  0
    0.1164    0.3518    2.1347 H   0  0  0  0  0  0  0  0  0  0  0  0
    3.2363    1.9637    3.6359 H   0  0  0  0  0  0  0  0  0  0  0  0
    3.2335    1.3407    2.0039 H   0  0  0  0  0  0  0  0  0  0  0  0
    2.0975    3.4365    2.1583 H   0  0  0  0  0  0  0  0  0  0  0  0
    1.0413    2.8331    3.2606 H   0  0  0  0  0  0  0  0  0  0  0  0
    1.0962   -2.2227    4.6441 H   0  0  0  0  0  0  0  0  0  0  0  0
    2.1943   -2.0603    7.4771 H   0  0  0  0  0  0  0  0  0  0  0  0
    0.8080   -3.0099    6.9494 H   0  0  0  0  0  0  0  0  0  0  0  0
    3.2813   -4.1286    7.0168 H   0  0  0  0  0  0  0  0  0  0  0  0
    1.1049   -4.3725    4.9786 H   0  0  0  0  0  0  0  0  0  0  0  0
    2.3133   -6.3105    6.9902 H   0  0  0  0  0  0  0  0  0  0  0  0
    0.8768   -5.3564    7.2531 H   0  0  0  0  0  0  0  0  0  0  0  0
    0.3503   -7.6916    6.6138 H   0  0  0  0  0  0  0  0  0  0  0  0
   -0.3240   -6.5539    5.4728 H   0  0  0  0  0  0  0  0  0  0  0  0
    2.2722   -8.1094    5.1846 H   0  0  0  0  0  0  0  0  0  0  0  0
    0.3262   -9.5582    4.9459 H   0  0  0  0  0  0  0  0  0  0  0  0
   -0.3428   -8.5425    3.7019 H   0  0  0  0  0  0  0  0  0  0  0  0
    2.2389  -10.1660    3.6227 H   0  0  0  0  0  0  0  0  0  0  0  0
    0.1638  -10.2413    1.7526 H   0  0  0  0  0  0  0  0  0  0  0  0
    2.7275   -9.3146    1.4166 H   0  0  0  0  0  0  0  0  0  0  0  0
    1.2520   -8.4029    1.3347 H   0  0  0  0  0  0  0  0  0  0  0  0
    3.6461   -7.8658    3.1410 H   0  0  0  0  0  0  0  0  0  0  0  0
    3.0961   -6.8994    1.7977 H   0  0  0  0  0  0  0  0  0  0  0  0
    1.0517   -5.3843    2.0663 H   0  0  0  0  0  0  0  0  0  0  0  0
    0.0353   -5.4997    3.4940 H   0  0  0  0  0  0  0  0  0  0  0  0
    0.0747   -6.8090    2.3448 H   0  0  0  0  0  0  0  0  0  0  0  0
    3.5747   -6.1006    4.7918 H   0  0  0  0  0  0  0  0  0  0  0  0
    3.8860   -5.0233    2.5438 H   0  0  0  0  0  0  0  0  0  0  0  0
    2.6171   -3.8795    2.9313 H   0  0  0  0  0  0  0  0  0  0  0  0
    5.1324   -4.4161    4.5363 H   0  0  0  0  0  0  0  0  0  0  0  0
    4.9791   -3.0943    3.4476 H   0  0  0  0  0  0  0  0  0  0  0  0
    5.7619   -1.9212    5.6888 H   0  0  0  0  0  0  0  0  0  0  0  0
    5.5286   -3.4295    6.5658 H   0  0  0  0  0  0  0  0  0  0  0  0
    4.7091   -1.9785    7.1014 H   0  0  0  0  0  0  0  0  0  0  0  0
    3.5387   -0.7630    5.6353 H   0  0  0  0  0  0  0  0  0  0  0  0
    1.0243    2.3035    1.7150 H   0  0  0  0  0  0  0  0  0  0  0  0
  2  1  1  6
  1 30  1  0
  1 31  1  0
  1 32  1  0
  2 28  1  0
  2  3  1  0
  2  5  1  0
  3  4  1  0
  3 33  1  0
  3 34  1  0
  4 35  1  0
  4 36  1  0
  4 67  1  0
  5  6  2  0
  5  7  1  0
  7  8  1  0
  8 27  1  0
  8  9  1  0
  8 37  1  6
  9 10  1  0
  9 38  1  0
  9 39  1  0
 10 25  1  0
 10 11  1  0
 10 40  1  1
 11 22  1  0
 11 12  1  0
 11 41  1  6
 12 13  1  0
 12 42  1  0
 12 43  1  0
 13 14  1  0
 13 44  1  0
 13 45  1  0
 14 20  1  0
 14 15  1  0
 14 46  1  1
 15 16  1  0
 15 47  1  0
 15 48  1  0
 16 17  1  0
 16 18  1  0
 16 49  1  1
 17 50  1  0
 18 19  1  0
 18 51  1  0
 18 52  1  0
 19 20  1  0
 19 53  1  0
 19 54  1  0
 20 21  1  6
 20 22  1  0
 21 55  1  0
 21 56  1  0
 21 57  1  0
 22 23  1  0
 22 58  1  1
 23 24  1  0
 23 59  1  0
 23 60  1  0
 24 25  1  0
 24 61  1  0
 24 62  1  0
 25 26  1  1
 25 27  1  0
 26 63  1  0
 26 64  1  0
 26 65  1  0
 27 28  1  0
 27 66  1  1
 28 29  2  0
M  CHG  1   4   1
M  END
>  <i_m_ct_stereo_status>  (258) 
1

>  <s_m_source_file>  (258) 
/var/tmp/pbs.5076255.sched01/tmp0eyfkrct/966b1hsbd3.sdf

>  <i_m_source_file_index>  (258) 
17

>  <i_lp_mmshare_version>  (258) 
48012

>  <i_f3d_flags>  (258) 
0

>  <s_epik_input>  (258) 
W05IMl1bQ0gyXVtDQEBdKFtDSDNdKShDMT1PKUMoPU8pT1tDQEhdKFtDSDJdMilbQ0BIXTFbQ0BdKFtDSDNdKShbQ0gyXVtDSDJdW0NAQEhdMzQpW0NAQEhdMltDQEBIXTNbQ0gyXVtDSDJdW0NASF0oW0NAQF00NVtDSDNdKVtDSDJdW0NAQEhdKFtPSF0pW0NIMl1bQ0gyXTU=

>  <s_epik_cmdline>  (258) 
J2VwaWtfcHl0aG9uJywgJy1waHQnLCAnMi4wJywgJy1waCcsICc3LjAnLCAnLXRuJywgJzgnLCAnLW1hJywgJzIwMCcsICctaW1hZScsICc8aW5maWxlLm1hZT4nLCAnLW9tYWUnLCAnPG91dGZpbGUubWFlPic=

>  <r_epik_Ionization_Penalty>  (258) 
0.0385061

>  <r_epik_Ionization_Penalty_Charging>  (258) 
0.0385028

>  <r_epik_Ionization_Penalty_Neutral>  (258) 
3.36678e-06

>  <r_epik_State_Penalty>  (258) 
0.0322928

>  <r_epik_Charging_Adjusted_Penalty>  (258) 
0.0707955

>  <i_epik_Tot_Q>  (258) 
1

>  <i_epik_Tot_abs_Q>  (258) 
1

>  <s_epik_Chemistry_Notes>  (258) 
This compound has an ester and may undergo hydrolysis at high or low pH.

>  <s_lp_Force_Field>  (258) 
OPLS3e

>  <r_lp_Energy>  (258) 
54.5326

>  <b_lp_Chiralities_Consistent>  (258) 
1

>  <s_lp_Variant>  (258) 
75:0-1

>  <s_i_glide_gridfile>  (258) 
pfpi4k_grid

>  <i_i_glide_lignum>  (258) 
17

>  <i_i_glide_rotatable_bonds>  (258) 
2

>  <r_i_docking_score>  (258) 
-3.54786

>  <r_i_glide_ligand_efficiency>  (258) 
-0.12234

>  <r_i_glide_ligand_efficiency_sa>  (258) 
-0.375867

>  <r_i_glide_ligand_efficiency_ln>  (258) 
-0.81237

>  <r_i_glide_gscore>  (258) 
-3.54786

>  <r_i_glide_lipo>  (258) 
-0.0450686

>  <r_i_glide_hbond>  (258) 
-0.268705

>  <r_i_glide_metal>  (258) 
-0

>  <r_i_glide_rewards>  (258) 
-1.15071

>  <r_i_glide_evdw>  (258) 
-21.3383

>  <r_i_glide_ecoul>  (258) 
-6.23271

>  <r_i_glide_erotb>  (258) 
0

>  <r_i_glide_esite>  (258) 
-0.0815533

>  <r_i_glide_emodel>  (258) 
-38.9006

>  <r_i_glide_energy>  (258) 
-27.571

>  <r_i_glide_einternal>  (258) 
5.28571

>  <r_i_glide_intrahb_reward>  (258) 
-0.5

>  <i_i_glide_confnum>  (258) 
2

>  <i_i_glide_posenum>  (258) 
19

>  <r_i_glide_eff_state_penalty>  (258) 
0

>  <ligand_id>  (258) 
75

>  <original_smiles>  (258) 
CC1(CN)C(=O)OC2CC3C4CCC5CC(O)CCC5(C)C4CCC3(C)C2C1=O

>  <smiles>  (258) 
[H]OC1([H])C([H])([H])C([H])([H])C2(C([H])([H])[H])C([H])(C([H])([H])C([H])([H])C3([H])C4([H])C([H])([H])C5([H])OC(=O)C(C([H])([H])[H])(C([H])([H])[N+]([H])([H])[H])C(=O)C5([H])C4(C([H])([H])[H])C([H])([H])C([H])([H])C32[H])C1([H])[H]

$$$$
75:1:0
     RDKit          3D

 66 70  0  0  1  0  0  0  0  0999 V2000
    4.5774   -2.9154    0.4152 C   0  0  0  0  0  0  0  0  0  0  0  0
    4.5574   -2.0177    1.6706 C   0  0  1  0  0  0  0  0  0  0  0  0
    5.8029   -1.0926    1.6831 C   0  0  0  0  0  0  0  0  0  0  0  0
    5.9921   -0.2915    0.4850 N   0  0  0  0  0  0  0  0  0  0  0  0
    3.2254   -1.1697    1.6794 C   0  0  0  0  0  0  0  0  0  0  0  0
    3.1820   -0.1039    1.0518 O   0  0  0  0  0  0  0  0  0  0  0  0
    2.1740   -1.6425    2.3871 O   0  0  0  0  0  0  0  0  0  0  0  0
    2.2399   -2.8945    3.0395 C   0  0  2  0  0  0  0  0  0  0  0  0
    1.1309   -3.2168    4.0245 C   0  0  0  0  0  0  0  0  0  0  0  0
    1.6940   -4.4069    4.8306 C   0  0  1  0  0  0  0  0  0  0  0  0
    1.3462   -5.7409    4.0855 C   0  0  2  0  0  0  0  0  0  0  0  0
   -0.0644   -6.2190    4.4861 C   0  0  0  0  0  0  0  0  0  0  0  0
   -0.5064   -7.4723    3.7295 C   0  0  0  0  0  0  0  0  0  0  0  0
    0.5124   -8.5955    3.9242 C   0  0  1  0  0  0  0  0  0  0  0  0
    0.0489   -9.9085    3.2765 C   0  0  0  0  0  0  0  0  0  0  0  0
    1.0120  -11.0431    3.6521 C   0  0  1  0  0  0  0  0  0  0  0  0
    0.6210  -12.1427    2.8931 O   0  0  0  0  0  0  0  0  0  0  0  0
    2.4647  -10.7186    3.2927 C   0  0  0  0  0  0  0  0  0  0  0  0
    2.8955   -9.3691    3.8782 C   0  0  0  0  0  0  0  0  0  0  0  0
    1.9538   -8.1911    3.4885 C   0  0  1  0  0  0  0  0  0  0  0  0
    2.0468   -7.9575    1.9518 C   0  0  0  0  0  0  0  0  0  0  0  0
    2.3528   -6.8996    4.2783 C   0  0  1  0  0  0  0  0  0  0  0  0
    3.7753   -6.3758    4.0225 C   0  0  0  0  0  0  0  0  0  0  0  0
    4.1100   -5.3044    5.0562 C   0  0  0  0  0  0  0  0  0  0  0  0
    3.2085   -4.0443    4.9985 C   0  0  2  0  0  0  0  0  0  0  0  0
    3.4023   -3.3402    6.3661 C   0  0  0  0  0  0  0  0  0  0  0  0
    3.4809   -2.9369    3.9089 C   0  0  1  0  0  0  0  0  0  0  0  0
    4.6354   -2.9656    2.9116 C   0  0  0  0  0  0  0  0  0  0  0  0
    5.5962   -3.7186    3.0262 O   0  0  0  0  0  0  0  0  0  0  0  0
    3.7592   -3.6392    0.4317 H   0  0  0  0  0  0  0  0  0  0  0  0
    5.5070   -3.4768    0.3514 H   0  0  0  0  0  0  0  0  0  0  0  0
    4.4787   -2.3371   -0.5077 H   0  0  0  0  0  0  0  0  0  0  0  0
    5.7063   -0.3829    2.5181 H   0  0  0  0  0  0  0  0  0  0  0  0
    6.7206   -1.6454    1.8565 H   0  0  0  0  0  0  0  0  0  0  0  0
    5.1746    0.2955    0.3279 H   0  0  0  0  0  0  0  0  0  0  0  0
    6.7717    0.3431    0.6554 H   0  0  0  0  0  0  0  0  0  0  0  0
    2.2974   -3.7019    2.2976 H   0  0  0  0  0  0  0  0  0  0  0  0
    0.9779   -2.3552    4.6851 H   0  0  0  0  0  0  0  0  0  0  0  0
    0.2000   -3.4143    3.5152 H   0  0  0  0  0  0  0  0  0  0  0  0
    1.2316   -4.4400    5.8197 H   0  0  0  0  0  0  0  0  0  0  0  0
    1.3339   -5.5053    3.0203 H   0  0  0  0  0  0  0  0  0  0  0  0
   -0.0931   -6.4179    5.5624 H   0  0  0  0  0  0  0  0  0  0  0  0
   -0.8006   -5.4558    4.2993 H   0  0  0  0  0  0  0  0  0  0  0  0
   -1.4774   -7.7864    4.1141 H   0  0  0  0  0  0  0  0  0  0  0  0
   -0.6382   -7.2546    2.6690 H   0  0  0  0  0  0  0  0  0  0  0  0
    0.5287   -8.7957    4.9964 H   0  0  0  0  0  0  0  0  0  0  0  0
   -0.9544  -10.1637    3.6030 H   0  0  0  0  0  0  0  0  0  0  0  0
   -0.0262   -9.8106    2.1939 H   0  0  0  0  0  0  0  0  0  0  0  0
    0.9301  -11.2891    4.7174 H   0  0  0  0  0  0  0  0  0  0  0  0
    1.1589  -12.8989    3.1258 H   0  0  0  0  0  0  0  0  0  0  0  0
    3.1133  -11.5123    3.6670 H   0  0  0  0  0  0  0  0  0  0  0  0
    2.6059  -10.7186    2.2112 H   0  0  0  0  0  0  0  0  0  0  0  0
    2.9160   -9.4665    4.9668 H   0  0  0  0  0  0  0  0  0  0  0  0
    3.9127   -9.1794    3.5580 H   0  0  0  0  0  0  0  0  0  0  0  0
    3.0579   -7.7003    1.6525 H   0  0  0  0  0  0  0  0  0  0  0  0
    1.3862   -7.1585    1.6135 H   0  0  0  0  0  0  0  0  0  0  0  0
    1.7639   -8.8406    1.3808 H   0  0  0  0  0  0  0  0  0  0  0  0
    2.3165   -7.1684    5.3385 H   0  0  0  0  0  0  0  0  0  0  0  0
    4.5019   -7.1798    4.1199 H   0  0  0  0  0  0  0  0  0  0  0  0
    3.8763   -5.9633    3.0185 H   0  0  0  0  0  0  0  0  0  0  0  0
    4.0153   -5.7644    6.0405 H   0  0  0  0  0  0  0  0  0  0  0  0
    5.1681   -5.0476    4.9824 H   0  0  0  0  0  0  0  0  0  0  0  0
    4.4379   -3.0329    6.5192 H   0  0  0  0  0  0  0  0  0  0  0  0
    3.1306   -4.0053    7.1873 H   0  0  0  0  0  0  0  0  0  0  0  0
    2.7741   -2.4566    6.4486 H   0  0  0  0  0  0  0  0  0  0  0  0
    3.5667   -1.9784    4.4255 H   0  0  0  0  0  0  0  0  0  0  0  0
  2  1  1  6
  1 30  1  0
  1 31  1  0
  1 32  1  0
  2 28  1  0
  2  3  1  0
  2  5  1  0
  3  4  1  0
  3 33  1  0
  3 34  1  0
  4 35  1  0
  4 36  1  0
  5  6  2  0
  5  7  1  0
  7  8  1  0
  8 27  1  0
  8  9  1  0
  8 37  1  6
  9 10  1  0
  9 38  1  0
  9 39  1  0
 10 25  1  0
 10 11  1  0
 10 40  1  1
 11 22  1  0
 11 12  1  0
 11 41  1  6
 12 13  1  0
 12 42  1  0
 12 43  1  0
 13 14  1  0
 13 44  1  0
 13 45  1  0
 14 20  1  0
 14 15  1  0
 14 46  1  1
 15 16  1  0
 15 47  1  0
 15 48  1  0
 16 17  1  0
 16 18  1  0
 16 49  1  1
 17 50  1  0
 18 19  1  0
 18 51  1  0
 18 52  1  0
 19 20  1  0
 19 53  1  0
 19 54  1  0
 20 21  1  6
 20 22  1  0
 21 55  1  0
 21 56  1  0
 21 57  1  0
 22 23  1  0
 22 58  1  1
 23 24  1  0
 23 59  1  0
 23 60  1  0
 24 25  1  0
 24 61  1  0
 24 62  1  0
 25 26  1  1
 25 27  1  0
 26 63  1  0
 26 64  1  0
 26 65  1  0
 27 28  1  0
 27 66  1  1
 28 29  2  0
M  END
>  <i_m_ct_stereo_status>  (259) 
1

>  <s_m_source_file>  (259) 
/var/tmp/pbs.5076255.sched01/tmp0eyfkrct/966b1hsbd3.sdf

>  <i_m_source_file_index>  (259) 
18

>  <i_lp_mmshare_version>  (259) 
48012

>  <i_f3d_flags>  (259) 
0

>  <s_epik_input>  (259) 
W05IMl1bQ0gyXVtDQEBdKFtDSDNdKShDMT1PKUMoPU8pT1tDQEhdKFtDSDJdMilbQ0BIXTFbQ0BdKFtDSDNdKShbQ0gyXVtDSDJdW0NAQEhdMzQpW0NAQEhdMltDQEBIXTNbQ0gyXVtDSDJdW0NASF0oW0NAQF00NVtDSDNdKVtDSDJdW0NAQEhdKFtPSF0pW0NIMl1bQ0gyXTU=

>  <s_epik_cmdline>  (259) 
J2VwaWtfcHl0aG9uJywgJy1waHQnLCAnMi4wJywgJy1waCcsICc3LjAnLCAnLXRuJywgJzgnLCAnLW1hJywgJzIwMCcsICctaW1hZScsICc8aW5maWxlLm1hZT4nLCAnLW9tYWUnLCAnPG91dGZpbGUubWFlPic=

>  <r_epik_Ionization_Penalty>  (259) 
1.63877

>  <r_epik_Ionization_Penalty_Charging>  (259) 
0

>  <r_epik_Ionization_Penalty_Neutral>  (259) 
1.63877

>  <r_epik_State_Penalty>  (259) 
1.7399

>  <r_epik_Charging_Adjusted_Penalty>  (259) 
1.7399

>  <i_epik_Tot_Q>  (259) 
0

>  <i_epik_Tot_abs_Q>  (259) 
0

>  <s_epik_Chemistry_Notes>  (259) 
This compound has an ester and may undergo hydrolysis at high or low pH.

>  <s_lp_Force_Field>  (259) 
OPLS3e

>  <r_lp_Energy>  (259) 
52.5499

>  <b_lp_Chiralities_Consistent>  (259) 
1

>  <s_lp_Variant>  (259) 
75:0-2

>  <s_i_glide_gridfile>  (259) 
pfpi4k_grid

>  <i_i_glide_lignum>  (259) 
18

>  <i_i_glide_rotatable_bonds>  (259) 
2

>  <r_i_docking_score>  (259) 
-4.08128

>  <r_i_glide_ligand_efficiency>  (259) 
-0.140734

>  <r_i_glide_ligand_efficiency_sa>  (259) 
-0.432379

>  <r_i_glide_ligand_efficiency_ln>  (259) 
-0.93451

>  <r_i_glide_gscore>  (259) 
-4.08128

>  <r_i_glide_lipo>  (259) 
-0.379978

>  <r_i_glide_hbond>  (259) 
-0.643371

>  <r_i_glide_metal>  (259) 
-0

>  <r_i_glide_rewards>  (259) 
-1.19706

>  <r_i_glide_evdw>  (259) 
-14.9541

>  <r_i_glide_ecoul>  (259) 
-7.26387

>  <r_i_glide_erotb>  (259) 
0

>  <r_i_glide_esite>  (259) 
-0.0235831

>  <r_i_glide_emodel>  (259) 
-29.8185

>  <r_i_glide_energy>  (259) 
-22.2179

>  <r_i_glide_einternal>  (259) 
9.2942

>  <r_i_glide_intrahb_reward>  (259) 
-0.5

>  <i_i_glide_confnum>  (259) 
2

>  <i_i_glide_posenum>  (259) 
11

>  <r_i_glide_eff_state_penalty>  (259) 
0

>  <ligand_id>  (259) 
75

>  <original_smiles>  (259) 
CC1(CN)C(=O)OC2CC3C4CCC5CC(O)CCC5(C)C4CCC3(C)C2C1=O

>  <smiles>  (259) 
[H]OC1([H])C([H])([H])C([H])([H])C2(C([H])([H])[H])C([H])(C([H])([H])C([H])([H])C3([H])C4([H])C([H])([H])C5([H])OC(=O)C(C([H])([H])[H])(C([H])([H])N([H])[H])C(=O)C5([H])C4(C([H])([H])[H])C([H])([H])C([H])([H])C32[H])C1([H])[H]

$$$$
75:1:1
     RDKit          3D

 66 70  0  0  1  0  0  0  0  0999 V2000
    0.6977   -3.0698    5.1568 C   0  0  0  0  0  0  0  0  0  0  0  0
    0.5194   -3.3089    6.6757 C   0  0  1  0  0  0  0  0  0  0  0  0
    0.4893   -1.9219    7.4009 C   0  0  0  0  0  0  0  0  0  0  0  0
    0.2343   -1.9983    8.8397 N   0  0  0  0  0  0  0  0  0  0  0  0
   -0.8321   -4.0667    6.8836 C   0  0  0  0  0  0  0  0  0  0  0  0
   -1.9023   -3.4537    6.8722 O   0  0  0  0  0  0  0  0  0  0  0  0
   -0.8059   -5.4099    7.0448 O   0  0  0  0  0  0  0  0  0  0  0  0
    0.3974   -6.1167    6.8767 C   0  0  2  0  0  0  0  0  0  0  0  0
    0.3474   -7.5706    7.3119 C   0  0  0  0  0  0  0  0  0  0  0  0
    1.8397   -7.9323    7.4070 C   0  0  1  0  0  0  0  0  0  0  0  0
    2.3184   -8.4133    5.9987 C   0  0  2  0  0  0  0  0  0  0  0  0
    1.9958   -9.9109    5.8144 C   0  0  0  0  0  0  0  0  0  0  0  0
    2.3997  -10.4341    4.4328 C   0  0  0  0  0  0  0  0  0  0  0  0
    3.8839  -10.1538    4.1413 C   0  0  1  0  0  0  0  0  0  0  0  0
    4.3483  -10.7803    2.8115 C   0  0  0  0  0  0  0  0  0  0  0  0
    5.8606  -10.6092    2.5893 C   0  0  1  0  0  0  0  0  0  0  0  0
    6.2258  -11.0379    1.2891 O   0  0  0  0  0  0  0  0  0  0  0  0
    6.3034   -9.1463    2.7611 C   0  0  0  0  0  0  0  0  0  0  0  0
    5.7773   -8.5271    4.0725 C   0  0  0  0  0  0  0  0  0  0  0  0
    4.2375   -8.6381    4.2523 C   0  0  1  0  0  0  0  0  0  0  0  0
    3.5333   -7.7968    3.1518 C   0  0  0  0  0  0  0  0  0  0  0  0
    3.8138   -8.1540    5.6847 C   0  0  1  0  0  0  0  0  0  0  0  0
    4.1433   -6.6844    6.0049 C   0  0  0  0  0  0  0  0  0  0  0  0
    3.9510   -6.4380    7.5003 C   0  0  0  0  0  0  0  0  0  0  0  0
    2.4995   -6.6397    8.0058 C   0  0  2  0  0  0  0  0  0  0  0  0
    2.6081   -6.8074    9.5377 C   0  0  0  0  0  0  0  0  0  0  0  0
    1.4449   -5.5056    7.7705 C   0  0  1  0  0  0  0  0  0  0  0  0
    1.7426   -4.1264    7.1756 C   0  0  0  0  0  0  0  0  0  0  0  0
    2.8798   -3.6583    7.1077 O   0  0  0  0  0  0  0  0  0  0  0  0
    0.7635   -4.0173    4.6164 H   0  0  0  0  0  0  0  0  0  0  0  0
    1.6152   -2.5174    4.9328 H   0  0  0  0  0  0  0  0  0  0  0  0
   -0.1336   -2.5067    4.7208 H   0  0  0  0  0  0  0  0  0  0  0  0
    1.4441   -1.4046    7.2639 H   0  0  0  0  0  0  0  0  0  0  0  0
   -0.2598   -1.2677    6.9471 H   0  0  0  0  0  0  0  0  0  0  0  0
    0.9889   -2.4992    9.2920 H   0  0  0  0  0  0  0  0  0  0  0  0
    0.2520   -1.0724    9.2505 H   0  0  0  0  0  0  0  0  0  0  0  0
    0.7044   -6.0544    5.8317 H   0  0  0  0  0  0  0  0  0  0  0  0
   -0.1311   -7.6405    8.2881 H   0  0  0  0  0  0  0  0  0  0  0  0
   -0.2081   -8.1928    6.6079 H   0  0  0  0  0  0  0  0  0  0  0  0
    1.9656   -8.7570    8.1109 H   0  0  0  0  0  0  0  0  0  0  0  0
    1.7404   -7.8622    5.2593 H   0  0  0  0  0  0  0  0  0  0  0  0
    2.5273  -10.4882    6.5729 H   0  0  0  0  0  0  0  0  0  0  0  0
    0.9341  -10.1088    5.9756 H   0  0  0  0  0  0  0  0  0  0  0  0
    2.2190  -11.5116    4.4078 H   0  0  0  0  0  0  0  0  0  0  0  0
    1.7626   -9.9924    3.6663 H   0  0  0  0  0  0  0  0  0  0  0  0
    4.4400  -10.6793    4.9176 H   0  0  0  0  0  0  0  0  0  0  0  0
    4.1161  -11.8471    2.8141 H   0  0  0  0  0  0  0  0  0  0  0  0
    3.7889  -10.3472    1.9837 H   0  0  0  0  0  0  0  0  0  0  0  0
    6.3939  -11.2253    3.3172 H   0  0  0  0  0  0  0  0  0  0  0  0
    5.4615  -11.4810    0.8948 H   0  0  0  0  0  0  0  0  0  0  0  0
    7.3924   -9.0992    2.7495 H   0  0  0  0  0  0  0  0  0  0  0  0
    5.9751   -8.5486    1.9108 H   0  0  0  0  0  0  0  0  0  0  0  0
    6.2733   -9.0170    4.9095 H   0  0  0  0  0  0  0  0  0  0  0  0
    6.0951   -7.4865    4.0948 H   0  0  0  0  0  0  0  0  0  0  0  0
    3.8046   -6.7429    3.2214 H   0  0  0  0  0  0  0  0  0  0  0  0
    2.4484   -7.8585    3.2082 H   0  0  0  0  0  0  0  0  0  0  0  0
    3.7992   -8.1218    2.1473 H   0  0  0  0  0  0  0  0  0  0  0  0
    4.3882   -8.7510    6.3902 H   0  0  0  0  0  0  0  0  0  0  0  0
    5.1825   -6.4571    5.7641 H   0  0  0  0  0  0  0  0  0  0  0  0
    3.5201   -5.9949    5.4347 H   0  0  0  0  0  0  0  0  0  0  0  0
    4.6064   -7.1354    8.0305 H   0  0  0  0  0  0  0  0  0  0  0  0
    4.3323   -5.4561    7.7668 H   0  0  0  0  0  0  0  0  0  0  0  0
    3.0252   -5.9180   10.0144 H   0  0  0  0  0  0  0  0  0  0  0  0
    3.2476   -7.6528    9.7963 H   0  0  0  0  0  0  0  0  0  0  0  0
    1.6327   -6.9989    9.9891 H   0  0  0  0  0  0  0  0  0  0  0  0
    0.9834   -5.2828    8.7354 H   0  0  0  0  0  0  0  0  0  0  0  0
  2  1  1  6
  1 30  1  0
  1 31  1  0
  1 32  1  0
  2 28  1  0
  2  3  1  0
  2  5  1  0
  3  4  1  0
  3 33  1  0
  3 34  1  0
  4 35  1  0
  4 36  1  0
  5  6  2  0
  5  7  1  0
  7  8  1  0
  8 27  1  0
  8  9  1  0
  8 37  1  6
  9 10  1  0
  9 38  1  0
  9 39  1  0
 10 25  1  0
 10 11  1  0
 10 40  1  1
 11 22  1  0
 11 12  1  0
 11 41  1  6
 12 13  1  0
 12 42  1  0
 12 43  1  0
 13 14  1  0
 13 44  1  0
 13 45  1  0
 14 20  1  0
 14 15  1  0
 14 46  1  1
 15 16  1  0
 15 47  1  0
 15 48  1  0
 16 17  1  0
 16 18  1  0
 16 49  1  1
 17 50  1  0
 18 19  1  0
 18 51  1  0
 18 52  1  0
 19 20  1  0
 19 53  1  0
 19 54  1  0
 20 21  1  6
 20 22  1  0
 21 55  1  0
 21 56  1  0
 21 57  1  0
 22 23  1  0
 22 58  1  1
 23 24  1  0
 23 59  1  0
 23 60  1  0
 24 25  1  0
 24 61  1  0
 24 62  1  0
 25 26  1  1
 25 27  1  0
 26 63  1  0
 26 64  1  0
 26 65  1  0
 27 28  1  0
 27 66  1  1
 28 29  2  0
M  END
>  <i_m_ct_stereo_status>  (260) 
1

>  <s_m_source_file>  (260) 
/var/tmp/pbs.5076255.sched01/tmp0eyfkrct/966b1hsbd3.sdf

>  <i_m_source_file_index>  (260) 
18

>  <i_lp_mmshare_version>  (260) 
48012

>  <i_f3d_flags>  (260) 
0

>  <s_epik_input>  (260) 
W05IMl1bQ0gyXVtDQEBdKFtDSDNdKShDMT1PKUMoPU8pT1tDQEhdKFtDSDJdMilbQ0BIXTFbQ0BdKFtDSDNdKShbQ0gyXVtDSDJdW0NAQEhdMzQpW0NAQEhdMltDQEBIXTNbQ0gyXVtDSDJdW0NASF0oW0NAQF00NVtDSDNdKVtDSDJdW0NAQEhdKFtPSF0pW0NIMl1bQ0gyXTU=

>  <s_epik_cmdline>  (260) 
J2VwaWtfcHl0aG9uJywgJy1waHQnLCAnMi4wJywgJy1waCcsICc3LjAnLCAnLXRuJywgJzgnLCAnLW1hJywgJzIwMCcsICctaW1hZScsICc8aW5maWxlLm1hZT4nLCAnLW9tYWUnLCAnPG91dGZpbGUubWFlPic=

>  <r_epik_Ionization_Penalty>  (260) 
1.63877

>  <r_epik_Ionization_Penalty_Charging>  (260) 
0

>  <r_epik_Ionization_Penalty_Neutral>  (260) 
1.63877

>  <r_epik_State_Penalty>  (260) 
1.7399

>  <r_epik_Charging_Adjusted_Penalty>  (260) 
1.7399

>  <i_epik_Tot_Q>  (260) 
0

>  <i_epik_Tot_abs_Q>  (260) 
0

>  <s_epik_Chemistry_Notes>  (260) 
This compound has an ester and may undergo hydrolysis at high or low pH.

>  <s_lp_Force_Field>  (260) 
OPLS3e

>  <r_lp_Energy>  (260) 
52.5499

>  <b_lp_Chiralities_Consistent>  (260) 
1

>  <s_lp_Variant>  (260) 
75:0-2

>  <s_i_glide_gridfile>  (260) 
pfpi4k_grid

>  <i_i_glide_lignum>  (260) 
18

>  <i_i_glide_rotatable_bonds>  (260) 
2

>  <r_i_docking_score>  (260) 
-3.22807

>  <r_i_glide_ligand_efficiency>  (260) 
-0.111313

>  <r_i_glide_ligand_efficiency_sa>  (260) 
-0.341988

>  <r_i_glide_ligand_efficiency_ln>  (260) 
-0.739147

>  <r_i_glide_gscore>  (260) 
-3.22807

>  <r_i_glide_lipo>  (260) 
-0.00868111

>  <r_i_glide_hbond>  (260) 
-0.285869

>  <r_i_glide_metal>  (260) 
-0

>  <r_i_glide_rewards>  (260) 
-0.65758

>  <r_i_glide_evdw>  (260) 
-13.4371

>  <r_i_glide_ecoul>  (260) 
-10.5275

>  <r_i_glide_erotb>  (260) 
0

>  <r_i_glide_esite>  (260) 
-0.0249599

>  <r_i_glide_emodel>  (260) 
-28.9533

>  <r_i_glide_energy>  (260) 
-23.9646

>  <r_i_glide_einternal>  (260) 
1.54853

>  <r_i_glide_intrahb_reward>  (260) 
-0

>  <i_i_glide_confnum>  (260) 
2

>  <i_i_glide_posenum>  (260) 
3

>  <r_i_glide_eff_state_penalty>  (260) 
0

>  <ligand_id>  (260) 
75

>  <original_smiles>  (260) 
CC1(CN)C(=O)OC2CC3C4CCC5CC(O)CCC5(C)C4CCC3(C)C2C1=O

>  <smiles>  (260) 
[H]OC1([H])C([H])([H])C([H])([H])C2(C([H])([H])[H])C([H])(C([H])([H])C([H])([H])C3([H])C4([H])C([H])([H])C5([H])OC(=O)C(C([H])([H])[H])(C([H])([H])N([H])[H])C(=O)C5([H])C4(C([H])([H])[H])C([H])([H])C([H])([H])C32[H])C1([H])[H]

$$$$
75:1:2
     RDKit          3D

 66 70  0  0  1  0  0  0  0  0999 V2000
    0.2512   -0.3835    3.6634 C   0  0  0  0  0  0  0  0  0  0  0  0
    0.2457   -0.3764    5.2096 C   0  0  1  0  0  0  0  0  0  0  0  0
    0.4581    1.0784    5.7249 C   0  0  0  0  0  0  0  0  0  0  0  0
    0.4416    1.1952    7.1811 N   0  0  0  0  0  0  0  0  0  0  0  0
   -1.1561   -0.8969    5.6843 C   0  0  0  0  0  0  0  0  0  0  0  0
   -2.1303   -0.1401    5.7184 O   0  0  0  0  0  0  0  0  0  0  0  0
   -1.2704   -2.2068    6.0274 O   0  0  0  0  0  0  0  0  0  0  0  0
   -0.1798   -3.0872    5.8636 C   0  0  2  0  0  0  0  0  0  0  0  0
   -0.3218   -4.4527    6.5245 C   0  0  0  0  0  0  0  0  0  0  0  0
    1.1273   -4.9848    6.5042 C   0  0  1  0  0  0  0  0  0  0  0  0
    1.3752   -5.7166    5.1444 C   0  0  2  0  0  0  0  0  0  0  0  0
    0.8788   -7.1760    5.2297 C   0  0  0  0  0  0  0  0  0  0  0  0
    1.0463   -7.9327    3.9062 C   0  0  0  0  0  0  0  0  0  0  0  0
    2.5018   -7.8825    3.4119 C   0  0  1  0  0  0  0  0  0  0  0  0
    2.7208   -8.7465    2.1504 C   0  0  0  0  0  0  0  0  0  0  0  0
    4.2011   -8.7975    1.7484 C   0  0  1  0  0  0  0  0  0  0  0  0
    4.3135   -9.4372    0.4953 O   0  0  0  0  0  0  0  0  0  0  0  0
    4.8136   -7.3885    1.6382 C   0  0  0  0  0  0  0  0  0  0  0  0
    4.5334   -6.5237    2.8859 C   0  0  0  0  0  0  0  0  0  0  0  0
    3.0249   -6.4180    3.2524 C   0  0  1  0  0  0  0  0  0  0  0  0
    2.2803   -5.6574    2.1186 C   0  0  0  0  0  0  0  0  0  0  0  0
    2.8402   -5.6925    4.6331 C   0  0  1  0  0  0  0  0  0  0  0  0
    3.3619   -4.2432    4.6847 C   0  0  0  0  0  0  0  0  0  0  0  0
    3.3873   -3.7681    6.1364 C   0  0  0  0  0  0  0  0  0  0  0  0
    1.9952   -3.7153    6.8208 C   0  0  2  0  0  0  0  0  0  0  0  0
    2.2838   -3.6842    8.3427 C   0  0  0  0  0  0  0  0  0  0  0  0
    1.0464   -2.4998    6.5259 C   0  0  1  0  0  0  0  0  0  0  0  0
    1.4237   -1.2717    5.6937 C   0  0  0  0  0  0  0  0  0  0  0  0
    2.5870   -0.9677    5.4404 O   0  0  0  0  0  0  0  0  0  0  0  0
    0.1512   -1.4035    3.2760 H   0  0  0  0  0  0  0  0  0  0  0  0
    1.1808    0.0191    3.2593 H   0  0  0  0  0  0  0  0  0  0  0  0
   -0.5702    0.2067    3.2469 H   0  0  0  0  0  0  0  0  0  0  0  0
    1.4071    1.4778    5.3620 H   0  0  0  0  0  0  0  0  0  0  0  0
   -0.3120    1.7399    5.3238 H   0  0  0  0  0  0  0  0  0  0  0  0
    1.2396    0.7174    7.5828 H   0  0  0  0  0  0  0  0  0  0  0  0
    0.5412    2.1692    7.4443 H   0  0  0  0  0  0  0  0  0  0  0  0
    0.0026   -3.2222    4.7963 H   0  0  0  0  0  0  0  0  0  0  0  0
   -0.6657   -4.3318    7.5536 H   0  0  0  0  0  0  0  0  0  0  0  0
   -1.0351   -5.0934    6.0101 H   0  0  0  0  0  0  0  0  0  0  0  0
    1.2608   -5.7154    7.3072 H   0  0  0  0  0  0  0  0  0  0  0  0
    0.7721   -5.2081    4.3923 H   0  0  0  0  0  0  0  0  0  0  0  0
    1.4375   -7.7015    6.0076 H   0  0  0  0  0  0  0  0  0  0  0  0
   -0.1677   -7.2124    5.5321 H   0  0  0  0  0  0  0  0  0  0  0  0
    0.7506   -8.9735    4.0607 H   0  0  0  0  0  0  0  0  0  0  0  0
    0.3672   -7.5282    3.1542 H   0  0  0  0  0  0  0  0  0  0  0  0
    3.0974   -8.3553    4.1942 H   0  0  0  0  0  0  0  0  0  0  0  0
    2.3786   -9.7642    2.3384 H   0  0  0  0  0  0  0  0  0  0  0  0
    2.1152   -8.3747    1.3267 H   0  0  0  0  0  0  0  0  0  0  0  0
    4.7645   -9.3587    2.4930 H   0  0  0  0  0  0  0  0  0  0  0  0
    4.2117  -10.3960    0.5810 H   0  0  0  0  0  0  0  0  0  0  0  0
    5.8924   -7.4716    1.5010 H   0  0  0  0  0  0  0  0  0  0  0  0
    4.4493   -6.8764    0.7485 H   0  0  0  0  0  0  0  0  0  0  0  0
    5.0787   -6.9480    3.7302 H   0  0  0  0  0  0  0  0  0  0  0  0
    4.9617   -5.5369    2.7163 H   0  0  0  0  0  0  0  0  0  0  0  0
    2.6680   -4.6466    1.9948 H   0  0  0  0  0  0  0  0  0  0  0  0
    1.2107   -5.5760    2.3040 H   0  0  0  0  0  0  0  0  0  0  0  0
    2.3819   -6.1488    1.1515 H   0  0  0  0  0  0  0  0  0  0  0  0
    3.4358   -6.2555    5.3536 H   0  0  0  0  0  0  0  0  0  0  0  0
    4.3791   -4.1809    4.2992 H   0  0  0  0  0  0  0  0  0  0  0  0
    2.7518   -3.5708    4.0813 H   0  0  0  0  0  0  0  0  0  0  0  0
    4.0288   -4.4599    6.6868 H   0  0  0  0  0  0  0  0  0  0  0  0
    3.9087   -2.8139    6.2100 H   0  0  0  0  0  0  0  0  0  0  0  0
    2.8510   -2.7959    8.6278 H   0  0  0  0  0  0  0  0  0  0  0  0
    2.8613   -4.5582    8.6560 H   0  0  0  0  0  0  0  0  0  0  0  0
    1.3612   -3.6900    8.9246 H   0  0  0  0  0  0  0  0  0  0  0  0
    0.7448   -2.0898    7.4898 H   0  0  0  0  0  0  0  0  0  0  0  0
  2  1  1  6
  1 30  1  0
  1 31  1  0
  1 32  1  0
  2 28  1  0
  2  3  1  0
  2  5  1  0
  3  4  1  0
  3 33  1  0
  3 34  1  0
  4 35  1  0
  4 36  1  0
  5  6  2  0
  5  7  1  0
  7  8  1  0
  8 27  1  0
  8  9  1  0
  8 37  1  6
  9 10  1  0
  9 38  1  0
  9 39  1  0
 10 25  1  0
 10 11  1  0
 10 40  1  1
 11 22  1  0
 11 12  1  0
 11 41  1  6
 12 13  1  0
 12 42  1  0
 12 43  1  0
 13 14  1  0
 13 44  1  0
 13 45  1  0
 14 20  1  0
 14 15  1  0
 14 46  1  1
 15 16  1  0
 15 47  1  0
 15 48  1  0
 16 17  1  0
 16 18  1  0
 16 49  1  1
 17 50  1  0
 18 19  1  0
 18 51  1  0
 18 52  1  0
 19 20  1  0
 19 53  1  0
 19 54  1  0
 20 21  1  6
 20 22  1  0
 21 55  1  0
 21 56  1  0
 21 57  1  0
 22 23  1  0
 22 58  1  1
 23 24  1  0
 23 59  1  0
 23 60  1  0
 24 25  1  0
 24 61  1  0
 24 62  1  0
 25 26  1  1
 25 27  1  0
 26 63  1  0
 26 64  1  0
 26 65  1  0
 27 28  1  0
 27 66  1  1
 28 29  2  0
M  END
>  <i_m_ct_stereo_status>  (261) 
1

>  <s_m_source_file>  (261) 
/var/tmp/pbs.5076255.sched01/tmp0eyfkrct/966b1hsbd3.sdf

>  <i_m_source_file_index>  (261) 
18

>  <i_lp_mmshare_version>  (261) 
48012

>  <i_f3d_flags>  (261) 
0

>  <s_epik_input>  (261) 
W05IMl1bQ0gyXVtDQEBdKFtDSDNdKShDMT1PKUMoPU8pT1tDQEhdKFtDSDJdMilbQ0BIXTFbQ0BdKFtDSDNdKShbQ0gyXVtDSDJdW0NAQEhdMzQpW0NAQEhdMltDQEBIXTNbQ0gyXVtDSDJdW0NASF0oW0NAQF00NVtDSDNdKVtDSDJdW0NAQEhdKFtPSF0pW0NIMl1bQ0gyXTU=

>  <s_epik_cmdline>  (261) 
J2VwaWtfcHl0aG9uJywgJy1waHQnLCAnMi4wJywgJy1waCcsICc3LjAnLCAnLXRuJywgJzgnLCAnLW1hJywgJzIwMCcsICctaW1hZScsICc8aW5maWxlLm1hZT4nLCAnLW9tYWUnLCAnPG91dGZpbGUubWFlPic=

>  <r_epik_Ionization_Penalty>  (261) 
1.63877

>  <r_epik_Ionization_Penalty_Charging>  (261) 
0

>  <r_epik_Ionization_Penalty_Neutral>  (261) 
1.63877

>  <r_epik_State_Penalty>  (261) 
1.7399

>  <r_epik_Charging_Adjusted_Penalty>  (261) 
1.7399

>  <i_epik_Tot_Q>  (261) 
0

>  <i_epik_Tot_abs_Q>  (261) 
0

>  <s_epik_Chemistry_Notes>  (261) 
This compound has an ester and may undergo hydrolysis at high or low pH.

>  <s_lp_Force_Field>  (261) 
OPLS3e

>  <r_lp_Energy>  (261) 
52.5499

>  <b_lp_Chiralities_Consistent>  (261) 
1

>  <s_lp_Variant>  (261) 
75:0-2

>  <s_i_glide_gridfile>  (261) 
pfpi4k_grid

>  <i_i_glide_lignum>  (261) 
18

>  <i_i_glide_rotatable_bonds>  (261) 
2

>  <r_i_docking_score>  (261) 
-2.90496

>  <r_i_glide_ligand_efficiency>  (261) 
-0.100171

>  <r_i_glide_ligand_efficiency_sa>  (261) 
-0.307757

>  <r_i_glide_ligand_efficiency_ln>  (261) 
-0.665161

>  <r_i_glide_gscore>  (261) 
-2.90496

>  <r_i_glide_lipo>  (261) 
-0.0669967

>  <r_i_glide_hbond>  (261) 
-0.249815

>  <r_i_glide_metal>  (261) 
-0

>  <r_i_glide_rewards>  (261) 
-0.65758

>  <r_i_glide_evdw>  (261) 
-15.5337

>  <r_i_glide_ecoul>  (261) 
-7.32467

>  <r_i_glide_erotb>  (261) 
0

>  <r_i_glide_esite>  (261) 
-0.0551765

>  <r_i_glide_emodel>  (261) 
-27.7096

>  <r_i_glide_energy>  (261) 
-22.8584

>  <r_i_glide_einternal>  (261) 
0.507435

>  <r_i_glide_intrahb_reward>  (261) 
-0

>  <i_i_glide_confnum>  (261) 
2

>  <i_i_glide_posenum>  (261) 
1

>  <r_i_glide_eff_state_penalty>  (261) 
0

>  <ligand_id>  (261) 
75

>  <original_smiles>  (261) 
CC1(CN)C(=O)OC2CC3C4CCC5CC(O)CCC5(C)C4CCC3(C)C2C1=O

>  <smiles>  (261) 
[H]OC1([H])C([H])([H])C([H])([H])C2(C([H])([H])[H])C([H])(C([H])([H])C([H])([H])C3([H])C4([H])C([H])([H])C5([H])OC(=O)C(C([H])([H])[H])(C([H])([H])N([H])[H])C(=O)C5([H])C4(C([H])([H])[H])C([H])([H])C([H])([H])C32[H])C1([H])[H]

$$$$
76:0:0
     RDKit          3D

 79 83  0  0  1  0  0  0  0  0999 V2000
    3.4446   -1.9186   -0.8003 C   0  0  0  0  0  0  0  0  0  0  0  0
    4.9049   -2.3983   -0.5842 C   0  0  0  0  0  0  0  0  0  0  0  0
    5.4902   -2.7000   -1.9838 C   0  0  0  0  0  0  0  0  0  0  0  0
    5.7534   -1.2653    0.0352 C   0  0  0  0  0  0  0  0  0  0  0  0
    5.4408   -1.0149    1.5168 C   0  0  0  0  0  0  0  0  0  0  0  0
    5.5455   -2.2967    2.3680 C   0  0  0  0  0  0  0  0  0  0  0  0
    4.7198   -3.5069    1.8526 C   0  0  2  0  0  0  0  0  0  0  0  0
    3.2154   -3.2101    2.0906 C   0  0  0  0  0  0  0  0  0  0  0  0
    5.0646   -4.8007    2.6704 C   0  0  0  0  0  0  0  0  0  0  0  0
    5.0073   -4.7336    4.0159 C   0  0  0  0  0  0  0  0  0  0  0  0
    5.0087   -5.9156    4.9501 C   0  0  0  0  0  0  0  0  0  0  0  0
    4.3848   -7.1576    4.2959 C   0  0  1  0  0  0  0  0  0  0  0  0
    2.8213   -7.2556    4.4131 C   0  0  1  0  0  0  0  0  0  0  0  0
    2.0918   -5.9888    3.9057 C   0  0  0  0  0  0  0  0  0  0  0  0
    0.5706   -6.0448    4.0064 C   0  0  0  0  0  0  0  0  0  0  0  0
    0.0559   -7.3042    3.3413 C   0  0  0  0  0  0  0  0  0  0  0  0
   -0.7917   -7.2319    2.4483 O   0  0  0  0  0  0  0  0  0  0  0  0
    0.6372   -8.6283    3.8812 C   0  0  0  0  0  0  0  0  0  0  0  0
    0.1023   -8.7736    5.3327 C   0  0  0  0  0  0  0  0  0  0  0  0
    0.0359   -9.8114    3.0780 C   0  0  0  0  0  0  0  0  0  0  0  0
    2.2337   -8.5938    3.8223 C   0  0  2  0  0  0  0  0  0  0  0  0
    2.7742   -9.8094    4.6401 C   0  0  0  0  0  0  0  0  0  0  0  0
    2.7621   -8.6870    2.3600 C   0  0  0  0  0  0  0  0  0  0  0  0
    4.3009   -8.6714    2.2423 C   0  0  0  0  0  0  0  0  0  0  0  0
    5.0561   -7.4715    2.9083 C   0  0  2  0  0  0  0  0  0  0  0  0
    6.4268   -8.1235    3.3149 C   0  0  0  0  0  0  0  0  0  0  0  0
    5.2749   -6.1641    1.9375 C   0  0  2  0  0  0  0  0  0  0  0  0
    6.7323   -6.2243    1.3681 C   0  0  0  0  0  0  0  0  0  0  0  0
    4.3219   -6.1421    0.7034 C   0  0  0  0  0  0  0  0  0  0  0  0
    4.5212   -4.9713   -0.2780 C   0  0  0  0  0  0  0  0  0  0  0  0
    5.0568   -3.6628    0.3367 C   0  0  1  0  0  0  0  0  0  0  0  0
    3.3319   -1.3869   -1.7461 H   0  0  0  0  0  0  0  0  0  0  0  0
    3.1223   -1.2040   -0.0451 H   0  0  0  0  0  0  0  0  0  0  0  0
    2.7266   -2.7392   -0.8063 H   0  0  0  0  0  0  0  0  0  0  0  0
    6.5051   -3.1008   -1.9191 H   0  0  0  0  0  0  0  0  0  0  0  0
    5.5297   -1.7962   -2.5911 H   0  0  0  0  0  0  0  0  0  0  0  0
    4.8821   -3.4227   -2.5295 H   0  0  0  0  0  0  0  0  0  0  0  0
    6.8114   -1.5239   -0.0460 H   0  0  0  0  0  0  0  0  0  0  0  0
    5.6226   -0.3431   -0.5283 H   0  0  0  0  0  0  0  0  0  0  0  0
    6.1473   -0.2800    1.8998 H   0  0  0  0  0  0  0  0  0  0  0  0
    4.4581   -0.5542    1.6250 H   0  0  0  0  0  0  0  0  0  0  0  0
    6.5924   -2.5891    2.3868 H   0  0  0  0  0  0  0  0  0  0  0  0
    5.2762   -2.0338    3.3899 H   0  0  0  0  0  0  0  0  0  0  0  0
    2.9229   -2.2085    1.8044 H   0  0  0  0  0  0  0  0  0  0  0  0
    2.9557   -3.2714    3.1449 H   0  0  0  0  0  0  0  0  0  0  0  0
    2.5683   -3.9019    1.5567 H   0  0  0  0  0  0  0  0  0  0  0  0
    4.8429   -3.7966    4.5183 H   0  0  0  0  0  0  0  0  0  0  0  0
    6.0358   -6.1055    5.2661 H   0  0  0  0  0  0  0  0  0  0  0  0
    4.4509   -5.6538    5.8508 H   0  0  0  0  0  0  0  0  0  0  0  0
    4.6916   -7.9419    4.9837 H   0  0  0  0  0  0  0  0  0  0  0  0
    2.6166   -7.2766    5.4836 H   0  0  0  0  0  0  0  0  0  0  0  0
    2.4126   -5.1222    4.4783 H   0  0  0  0  0  0  0  0  0  0  0  0
    2.3547   -5.7982    2.8740 H   0  0  0  0  0  0  0  0  0  0  0  0
    0.2467   -6.0360    5.0474 H   0  0  0  0  0  0  0  0  0  0  0  0
    0.1418   -5.1700    3.5263 H   0  0  0  0  0  0  0  0  0  0  0  0
    0.2346   -9.7841    5.7196 H   0  0  0  0  0  0  0  0  0  0  0  0
   -0.9717   -8.5801    5.3739 H   0  0  0  0  0  0  0  0  0  0  0  0
    0.5849   -8.0885    6.0314 H   0  0  0  0  0  0  0  0  0  0  0  0
    0.4071  -10.7810    3.4068 H   0  0  0  0  0  0  0  0  0  0  0  0
    0.2390   -9.7252    2.0150 H   0  0  0  0  0  0  0  0  0  0  0  0
   -1.0488   -9.8491    3.1856 H   0  0  0  0  0  0  0  0  0  0  0  0
    2.4071  -10.7604    4.2581 H   0  0  0  0  0  0  0  0  0  0  0  0
    2.4982   -9.7507    5.6931 H   0  0  0  0  0  0  0  0  0  0  0  0
    3.8587   -9.8945    4.6406 H   0  0  0  0  0  0  0  0  0  0  0  0
    2.4247   -9.6088    1.8924 H   0  0  0  0  0  0  0  0  0  0  0  0
    2.3343   -7.8978    1.7514 H   0  0  0  0  0  0  0  0  0  0  0  0
    4.6429   -9.6100    2.6767 H   0  0  0  0  0  0  0  0  0  0  0  0
    4.5972   -8.7996    1.2042 H   0  0  0  0  0  0  0  0  0  0  0  0
    6.9415   -8.5883    2.4740 H   0  0  0  0  0  0  0  0  0  0  0  0
    6.3013   -8.9413    4.0260 H   0  0  0  0  0  0  0  0  0  0  0  0
    7.1130   -7.4211    3.7872 H   0  0  0  0  0  0  0  0  0  0  0  0
    6.9452   -7.1830    0.8988 H   0  0  0  0  0  0  0  0  0  0  0  0
    7.4817   -6.0331    2.1362 H   0  0  0  0  0  0  0  0  0  0  0  0
    6.9700   -5.5292    0.5775 H   0  0  0  0  0  0  0  0  0  0  0  0
    4.4014   -7.0487    0.1071 H   0  0  0  0  0  0  0  0  0  0  0  0
    3.2916   -6.0978    1.0372 H   0  0  0  0  0  0  0  0  0  0  0  0
    5.2191   -5.2957   -1.0514 H   0  0  0  0  0  0  0  0  0  0  0  0
    3.5809   -4.7834   -0.7868 H   0  0  0  0  0  0  0  0  0  0  0  0
    6.1370   -3.7544    0.3339 H   0  0  0  0  0  0  0  0  0  0  0  0
  1  2  1  0
  1 32  1  0
  1 33  1  0
  1 34  1  0
  2 31  1  0
  2  3  1  0
  2  4  1  0
  3 35  1  0
  3 36  1  0
  3 37  1  0
  4  5  1  0
  4 38  1  0
  4 39  1  0
  5  6  1  0
  5 40  1  0
  5 41  1  0
  6  7  1  0
  6 42  1  0
  6 43  1  0
  7 31  1  0
  7  8  1  6
  7  9  1  0
  8 44  1  0
  8 45  1  0
  8 46  1  0
  9 27  1  0
  9 10  2  0
 10 11  1  0
 10 47  1  0
 11 12  1  0
 11 48  1  0
 11 49  1  0
 12 25  1  0
 12 13  1  0
 12 50  1  1
 13 21  1  0
 13 14  1  0
 13 51  1  1
 14 15  1  0
 14 52  1  0
 14 53  1  0
 15 16  1  0
 15 54  1  0
 15 55  1  0
 16 17  2  0
 16 18  1  0
 18 19  1  0
 18 20  1  0
 18 21  1  0
 19 56  1  0
 19 57  1  0
 19 58  1  0
 20 59  1  0
 20 60  1  0
 20 61  1  0
 21 22  1  1
 21 23  1  0
 22 62  1  0
 22 63  1  0
 22 64  1  0
 23 24  1  0
 23 65  1  0
 23 66  1  0
 24 25  1  0
 24 67  1  0
 24 68  1  0
 25 26  1  1
 25 27  1  0
 26 69  1  0
 26 70  1  0
 26 71  1  0
 27 28  1  6
 27 29  1  0
 28 72  1  0
 28 73  1  0
 28 74  1  0
 29 30  1  0
 29 75  1  0
 29 76  1  0
 30 31  1  0
 30 77  1  0
 30 78  1  0
 31 79  1  1
M  END
>  <i_m_ct_stereo_status>  (262) 
1

>  <s_m_source_file>  (262) 
/var/tmp/pbs.5076255.sched01/tmp0eyfkrct/966b1hsbd3.sdf

>  <i_m_source_file_index>  (262) 
19

>  <i_lp_mmshare_version>  (262) 
48012

>  <i_f3d_flags>  (262) 
0

>  <s_epik_input>  (262) 
W0NIMl0xW0NIMl1bQ0gyXUMoW0NIM10pKFtDSDNdKVtDQEBIXTJbQ0gyXVtDSDJdW0NAQF0oW0NIM10pKEM9M1tDQEBdMTJbQ0gzXSlbQ0BAXTQoW0NIM10pW0NAQEhdKFtDSDJdW0NIXTMpW0NAQEhdNVtDQF0oW0NIM10pKFtDSDJdW0NIMl00KUMoW0NIM10pKFtDSDNdKUMoPU8pW0NIMl1bQ0gyXTU=

>  <s_epik_cmdline>  (262) 
J2VwaWtfcHl0aG9uJywgJy1waHQnLCAnMi4wJywgJy1waCcsICc3LjAnLCAnLXRuJywgJzgnLCAnLW1hJywgJzIwMCcsICctaW1hZScsICc8aW5maWxlLm1hZT4nLCAnLW9tYWUnLCAnPG91dGZpbGUubWFlPic=

>  <r_lp_tautomer_probability>  (262) 
1

>  <r_epik_Ionization_Penalty>  (262) 
4.48614e-14

>  <r_epik_Ionization_Penalty_Charging>  (262) 
0

>  <r_epik_Ionization_Penalty_Neutral>  (262) 
4.48614e-14

>  <r_epik_State_Penalty>  (262) 
-0

>  <r_epik_Charging_Adjusted_Penalty>  (262) 
0

>  <i_epik_Tot_Q>  (262) 
0

>  <i_epik_Tot_abs_Q>  (262) 
0

>  <s_lp_Force_Field>  (262) 
OPLS3e

>  <r_lp_Energy>  (262) 
101.933

>  <b_lp_Chiralities_Consistent>  (262) 
1

>  <s_lp_Variant>  (262) 
76:0-1

>  <s_i_glide_gridfile>  (262) 
pfpi4k_grid

>  <i_i_glide_lignum>  (262) 
19

>  <i_i_glide_rotatable_bonds>  (262) 
0

>  <r_i_docking_score>  (262) 
-3.13416

>  <r_i_glide_ligand_efficiency>  (262) 
-0.101102

>  <r_i_glide_ligand_efficiency_sa>  (262) 
-0.317599

>  <r_i_glide_ligand_efficiency_ln>  (262) 
-0.706849

>  <r_i_glide_gscore>  (262) 
-3.13416

>  <r_i_glide_lipo>  (262) 
-0.531816

>  <r_i_glide_hbond>  (262) 
-0.111762

>  <r_i_glide_metal>  (262) 
-0

>  <r_i_glide_rewards>  (262) 
-0.513399

>  <r_i_glide_evdw>  (262) 
-32.3772

>  <r_i_glide_ecoul>  (262) 
-2.09039

>  <r_i_glide_erotb>  (262) 
0

>  <r_i_glide_esite>  (262) 
-0.0447632

>  <r_i_glide_emodel>  (262) 
-41.11

>  <r_i_glide_energy>  (262) 
-34.4676

>  <r_i_glide_einternal>  (262) 
0

>  <r_i_glide_intrahb_reward>  (262) 
-0

>  <i_i_glide_confnum>  (262) 
2

>  <i_i_glide_posenum>  (262) 
33

>  <r_i_glide_eff_state_penalty>  (262) 
0

>  <ligand_id>  (262) 
76

>  <original_smiles>  (262) 
CC1(C)CCCC2(C)C3=CCC4C5CCC(=O)C(C)(C)C5(C)CCC4(C)C3(C)CCC12

>  <smiles>  (262) 
[H]C1=C2C3(C([H])([H])[H])C([H])([H])C([H])([H])C([H])([H])C(C([H])([H])[H])(C([H])([H])[H])C3([H])C([H])([H])C([H])([H])C2(C([H])([H])[H])C2(C([H])([H])[H])C([H])([H])C([H])([H])C3(C([H])([H])[H])C([H])(C([H])([H])C([H])([H])C(=O)C3(C([H])([H])[H])C([H])([H])[H])C2([H])C1([H])[H]

$$$$
76:0:1
     RDKit          3D

 79 83  0  0  1  0  0  0  0  0999 V2000
    2.5622   -0.8814    1.2794 C   0  0  0  0  0  0  0  0  0  0  0  0
    3.9831   -1.4050    0.9994 C   0  0  0  0  0  0  0  0  0  0  0  0
    4.2579   -1.2173   -0.5133 C   0  0  0  0  0  0  0  0  0  0  0  0
    4.9977   -0.5347    1.7607 C   0  0  0  0  0  0  0  0  0  0  0  0
    4.9847   -0.7927    3.2752 C   0  0  0  0  0  0  0  0  0  0  0  0
    5.1749   -2.2847    3.6123 C   0  0  0  0  0  0  0  0  0  0  0  0
    4.1948   -3.2648    2.9084 C   0  0  2  0  0  0  0  0  0  0  0  0
    2.7848   -3.0837    3.5312 C   0  0  0  0  0  0  0  0  0  0  0  0
    4.6191   -4.7488    3.1702 C   0  0  0  0  0  0  0  0  0  0  0  0
    4.8314   -5.1365    4.4449 C   0  0  0  0  0  0  0  0  0  0  0  0
    4.9500   -6.5597    4.9188 C   0  0  0  0  0  0  0  0  0  0  0  0
    4.1418   -7.5187    4.0325 C   0  0  1  0  0  0  0  0  0  0  0  0
    2.6265   -7.6667    4.4198 C   0  0  1  0  0  0  0  0  0  0  0  0
    1.8780   -6.3140    4.5178 C   0  0  0  0  0  0  0  0  0  0  0  0
    0.3987   -6.4155    4.8892 C   0  0  0  0  0  0  0  0  0  0  0  0
   -0.2906   -7.3974    3.9562 C   0  0  0  0  0  0  0  0  0  0  0  0
   -1.2694   -7.0586    3.2877 O   0  0  0  0  0  0  0  0  0  0  0  0
    0.3229   -8.8099    3.9156 C   0  0  0  0  0  0  0  0  0  0  0  0
    0.0997   -9.4212    5.3260 C   0  0  0  0  0  0  0  0  0  0  0  0
   -0.4942   -9.6559    2.8968 C   0  0  0  0  0  0  0  0  0  0  0  0
    1.8705   -8.7401    3.5510 C   0  0  2  0  0  0  0  0  0  0  0  0
    2.4888  -10.1544    3.7971 C   0  0  0  0  0  0  0  0  0  0  0  0
    2.1007   -8.3365    2.0672 C   0  0  0  0  0  0  0  0  0  0  0  0
    3.5866   -8.2654    1.6582 C   0  0  0  0  0  0  0  0  0  0  0  0
    4.5164   -7.3431    2.5142 C   0  0  2  0  0  0  0  0  0  0  0  0
    5.8999   -8.0782    2.3966 C   0  0  0  0  0  0  0  0  0  0  0  0
    4.6083   -5.7879    2.0009 C   0  0  2  0  0  0  0  0  0  0  0  0
    5.9226   -5.6320    1.1669 C   0  0  0  0  0  0  0  0  0  0  0  0
    3.4336   -5.3697    1.0616 C   0  0  0  0  0  0  0  0  0  0  0  0
    3.5020   -3.9364    0.4937 C   0  0  0  0  0  0  0  0  0  0  0  0
    4.2219   -2.9022    1.3915 C   0  0  1  0  0  0  0  0  0  0  0  0
    2.2932   -0.0679    0.6028 H   0  0  0  0  0  0  0  0  0  0  0  0
    2.4320   -0.4633    2.2749 H   0  0  0  0  0  0  0  0  0  0  0  0
    1.8184   -1.6681    1.1595 H   0  0  0  0  0  0  0  0  0  0  0  0
    5.2372   -1.6113   -0.7907 H   0  0  0  0  0  0  0  0  0  0  0  0
    4.2412   -0.1637   -0.7812 H   0  0  0  0  0  0  0  0  0  0  0  0
    3.5026   -1.7133   -1.1246 H   0  0  0  0  0  0  0  0  0  0  0  0
    6.0042   -0.7240    1.3831 H   0  0  0  0  0  0  0  0  0  0  0  0
    4.7867    0.5175    1.5597 H   0  0  0  0  0  0  0  0  0  0  0  0
    5.7907   -0.2144    3.7285 H   0  0  0  0  0  0  0  0  0  0  0  0
    4.0699   -0.4082    3.7241 H   0  0  0  0  0  0  0  0  0  0  0  0
    6.1836   -2.5584    3.3055 H   0  0  0  0  0  0  0  0  0  0  0  0
    5.1315   -2.3836    4.6956 H   0  0  0  0  0  0  0  0  0  0  0  0
    2.5034   -2.0470    3.6600 H   0  0  0  0  0  0  0  0  0  0  0  0
    2.7326   -3.4983    4.5348 H   0  0  0  0  0  0  0  0  0  0  0  0
    2.0098   -3.5609    2.9368 H   0  0  0  0  0  0  0  0  0  0  0  0
    4.8193   -4.4204    5.2499 H   0  0  0  0  0  0  0  0  0  0  0  0
    6.0067   -6.8306    4.9387 H   0  0  0  0  0  0  0  0  0  0  0  0
    4.5908   -6.6208    5.9485 H   0  0  0  0  0  0  0  0  0  0  0  0
    4.5307   -8.4842    4.3469 H   0  0  0  0  0  0  0  0  0  0  0  0
    2.6364   -8.0487    5.4416 H   0  0  0  0  0  0  0  0  0  0  0  0
    2.3517   -5.6854    5.2678 H   0  0  0  0  0  0  0  0  0  0  0  0
    1.9512   -5.7857    3.5769 H   0  0  0  0  0  0  0  0  0  0  0  0
    0.2847   -6.7590    5.9183 H   0  0  0  0  0  0  0  0  0  0  0  0
   -0.0846   -5.4425    4.8196 H   0  0  0  0  0  0  0  0  0  0  0  0
    0.2298  -10.5053    5.3249 H   0  0  0  0  0  0  0  0  0  0  0  0
   -0.9260   -9.2534    5.6603 H   0  0  0  0  0  0  0  0  0  0  0  0
    0.7523   -9.0083    6.0935 H   0  0  0  0  0  0  0  0  0  0  0  0
   -0.1148  -10.6698    2.7953 H   0  0  0  0  0  0  0  0  0  0  0  0
   -0.5179   -9.2108    1.9030 H   0  0  0  0  0  0  0  0  0  0  0  0
   -1.5334   -9.7547    3.2110 H   0  0  0  0  0  0  0  0  0  0  0  0
    1.9999  -10.9277    3.2053 H   0  0  0  0  0  0  0  0  0  0  0  0
    2.4266  -10.4543    4.8435 H   0  0  0  0  0  0  0  0  0  0  0  0
    3.5451  -10.2233    3.5513 H   0  0  0  0  0  0  0  0  0  0  0  0
    1.6282   -9.0574    1.4040 H   0  0  0  0  0  0  0  0  0  0  0  0
    1.6057   -7.3954    1.8506 H   0  0  0  0  0  0  0  0  0  0  0  0
    3.9503   -9.2908    1.6821 H   0  0  0  0  0  0  0  0  0  0  0  0
    3.6799   -8.0325    0.6011 H   0  0  0  0  0  0  0  0  0  0  0  0
    6.2123   -8.2303    1.3640 H   0  0  0  0  0  0  0  0  0  0  0  0
    5.8686   -9.0890    2.8092 H   0  0  0  0  0  0  0  0  0  0  0  0
    6.7028   -7.5661    2.9247 H   0  0  0  0  0  0  0  0  0  0  0  0
    5.9821   -6.3764    0.3769 H   0  0  0  0  0  0  0  0  0  0  0  0
    6.8155   -5.7017    1.7884 H   0  0  0  0  0  0  0  0  0  0  0  0
    6.0438   -4.7132    0.6170 H   0  0  0  0  0  0  0  0  0  0  0  0
    3.3530   -6.0241    0.1969 H   0  0  0  0  0  0  0  0  0  0  0  0
    2.4941   -5.4546    1.5918 H   0  0  0  0  0  0  0  0  0  0  0  0
    4.0327   -3.9784   -0.4596 H   0  0  0  0  0  0  0  0  0  0  0  0
    2.4972   -3.6028    0.2438 H   0  0  0  0  0  0  0  0  0  0  0  0
    5.2718   -2.9789    1.1417 H   0  0  0  0  0  0  0  0  0  0  0  0
  1  2  1  0
  1 32  1  0
  1 33  1  0
  1 34  1  0
  2 31  1  0
  2  3  1  0
  2  4  1  0
  3 35  1  0
  3 36  1  0
  3 37  1  0
  4  5  1  0
  4 38  1  0
  4 39  1  0
  5  6  1  0
  5 40  1  0
  5 41  1  0
  6  7  1  0
  6 42  1  0
  6 43  1  0
  7 31  1  0
  7  8  1  1
  7  9  1  0
  8 44  1  0
  8 45  1  0
  8 46  1  0
  9 27  1  0
  9 10  2  0
 10 11  1  0
 10 47  1  0
 11 12  1  0
 11 48  1  0
 11 49  1  0
 12 25  1  0
 12 13  1  0
 12 50  1  1
 13 21  1  0
 13 14  1  0
 13 51  1  1
 14 15  1  0
 14 52  1  0
 14 53  1  0
 15 16  1  0
 15 54  1  0
 15 55  1  0
 16 17  2  0
 16 18  1  0
 18 19  1  0
 18 20  1  0
 18 21  1  0
 19 56  1  0
 19 57  1  0
 19 58  1  0
 20 59  1  0
 20 60  1  0
 20 61  1  0
 21 22  1  6
 21 23  1  0
 22 62  1  0
 22 63  1  0
 22 64  1  0
 23 24  1  0
 23 65  1  0
 23 66  1  0
 24 25  1  0
 24 67  1  0
 24 68  1  0
 25 26  1  1
 25 27  1  0
 26 69  1  0
 26 70  1  0
 26 71  1  0
 27 28  1  6
 27 29  1  0
 28 72  1  0
 28 73  1  0
 28 74  1  0
 29 30  1  0
 29 75  1  0
 29 76  1  0
 30 31  1  0
 30 77  1  0
 30 78  1  0
 31 79  1  6
M  END
>  <i_m_ct_stereo_status>  (263) 
1

>  <s_m_source_file>  (263) 
/var/tmp/pbs.5076255.sched01/tmp0eyfkrct/966b1hsbd3.sdf

>  <i_m_source_file_index>  (263) 
19

>  <i_lp_mmshare_version>  (263) 
48012

>  <i_f3d_flags>  (263) 
0

>  <s_epik_input>  (263) 
W0NIMl0xW0NIMl1bQ0gyXUMoW0NIM10pKFtDSDNdKVtDQEBIXTJbQ0gyXVtDSDJdW0NAQF0oW0NIM10pKEM9M1tDQEBdMTJbQ0gzXSlbQ0BAXTQoW0NIM10pW0NAQEhdKFtDSDJdW0NIXTMpW0NAQEhdNVtDQF0oW0NIM10pKFtDSDJdW0NIMl00KUMoW0NIM10pKFtDSDNdKUMoPU8pW0NIMl1bQ0gyXTU=

>  <s_epik_cmdline>  (263) 
J2VwaWtfcHl0aG9uJywgJy1waHQnLCAnMi4wJywgJy1waCcsICc3LjAnLCAnLXRuJywgJzgnLCAnLW1hJywgJzIwMCcsICctaW1hZScsICc8aW5maWxlLm1hZT4nLCAnLW9tYWUnLCAnPG91dGZpbGUubWFlPic=

>  <r_lp_tautomer_probability>  (263) 
1

>  <r_epik_Ionization_Penalty>  (263) 
4.48614e-14

>  <r_epik_Ionization_Penalty_Charging>  (263) 
0

>  <r_epik_Ionization_Penalty_Neutral>  (263) 
4.48614e-14

>  <r_epik_State_Penalty>  (263) 
-0

>  <r_epik_Charging_Adjusted_Penalty>  (263) 
0

>  <i_epik_Tot_Q>  (263) 
0

>  <i_epik_Tot_abs_Q>  (263) 
0

>  <s_lp_Force_Field>  (263) 
OPLS3e

>  <r_lp_Energy>  (263) 
101.933

>  <b_lp_Chiralities_Consistent>  (263) 
1

>  <s_lp_Variant>  (263) 
76:0-1

>  <s_i_glide_gridfile>  (263) 
pfpi4k_grid

>  <i_i_glide_lignum>  (263) 
19

>  <i_i_glide_rotatable_bonds>  (263) 
0

>  <r_i_docking_score>  (263) 
-2.91976

>  <r_i_glide_ligand_efficiency>  (263) 
-0.0941858

>  <r_i_glide_ligand_efficiency_sa>  (263) 
-0.295873

>  <r_i_glide_ligand_efficiency_ln>  (263) 
-0.658495

>  <r_i_glide_gscore>  (263) 
-2.91976

>  <r_i_glide_lipo>  (263) 
-0.463914

>  <r_i_glide_hbond>  (263) 
-0.136496

>  <r_i_glide_metal>  (263) 
-0

>  <r_i_glide_rewards>  (263) 
-0.513399

>  <r_i_glide_evdw>  (263) 
-28.3876

>  <r_i_glide_ecoul>  (263) 
-2.29195

>  <r_i_glide_erotb>  (263) 
0

>  <r_i_glide_esite>  (263) 
-0.0427785

>  <r_i_glide_emodel>  (263) 
-36.8342

>  <r_i_glide_energy>  (263) 
-30.6795

>  <r_i_glide_einternal>  (263) 
0

>  <r_i_glide_intrahb_reward>  (263) 
-0

>  <i_i_glide_confnum>  (263) 
1

>  <i_i_glide_posenum>  (263) 
35

>  <r_i_glide_eff_state_penalty>  (263) 
0

>  <ligand_id>  (263) 
76

>  <original_smiles>  (263) 
CC1(C)CCCC2(C)C3=CCC4C5CCC(=O)C(C)(C)C5(C)CCC4(C)C3(C)CCC12

>  <smiles>  (263) 
[H]C1=C2C3(C([H])([H])[H])C([H])([H])C([H])([H])C([H])([H])C(C([H])([H])[H])(C([H])([H])[H])C3([H])C([H])([H])C([H])([H])C2(C([H])([H])[H])C2(C([H])([H])[H])C([H])([H])C([H])([H])C3(C([H])([H])[H])C([H])(C([H])([H])C([H])([H])C(=O)C3(C([H])([H])[H])C([H])([H])[H])C2([H])C1([H])[H]

$$$$
76:0:2
     RDKit          3D

 79 83  0  0  1  0  0  0  0  0999 V2000
    2.2463   -9.8007    2.4678 C   0  0  0  0  0  0  0  0  0  0  0  0
    1.5619   -9.1510    3.6976 C   0  0  0  0  0  0  0  0  0  0  0  0
    0.0386   -9.3661    3.5351 C   0  0  0  0  0  0  0  0  0  0  0  0
    1.9812   -9.8757    4.9991 C   0  0  0  0  0  0  0  0  0  0  0  0
    3.4198   -9.5567    5.4324 C   0  0  0  0  0  0  0  0  0  0  0  0
    3.6823   -8.0403    5.5571 C   0  0  0  0  0  0  0  0  0  0  0  0
    3.3115   -7.2070    4.2930 C   0  0  2  0  0  0  0  0  0  0  0  0
    4.3343   -7.5236    3.1669 C   0  0  0  0  0  0  0  0  0  0  0  0
    3.4326   -5.6744    4.5933 C   0  0  0  0  0  0  0  0  0  0  0  0
    4.5812   -5.2176    5.1284 C   0  0  0  0  0  0  0  0  0  0  0  0
    4.9963   -3.7729    5.2117 C   0  0  0  0  0  0  0  0  0  0  0  0
    4.3959   -2.9443    4.0638 C   0  0  1  0  0  0  0  0  0  0  0  0
    5.2229   -2.9538    2.7271 C   0  0  1  0  0  0  0  0  0  0  0  0
    5.5461   -4.3779    2.2118 C   0  0  0  0  0  0  0  0  0  0  0  0
    6.3512   -4.4270    0.9153 C   0  0  0  0  0  0  0  0  0  0  0  0
    5.6807   -3.5602   -0.1377 C   0  0  0  0  0  0  0  0  0  0  0  0
    5.3823   -4.0139   -1.2411 O   0  0  0  0  0  0  0  0  0  0  0  0
    5.4512   -2.0895    0.2582 C   0  0  0  0  0  0  0  0  0  0  0  0
    6.8629   -1.4578    0.3801 C   0  0  0  0  0  0  0  0  0  0  0  0
    4.7349   -1.3670   -0.9202 C   0  0  0  0  0  0  0  0  0  0  0  0
    4.6297   -2.0032    1.6228 C   0  0  2  0  0  0  0  0  0  0  0  0
    4.6780   -0.5250    2.1212 C   0  0  0  0  0  0  0  0  0  0  0  0
    3.1472   -2.4357    1.4379 C   0  0  0  0  0  0  0  0  0  0  0  0
    2.3035   -2.3564    2.7271 C   0  0  0  0  0  0  0  0  0  0  0  0
    2.8372   -3.1341    3.9795 C   0  0  2  0  0  0  0  0  0  0  0  0
    2.3029   -2.2524    5.1654 C   0  0  0  0  0  0  0  0  0  0  0  0
    2.3238   -4.6885    4.1024 C   0  0  2  0  0  0  0  0  0  0  0  0
    1.1211   -4.7228    5.1034 C   0  0  0  0  0  0  0  0  0  0  0  0
    1.8025   -5.2774    2.7594 C   0  0  0  0  0  0  0  0  0  0  0  0
    1.2291   -6.7080    2.8148 C   0  0  0  0  0  0  0  0  0  0  0  0
    1.8603   -7.6223    3.8885 C   0  0  1  0  0  0  0  0  0  0  0  0
    1.6665  -10.6495    2.1078 H   0  0  0  0  0  0  0  0  0  0  0  0
    3.2297  -10.2080    2.6964 H   0  0  0  0  0  0  0  0  0  0  0  0
    2.3577   -9.1096    1.6323 H   0  0  0  0  0  0  0  0  0  0  0  0
   -0.5231   -8.8847    4.3383 H   0  0  0  0  0  0  0  0  0  0  0  0
   -0.2108  -10.4287    3.5670 H   0  0  0  0  0  0  0  0  0  0  0  0
   -0.3317   -8.9792    2.5842 H   0  0  0  0  0  0  0  0  0  0  0  0
    1.3112   -9.5837    5.8110 H   0  0  0  0  0  0  0  0  0  0  0  0
    1.8559  -10.9554    4.8933 H   0  0  0  0  0  0  0  0  0  0  0  0
    3.6027  -10.0331    6.3961 H   0  0  0  0  0  0  0  0  0  0  0  0
    4.1295  -10.0168    4.7457 H   0  0  0  0  0  0  0  0  0  0  0  0
    3.1137   -7.6637    6.4086 H   0  0  0  0  0  0  0  0  0  0  0  0
    4.7333   -7.9159    5.8139 H   0  0  0  0  0  0  0  0  0  0  0  0
    4.5410   -8.5808    3.0563 H   0  0  0  0  0  0  0  0  0  0  0  0
    5.3078   -7.0815    3.3659 H   0  0  0  0  0  0  0  0  0  0  0  0
    4.0063   -7.1581    2.1962 H   0  0  0  0  0  0  0  0  0  0  0  0
    5.3540   -5.9012    5.4431 H   0  0  0  0  0  0  0  0  0  0  0  0
    4.6929   -3.3843    6.1844 H   0  0  0  0  0  0  0  0  0  0  0  0
    6.0854   -3.7145    5.1810 H   0  0  0  0  0  0  0  0  0  0  0  0
    4.5774   -1.9307    4.4140 H   0  0  0  0  0  0  0  0  0  0  0  0
    6.1915   -2.5321    2.9878 H   0  0  0  0  0  0  0  0  0  0  0  0
    6.1176   -4.9205    2.9616 H   0  0  0  0  0  0  0  0  0  0  0  0
    4.6318   -4.9325    2.0583 H   0  0  0  0  0  0  0  0  0  0  0  0
    7.3661   -4.0673    1.0813 H   0  0  0  0  0  0  0  0  0  0  0  0
    6.4316   -5.4484    0.5495 H   0  0  0  0  0  0  0  0  0  0  0  0
    6.8149   -0.3691    0.3884 H   0  0  0  0  0  0  0  0  0  0  0  0
    7.4952   -1.7427   -0.4617 H   0  0  0  0  0  0  0  0  0  0  0  0
    7.3889   -1.7650    1.2792 H   0  0  0  0  0  0  0  0  0  0  0  0
    4.5309   -0.3186   -0.7126 H   0  0  0  0  0  0  0  0  0  0  0  0
    3.7866   -1.8408   -1.1801 H   0  0  0  0  0  0  0  0  0  0  0  0
    5.3418   -1.3889   -1.8250 H   0  0  0  0  0  0  0  0  0  0  0  0
    4.2640    0.1683    1.3888 H   0  0  0  0  0  0  0  0  0  0  0  0
    5.6952   -0.2039    2.3451 H   0  0  0  0  0  0  0  0  0  0  0  0
    4.1209   -0.3479    3.0375 H   0  0  0  0  0  0  0  0  0  0  0  0
    2.6565   -1.8000    0.7031 H   0  0  0  0  0  0  0  0  0  0  0  0
    3.0959   -3.4354    1.0183 H   0  0  0  0  0  0  0  0  0  0  0  0
    2.2145   -1.2968    2.9597 H   0  0  0  0  0  0  0  0  0  0  0  0
    1.2705   -2.6143    2.5116 H   0  0  0  0  0  0  0  0  0  0  0  0
    1.2249   -2.1033    5.1310 H   0  0  0  0  0  0  0  0  0  0  0  0
    2.7056   -1.2382    5.1421 H   0  0  0  0  0  0  0  0  0  0  0  0
    2.5617   -2.6516    6.1452 H   0  0  0  0  0  0  0  0  0  0  0  0
    0.3485   -4.0048    4.8339 H   0  0  0  0  0  0  0  0  0  0  0  0
    1.4402   -4.5324    6.1279 H   0  0  0  0  0  0  0  0  0  0  0  0
    0.5662   -5.6458    5.1610 H   0  0  0  0  0  0  0  0  0  0  0  0
    1.0163   -4.6588    2.3487 H   0  0  0  0  0  0  0  0  0  0  0  0
    2.5927   -5.2829    2.0187 H   0  0  0  0  0  0  0  0  0  0  0  0
    0.1615   -6.6403    3.0263 H   0  0  0  0  0  0  0  0  0  0  0  0
    1.2945   -7.1565    1.8261 H   0  0  0  0  0  0  0  0  0  0  0  0
    1.2976   -7.4436    4.7972 H   0  0  0  0  0  0  0  0  0  0  0  0
  1  2  1  0
  1 32  1  0
  1 33  1  0
  1 34  1  0
  2 31  1  0
  2  3  1  0
  2  4  1  0
  3 35  1  0
  3 36  1  0
  3 37  1  0
  4  5  1  0
  4 38  1  0
  4 39  1  0
  5  6  1  0
  5 40  1  0
  5 41  1  0
  6  7  1  0
  6 42  1  0
  6 43  1  0
  7 31  1  0
  7  8  1  6
  7  9  1  0
  8 44  1  0
  8 45  1  0
  8 46  1  0
  9 27  1  0
  9 10  2  0
 10 11  1  0
 10 47  1  0
 11 12  1  0
 11 48  1  0
 11 49  1  0
 12 25  1  0
 12 13  1  0
 12 50  1  1
 13 21  1  0
 13 14  1  0
 13 51  1  1
 14 15  1  0
 14 52  1  0
 14 53  1  0
 15 16  1  0
 15 54  1  0
 15 55  1  0
 16 17  2  0
 16 18  1  0
 18 19  1  0
 18 20  1  0
 18 21  1  0
 19 56  1  0
 19 57  1  0
 19 58  1  0
 20 59  1  0
 20 60  1  0
 20 61  1  0
 21 22  1  1
 21 23  1  0
 22 62  1  0
 22 63  1  0
 22 64  1  0
 23 24  1  0
 23 65  1  0
 23 66  1  0
 24 25  1  0
 24 67  1  0
 24 68  1  0
 25 26  1  1
 25 27  1  0
 26 69  1  0
 26 70  1  0
 26 71  1  0
 27 28  1  1
 27 29  1  0
 28 72  1  0
 28 73  1  0
 28 74  1  0
 29 30  1  0
 29 75  1  0
 29 76  1  0
 30 31  1  0
 30 77  1  0
 30 78  1  0
 31 79  1  1
M  END
>  <i_m_ct_stereo_status>  (264) 
1

>  <s_m_source_file>  (264) 
/var/tmp/pbs.5076255.sched01/tmp0eyfkrct/966b1hsbd3.sdf

>  <i_m_source_file_index>  (264) 
19

>  <i_lp_mmshare_version>  (264) 
48012

>  <i_f3d_flags>  (264) 
0

>  <s_epik_input>  (264) 
W0NIMl0xW0NIMl1bQ0gyXUMoW0NIM10pKFtDSDNdKVtDQEBIXTJbQ0gyXVtDSDJdW0NAQF0oW0NIM10pKEM9M1tDQEBdMTJbQ0gzXSlbQ0BAXTQoW0NIM10pW0NAQEhdKFtDSDJdW0NIXTMpW0NAQEhdNVtDQF0oW0NIM10pKFtDSDJdW0NIMl00KUMoW0NIM10pKFtDSDNdKUMoPU8pW0NIMl1bQ0gyXTU=

>  <s_epik_cmdline>  (264) 
J2VwaWtfcHl0aG9uJywgJy1waHQnLCAnMi4wJywgJy1waCcsICc3LjAnLCAnLXRuJywgJzgnLCAnLW1hJywgJzIwMCcsICctaW1hZScsICc8aW5maWxlLm1hZT4nLCAnLW9tYWUnLCAnPG91dGZpbGUubWFlPic=

>  <r_lp_tautomer_probability>  (264) 
1

>  <r_epik_Ionization_Penalty>  (264) 
4.48614e-14

>  <r_epik_Ionization_Penalty_Charging>  (264) 
0

>  <r_epik_Ionization_Penalty_Neutral>  (264) 
4.48614e-14

>  <r_epik_State_Penalty>  (264) 
-0

>  <r_epik_Charging_Adjusted_Penalty>  (264) 
0

>  <i_epik_Tot_Q>  (264) 
0

>  <i_epik_Tot_abs_Q>  (264) 
0

>  <s_lp_Force_Field>  (264) 
OPLS3e

>  <r_lp_Energy>  (264) 
101.933

>  <b_lp_Chiralities_Consistent>  (264) 
1

>  <s_lp_Variant>  (264) 
76:0-1

>  <s_i_glide_gridfile>  (264) 
pfpi4k_grid

>  <i_i_glide_lignum>  (264) 
19

>  <i_i_glide_rotatable_bonds>  (264) 
0

>  <r_i_docking_score>  (264) 
-2.35075

>  <r_i_glide_ligand_efficiency>  (264) 
-0.0758308

>  <r_i_glide_ligand_efficiency_sa>  (264) 
-0.238213

>  <r_i_glide_ligand_efficiency_ln>  (264) 
-0.530167

>  <r_i_glide_gscore>  (264) 
-2.35075

>  <r_i_glide_lipo>  (264) 
-0.413728

>  <r_i_glide_hbond>  (264) 
0

>  <r_i_glide_metal>  (264) 
-0

>  <r_i_glide_rewards>  (264) 
-0.598871

>  <r_i_glide_evdw>  (264) 
-28.0632

>  <r_i_glide_ecoul>  (264) 
0.433365

>  <r_i_glide_erotb>  (264) 
0

>  <r_i_glide_esite>  (264) 
0

>  <r_i_glide_emodel>  (264) 
-32.5723

>  <r_i_glide_energy>  (264) 
-27.6298

>  <r_i_glide_einternal>  (264) 
0

>  <r_i_glide_intrahb_reward>  (264) 
-0

>  <i_i_glide_confnum>  (264) 
1

>  <i_i_glide_posenum>  (264) 
9

>  <r_i_glide_eff_state_penalty>  (264) 
0

>  <ligand_id>  (264) 
76

>  <original_smiles>  (264) 
CC1(C)CCCC2(C)C3=CCC4C5CCC(=O)C(C)(C)C5(C)CCC4(C)C3(C)CCC12

>  <smiles>  (264) 
[H]C1=C2C3(C([H])([H])[H])C([H])([H])C([H])([H])C([H])([H])C(C([H])([H])[H])(C([H])([H])[H])C3([H])C([H])([H])C([H])([H])C2(C([H])([H])[H])C2(C([H])([H])[H])C([H])([H])C([H])([H])C3(C([H])([H])[H])C([H])(C([H])([H])C([H])([H])C(=O)C3(C([H])([H])[H])C([H])([H])[H])C2([H])C1([H])[H]

$$$$
77:0:0
     RDKit          3D

 55 59  0  0  1  0  0  0  0  0999 V2000
    3.4658   -1.0885   -2.2063 C   0  0  0  0  0  0  0  0  0  0  0  0
    4.1471   -2.4236   -1.9134 C   0  0  0  0  0  0  0  0  0  0  0  0
    3.6228   -3.3868   -2.9824 C   0  0  0  0  0  0  0  0  0  0  0  0
    5.6462   -2.1873   -2.1627 C   0  0  0  0  0  0  0  0  0  0  0  0
    6.6636   -3.2735   -1.8095 C   0  0  0  0  0  0  0  0  0  0  0  0
    7.2505   -3.2993   -0.3730 C   0  0  0  0  0  0  0  0  0  0  0  0
    6.1915   -3.6725    0.6676 C   0  0  1  0  0  0  0  0  0  0  0  0
    5.8710   -5.1886    0.5713 C   0  0  0  0  0  0  0  0  0  0  0  0
    6.5003   -3.4318    2.0540 O   0  0  0  0  0  0  0  0  0  0  0  0
    5.4554   -3.4331    3.0959 C   0  0  0  0  0  0  0  0  0  0  0  0
    4.4889   -2.2302    3.0631 C   0  0  1  0  0  0  0  0  0  0  0  0
    5.1675   -1.1114    3.6545 O   0  0  0  0  0  0  0  0  0  0  0  0
    4.6450   -0.9515    2.3014 C   0  0  1  0  0  0  0  0  0  0  0  0
    5.3133   -1.2360    0.9767 C   0  0  0  0  0  0  0  0  0  0  0  0
    5.0576   -2.7066    0.4567 C   0  0  1  0  0  0  0  0  0  0  0  0
    3.9156   -3.0020   -0.4780 C   0  0  1  0  0  0  0  0  0  0  0  0
    2.6063   -2.7021    0.3308 C   0  0  0  0  0  0  0  0  0  0  0  0
    2.3806   -3.2107    1.8518 C   0  0  1  0  0  0  0  0  0  0  0  0
    2.5342   -4.6173    1.8613 O   0  0  0  0  0  0  0  0  0  0  0  0
    2.9708   -2.4787    3.1409 C   0  0  1  0  0  0  0  0  0  0  0  0
    2.5555   -3.2828    4.3949 C   0  0  0  0  0  0  0  0  0  0  0  0
    2.3544   -1.0359    3.1212 C   0  0  1  0  0  0  0  0  0  0  0  0
    2.2415   -0.4785    4.4269 O   0  0  0  0  0  0  0  0  0  0  0  0
    3.3455   -0.2697    2.2700 C   0  0  0  0  0  0  0  0  0  0  0  0
    3.0198    0.7680    1.6826 O   0  0  0  0  0  0  0  0  0  0  0  0
    3.7040   -0.7024   -3.1954 H   0  0  0  0  0  0  0  0  0  0  0  0
    3.7907   -0.3417   -1.4880 H   0  0  0  0  0  0  0  0  0  0  0  0
    2.3869   -1.2033   -2.2033 H   0  0  0  0  0  0  0  0  0  0  0  0
    4.2232   -4.2850   -2.9520 H   0  0  0  0  0  0  0  0  0  0  0  0
    3.7101   -2.9975   -3.9939 H   0  0  0  0  0  0  0  0  0  0  0  0
    2.5750   -3.6380   -2.8156 H   0  0  0  0  0  0  0  0  0  0  0  0
    5.6913   -2.1301   -3.2345 H   0  0  0  0  0  0  0  0  0  0  0  0
    5.9758   -1.2283   -1.7643 H   0  0  0  0  0  0  0  0  0  0  0  0
    6.2196   -4.2185   -2.1085 H   0  0  0  0  0  0  0  0  0  0  0  0
    7.5273   -3.1243   -2.4466 H   0  0  0  0  0  0  0  0  0  0  0  0
    8.0685   -4.0202   -0.3213 H   0  0  0  0  0  0  0  0  0  0  0  0
    7.7037   -2.3376   -0.1431 H   0  0  0  0  0  0  0  0  0  0  0  0
    5.5920   -5.5079   -0.4325 H   0  0  0  0  0  0  0  0  0  0  0  0
    5.0651   -5.5077    1.2308 H   0  0  0  0  0  0  0  0  0  0  0  0
    6.7498   -5.7674    0.8557 H   0  0  0  0  0  0  0  0  0  0  0  0
    4.9368   -4.3833    3.1398 H   0  0  0  0  0  0  0  0  0  0  0  0
    5.9673   -3.3516    4.0557 H   0  0  0  0  0  0  0  0  0  0  0  0
    4.9933   -0.4933    0.2546 H   0  0  0  0  0  0  0  0  0  0  0  0
    6.3752   -1.0496    1.1136 H   0  0  0  0  0  0  0  0  0  0  0  0
    4.5237   -3.3255    1.0926 H   0  0  0  0  0  0  0  0  0  0  0  0
    3.8632   -4.0807   -0.6375 H   0  0  0  0  0  0  0  0  0  0  0  0
    2.4560   -1.6334    0.3274 H   0  0  0  0  0  0  0  0  0  0  0  0
    1.8066   -3.1187   -0.2857 H   0  0  0  0  0  0  0  0  0  0  0  0
    1.3329   -3.0562    2.0655 H   0  0  0  0  0  0  0  0  0  0  0  0
    3.4242   -4.8163    1.6544 H   0  0  0  0  0  0  0  0  0  0  0  0
    1.4690   -3.3580    4.4527 H   0  0  0  0  0  0  0  0  0  0  0  0
    2.9129   -2.8234    5.3116 H   0  0  0  0  0  0  0  0  0  0  0  0
    2.9416   -4.3026    4.3697 H   0  0  0  0  0  0  0  0  0  0  0  0
    1.3523   -1.0305    2.6743 H   0  0  0  0  0  0  0  0  0  0  0  0
    3.1111   -0.3901    4.7653 H   0  0  0  0  0  0  0  0  0  0  0  0
  1  2  1  0
  1 26  1  0
  1 27  1  0
  1 28  1  0
  2 16  1  0
  2  3  1  0
  2  4  1  0
  3 29  1  0
  3 30  1  0
  3 31  1  0
  4  5  1  0
  4 32  1  0
  4 33  1  0
  5  6  1  0
  5 34  1  0
  5 35  1  0
  6  7  1  0
  6 36  1  0
  6 37  1  0
  7 15  1  0
  7  8  1  1
  7  9  1  0
  8 38  1  0
  8 39  1  0
  8 40  1  0
  9 10  1  0
 10 11  1  0
 10 41  1  0
 10 42  1  0
 11 13  1  0
 11 20  1  0
 11 12  1  1
 13 12  1  1
 13 24  1  0
 13 14  1  0
 14 15  1  0
 14 43  1  0
 14 44  1  0
 15 16  1  0
 15 45  1  1
 16 17  1  0
 16 46  1  6
 17 18  1  0
 17 47  1  0
 17 48  1  0
 18 19  1  0
 18 20  1  0
 18 49  1  1
 19 50  1  0
 20 21  1  1
 20 22  1  0
 21 51  1  0
 21 52  1  0
 21 53  1  0
 22 23  1  0
 22 24  1  0
 22 54  1  6
 23 55  1  0
 24 25  2  0
M  END
>  <i_m_ct_stereo_status>  (265) 
1

>  <s_m_source_file>  (265) 
/var/tmp/pbs.5076255.sched01/tmp0eyfkrct/966b1hsbd3.sdf

>  <i_m_source_file_index>  (265) 
20

>  <i_lp_mmshare_version>  (265) 
48012

>  <i_f3d_flags>  (265) 
0

>  <s_epik_input>  (265) 
Tz1DMVtDQEhdKFtPSF0pW0NAQF0yKFtDSDNdKVtDQEhdKFtPSF0pW0NIMl1bQ0BIXTNDKFtDSDNdKShbQ0gzXSlbQ0gyXVtDSDJdW0NIMl1bQ0BAXShbQ0gzXSkoT1tDSDJdNClbQ0BIXTNbQ0gyXVtDQEBdMShbQ0BAXTI0NSlPNQ==

>  <s_epik_cmdline>  (265) 
J2VwaWtfcHl0aG9uJywgJy1waHQnLCAnMi4wJywgJy1waCcsICc3LjAnLCAnLXRuJywgJzgnLCAnLW1hJywgJzIwMCcsICctaW1hZScsICc8aW5maWxlLm1hZT4nLCAnLW9tYWUnLCAnPG91dGZpbGUubWFlPic=

>  <r_lp_tautomer_probability>  (265) 
1

>  <r_epik_Ionization_Penalty>  (265) 
1.90267e-05

>  <r_epik_Ionization_Penalty_Charging>  (265) 
0

>  <r_epik_Ionization_Penalty_Neutral>  (265) 
1.90267e-05

>  <r_epik_State_Penalty>  (265) 
-0

>  <r_epik_Charging_Adjusted_Penalty>  (265) 
0

>  <i_epik_Tot_Q>  (265) 
0

>  <i_epik_Tot_abs_Q>  (265) 
0

>  <s_lp_Force_Field>  (265) 
OPLS3e

>  <r_lp_Energy>  (265) 
114.611

>  <b_lp_Chiralities_Consistent>  (265) 
1

>  <s_lp_Variant>  (265) 
77:0-1

>  <s_i_glide_gridfile>  (265) 
pfpi4k_grid

>  <i_i_glide_lignum>  (265) 
20

>  <i_i_glide_rotatable_bonds>  (265) 
2

>  <r_i_docking_score>  (265) 
-3.27488

>  <r_i_glide_ligand_efficiency>  (265) 
-0.130995

>  <r_i_glide_ligand_efficiency_sa>  (265) 
-0.383032

>  <r_i_glide_ligand_efficiency_ln>  (265) 
-0.776245

>  <r_i_glide_gscore>  (265) 
-3.27488

>  <r_i_glide_lipo>  (265) 
-0.725924

>  <r_i_glide_hbond>  (265) 
0

>  <r_i_glide_metal>  (265) 
-0

>  <r_i_glide_rewards>  (265) 
-1.51966

>  <r_i_glide_evdw>  (265) 
-14.2533

>  <r_i_glide_ecoul>  (265) 
-2.10425

>  <r_i_glide_erotb>  (265) 
0

>  <r_i_glide_esite>  (265) 
-0.000988926

>  <r_i_glide_emodel>  (265) 
-20.2335

>  <r_i_glide_energy>  (265) 
-16.3576

>  <r_i_glide_einternal>  (265) 
1.45972

>  <r_i_glide_intrahb_reward>  (265) 
-0.5

>  <i_i_glide_confnum>  (265) 
1

>  <i_i_glide_posenum>  (265) 
15

>  <r_i_glide_eff_state_penalty>  (265) 
0

>  <ligand_id>  (265) 
77

>  <original_smiles>  (265) 
CC1(C)CCCC2(C)OCC34OC35CC2C1CC(O)C4(C)C(O)C5=O

>  <smiles>  (265) 
[H]OC1([H])C(=O)C23OC24C([H])([H])OC2(C([H])([H])[H])C([H])([H])C([H])([H])C([H])([H])C(C([H])([H])[H])(C([H])([H])[H])C([H])(C([H])([H])C([H])(O[H])C14C([H])([H])[H])C2([H])C3([H])[H]

$$$$
77:0:1
     RDKit          3D

 55 59  0  0  1  0  0  0  0  0999 V2000
    3.5569   -1.0419   -2.0907 C   0  0  0  0  0  0  0  0  0  0  0  0
    4.1576   -2.4008   -1.8276 C   0  0  0  0  0  0  0  0  0  0  0  0
    3.5204   -3.2930   -2.8883 C   0  0  0  0  0  0  0  0  0  0  0  0
    5.6695   -2.2427   -2.1126 C   0  0  0  0  0  0  0  0  0  0  0  0
    6.6089   -3.4010   -1.7945 C   0  0  0  0  0  0  0  0  0  0  0  0
    7.2069   -3.5012   -0.3696 C   0  0  0  0  0  0  0  0  0  0  0  0
    6.1316   -3.8249    0.6608 C   0  0  1  0  0  0  0  0  0  0  0  0
    5.7044   -5.3157    0.5844 C   0  0  0  0  0  0  0  0  0  0  0  0
    6.5002   -3.6325    2.0201 O   0  0  0  0  0  0  0  0  0  0  0  0
    5.4925   -3.5723    3.1116 C   0  0  0  0  0  0  0  0  0  0  0  0
    4.6145   -2.2932    3.1345 C   0  0  1  0  0  0  0  0  0  0  0  0
    5.3999   -1.2366    3.7151 O   0  0  0  0  0  0  0  0  0  0  0  0
    4.8468   -1.0186    2.3852 C   0  0  1  0  0  0  0  0  0  0  0  0
    5.4590   -1.3331    1.0450 C   0  0  0  0  0  0  0  0  0  0  0  0
    5.0726   -2.7717    0.5135 C   0  0  1  0  0  0  0  0  0  0  0  0
    3.8960   -2.9580   -0.3900 C   0  0  1  0  0  0  0  0  0  0  0  0
    2.6278   -2.5535    0.4534 C   0  0  0  0  0  0  0  0  0  0  0  0
    2.3812   -3.0720    1.9653 C   0  0  1  0  0  0  0  0  0  0  0  0
    2.4499   -4.4848    1.9396 O   0  0  0  0  0  0  0  0  0  0  0  0
    3.0706   -2.4133    3.2507 C   0  0  1  0  0  0  0  0  0  0  0  0
    2.6226   -3.1867    4.5111 C   0  0  0  0  0  0  0  0  0  0  0  0
    2.5630   -0.9346    3.2512 C   0  0  1  0  0  0  0  0  0  0  0  0
    2.5035   -0.3652    4.5515 O   0  0  0  0  0  0  0  0  0  0  0  0
    3.5964   -0.2463    2.3932 C   0  0  0  0  0  0  0  0  0  0  0  0
    3.3141    0.8048    1.8121 O   0  0  0  0  0  0  0  0  0  0  0  0
    3.7953   -0.6596   -3.0837 H   0  0  0  0  0  0  0  0  0  0  0  0
    3.9003   -0.3017   -1.3707 H   0  0  0  0  0  0  0  0  0  0  0  0
    2.4811   -1.0806   -2.0593 H   0  0  0  0  0  0  0  0  0  0  0  0
    4.0490   -4.2206   -2.8847 H   0  0  0  0  0  0  0  0  0  0  0  0
    3.6095   -2.9102   -3.8997 H   0  0  0  0  0  0  0  0  0  0  0  0
    2.4619   -3.4681   -2.6958 H   0  0  0  0  0  0  0  0  0  0  0  0
    5.7176   -2.1913   -3.1871 H   0  0  0  0  0  0  0  0  0  0  0  0
    6.0747   -1.3115   -1.7108 H   0  0  0  0  0  0  0  0  0  0  0  0
    6.0578   -4.2610   -2.0913 H   0  0  0  0  0  0  0  0  0  0  0  0
    7.4645   -3.3365   -2.4629 H   0  0  0  0  0  0  0  0  0  0  0  0
    7.9616   -4.2875   -0.3299 H   0  0  0  0  0  0  0  0  0  0  0  0
    7.7459   -2.5865   -0.1162 H   0  0  0  0  0  0  0  0  0  0  0  0
    5.3845   -5.6186   -0.4090 H   0  0  0  0  0  0  0  0  0  0  0  0
    4.8969   -5.5720    1.2706 H   0  0  0  0  0  0  0  0  0  0  0  0
    6.5434   -5.9539    0.8626 H   0  0  0  0  0  0  0  0  0  0  0  0
    4.9005   -4.4805    3.1791 H   0  0  0  0  0  0  0  0  0  0  0  0
    6.0407   -3.5591    4.0582 H   0  0  0  0  0  0  0  0  0  0  0  0
    5.1766   -0.5613    0.3330 H   0  0  0  0  0  0  0  0  0  0  0  0
    6.5312   -1.2313    1.1580 H   0  0  0  0  0  0  0  0  0  0  0  0
    4.5031   -3.3545    1.1549 H   0  0  0  0  0  0  0  0  0  0  0  0
    3.7500   -4.0291   -0.5484 H   0  0  0  0  0  0  0  0  0  0  0  0
    2.5391   -1.4710    0.4518 H   0  0  0  0  0  0  0  0  0  0  0  0
    1.8000   -2.9188   -0.1469 H   0  0  0  0  0  0  0  0  0  0  0  0
    1.3322   -2.8676    2.1695 H   0  0  0  0  0  0  0  0  0  0  0  0
    3.3115   -4.7317    1.6736 H   0  0  0  0  0  0  0  0  0  0  0  0
    1.5357   -3.1797    4.5976 H   0  0  0  0  0  0  0  0  0  0  0  0
    3.0392   -2.7527    5.4149 H   0  0  0  0  0  0  0  0  0  0  0  0
    2.9361   -4.2279    4.4720 H   0  0  0  0  0  0  0  0  0  0  0  0
    1.5586   -0.8422    2.8155 H   0  0  0  0  0  0  0  0  0  0  0  0
    2.2621    0.5374    4.4439 H   0  0  0  0  0  0  0  0  0  0  0  0
  1  2  1  0
  1 26  1  0
  1 27  1  0
  1 28  1  0
  2 16  1  0
  2  3  1  0
  2  4  1  0
  3 29  1  0
  3 30  1  0
  3 31  1  0
  4  5  1  0
  4 32  1  0
  4 33  1  0
  5  6  1  0
  5 34  1  0
  5 35  1  0
  6  7  1  0
  6 36  1  0
  6 37  1  0
  7 15  1  0
  7  8  1  1
  7  9  1  0
  8 38  1  0
  8 39  1  0
  8 40  1  0
  9 10  1  0
 10 11  1  0
 10 41  1  0
 10 42  1  0
 11 13  1  0
 11 20  1  0
 11 12  1  1
 13 12  1  1
 13 24  1  0
 13 14  1  0
 14 15  1  0
 14 43  1  0
 14 44  1  0
 15 16  1  0
 15 45  1  1
 16 17  1  0
 16 46  1  6
 17 18  1  0
 17 47  1  0
 17 48  1  0
 18 19  1  0
 18 20  1  0
 18 49  1  1
 19 50  1  0
 20 21  1  1
 20 22  1  0
 21 51  1  0
 21 52  1  0
 21 53  1  0
 22 23  1  0
 22 24  1  0
 22 54  1  6
 23 55  1  0
 24 25  2  0
M  END
>  <i_m_ct_stereo_status>  (266) 
1

>  <s_m_source_file>  (266) 
/var/tmp/pbs.5076255.sched01/tmp0eyfkrct/966b1hsbd3.sdf

>  <i_m_source_file_index>  (266) 
20

>  <i_lp_mmshare_version>  (266) 
48012

>  <i_f3d_flags>  (266) 
0

>  <s_epik_input>  (266) 
Tz1DMVtDQEhdKFtPSF0pW0NAQF0yKFtDSDNdKVtDQEhdKFtPSF0pW0NIMl1bQ0BIXTNDKFtDSDNdKShbQ0gzXSlbQ0gyXVtDSDJdW0NIMl1bQ0BAXShbQ0gzXSkoT1tDSDJdNClbQ0BIXTNbQ0gyXVtDQEBdMShbQ0BAXTI0NSlPNQ==

>  <s_epik_cmdline>  (266) 
J2VwaWtfcHl0aG9uJywgJy1waHQnLCAnMi4wJywgJy1waCcsICc3LjAnLCAnLXRuJywgJzgnLCAnLW1hJywgJzIwMCcsICctaW1hZScsICc8aW5maWxlLm1hZT4nLCAnLW9tYWUnLCAnPG91dGZpbGUubWFlPic=

>  <r_lp_tautomer_probability>  (266) 
1

>  <r_epik_Ionization_Penalty>  (266) 
1.90267e-05

>  <r_epik_Ionization_Penalty_Charging>  (266) 
0

>  <r_epik_Ionization_Penalty_Neutral>  (266) 
1.90267e-05

>  <r_epik_State_Penalty>  (266) 
-0

>  <r_epik_Charging_Adjusted_Penalty>  (266) 
0

>  <i_epik_Tot_Q>  (266) 
0

>  <i_epik_Tot_abs_Q>  (266) 
0

>  <s_lp_Force_Field>  (266) 
OPLS3e

>  <r_lp_Energy>  (266) 
114.611

>  <b_lp_Chiralities_Consistent>  (266) 
1

>  <s_lp_Variant>  (266) 
77:0-1

>  <s_i_glide_gridfile>  (266) 
pfpi4k_grid

>  <i_i_glide_lignum>  (266) 
20

>  <i_i_glide_rotatable_bonds>  (266) 
2

>  <r_i_docking_score>  (266) 
-2.81802

>  <r_i_glide_ligand_efficiency>  (266) 
-0.112721

>  <r_i_glide_ligand_efficiency_sa>  (266) 
-0.329598

>  <r_i_glide_ligand_efficiency_ln>  (266) 
-0.667955

>  <r_i_glide_gscore>  (266) 
-2.81802

>  <r_i_glide_lipo>  (266) 
-0.779775

>  <r_i_glide_hbond>  (266) 
0

>  <r_i_glide_metal>  (266) 
-0

>  <r_i_glide_rewards>  (266) 
-1.04472

>  <r_i_glide_evdw>  (266) 
-14.0288

>  <r_i_glide_ecoul>  (266) 
-1.94728

>  <r_i_glide_erotb>  (266) 
0

>  <r_i_glide_esite>  (266) 
0

>  <r_i_glide_emodel>  (266) 
-14.8546

>  <r_i_glide_energy>  (266) 
-15.976

>  <r_i_glide_einternal>  (266) 
1.66748

>  <r_i_glide_intrahb_reward>  (266) 
-0

>  <i_i_glide_confnum>  (266) 
1

>  <i_i_glide_posenum>  (266) 
32

>  <r_i_glide_eff_state_penalty>  (266) 
0

>  <ligand_id>  (266) 
77

>  <original_smiles>  (266) 
CC1(C)CCCC2(C)OCC34OC35CC2C1CC(O)C4(C)C(O)C5=O

>  <smiles>  (266) 
[H]OC1([H])C(=O)C23OC24C([H])([H])OC2(C([H])([H])[H])C([H])([H])C([H])([H])C([H])([H])C(C([H])([H])[H])(C([H])([H])[H])C([H])(C([H])([H])C([H])(O[H])C14C([H])([H])[H])C2([H])C3([H])[H]

$$$$
77:0:2
     RDKit          3D

 55 59  0  0  1  0  0  0  0  0999 V2000
    3.5686   -1.0121   -1.9985 C   0  0  0  0  0  0  0  0  0  0  0  0
    4.1645   -2.3851   -1.7803 C   0  0  0  0  0  0  0  0  0  0  0  0
    3.5204   -3.2506   -2.8756 C   0  0  0  0  0  0  0  0  0  0  0  0
    5.6869   -2.2150   -2.0483 C   0  0  0  0  0  0  0  0  0  0  0  0
    6.6309   -3.3841   -1.7792 C   0  0  0  0  0  0  0  0  0  0  0  0
    7.2178   -3.5363   -0.3456 C   0  0  0  0  0  0  0  0  0  0  0  0
    6.1461   -3.8945    0.7015 C   0  0  1  0  0  0  0  0  0  0  0  0
    5.7169   -5.3813    0.5392 C   0  0  0  0  0  0  0  0  0  0  0  0
    6.5301   -3.7599    2.0845 O   0  0  0  0  0  0  0  0  0  0  0  0
    5.5069   -3.7367    3.1506 C   0  0  0  0  0  0  0  0  0  0  0  0
    4.6156   -2.4599    3.2093 C   0  0  1  0  0  0  0  0  0  0  0  0
    5.3784   -1.4183    3.8010 O   0  0  0  0  0  0  0  0  0  0  0  0
    4.8476   -1.1469    2.4929 C   0  0  1  0  0  0  0  0  0  0  0  0
    5.4628   -1.4203    1.1316 C   0  0  0  0  0  0  0  0  0  0  0  0
    5.0779   -2.8384    0.5538 C   0  0  1  0  0  0  0  0  0  0  0  0
    3.8959   -2.9907   -0.3635 C   0  0  1  0  0  0  0  0  0  0  0  0
    2.6158   -2.6018    0.4762 C   0  0  0  0  0  0  0  0  0  0  0  0
    2.3782   -3.1880    1.9561 C   0  0  1  0  0  0  0  0  0  0  0  0
    2.4462   -4.6005    1.8977 O   0  0  0  0  0  0  0  0  0  0  0  0
    3.0654   -2.5896    3.2755 C   0  0  1  0  0  0  0  0  0  0  0  0
    2.6174   -3.4037    4.5095 C   0  0  0  0  0  0  0  0  0  0  0  0
    2.5501   -1.1170    3.3640 C   0  0  1  0  0  0  0  0  0  0  0  0
    2.5294   -0.5786    4.6680 O   0  0  0  0  0  0  0  0  0  0  0  0
    3.5709   -0.3661    2.5388 C   0  0  0  0  0  0  0  0  0  0  0  0
    3.3298    0.6833    1.9448 O   0  0  0  0  0  0  0  0  0  0  0  0
    3.8102   -0.5981   -2.9809 H   0  0  0  0  0  0  0  0  0  0  0  0
    3.9065   -0.3069   -1.2434 H   0  0  0  0  0  0  0  0  0  0  0  0
    2.4926   -1.0576   -1.9610 H   0  0  0  0  0  0  0  0  0  0  0  0
    4.0125   -4.2195   -2.8830 H   0  0  0  0  0  0  0  0  0  0  0  0
    3.6276   -2.8319   -3.8777 H   0  0  0  0  0  0  0  0  0  0  0  0
    2.4525   -3.4023   -2.6951 H   0  0  0  0  0  0  0  0  0  0  0  0
    5.7343   -2.0755   -3.1155 H   0  0  0  0  0  0  0  0  0  0  0  0
    6.0824   -1.3048   -1.5917 H   0  0  0  0  0  0  0  0  0  0  0  0
    6.1023   -4.2588   -2.1275 H   0  0  0  0  0  0  0  0  0  0  0  0
    7.4797   -3.2907   -2.4420 H   0  0  0  0  0  0  0  0  0  0  0  0
    7.9758   -4.3208   -0.3434 H   0  0  0  0  0  0  0  0  0  0  0  0
    7.7522   -2.6247   -0.0764 H   0  0  0  0  0  0  0  0  0  0  0  0
    5.4000   -5.6338   -0.4749 H   0  0  0  0  0  0  0  0  0  0  0  0
    4.9063   -5.6643    1.2052 H   0  0  0  0  0  0  0  0  0  0  0  0
    6.5567   -6.0308    0.7838 H   0  0  0  0  0  0  0  0  0  0  0  0
    4.9188   -4.6469    3.1705 H   0  0  0  0  0  0  0  0  0  0  0  0
    6.0572   -3.7417    4.0780 H   0  0  0  0  0  0  0  0  0  0  0  0
    5.1771   -0.6283    0.4481 H   0  0  0  0  0  0  0  0  0  0  0  0
    6.5408   -1.3213    1.2535 H   0  0  0  0  0  0  0  0  0  0  0  0
    4.5149   -3.4446    1.1825 H   0  0  0  0  0  0  0  0  0  0  0  0
    3.7593   -4.0571   -0.5574 H   0  0  0  0  0  0  0  0  0  0  0  0
    2.5068   -1.5240    0.4897 H   0  0  0  0  0  0  0  0  0  0  0  0
    1.8142   -2.9661   -0.1467 H   0  0  0  0  0  0  0  0  0  0  0  0
    1.3271   -2.9958    2.1440 H   0  0  0  0  0  0  0  0  0  0  0  0
    3.3426   -4.8435    1.7121 H   0  0  0  0  0  0  0  0  0  0  0  0
    1.5290   -3.4140    4.6032 H   0  0  0  0  0  0  0  0  0  0  0  0
    3.0368   -3.0127    5.4391 H   0  0  0  0  0  0  0  0  0  0  0  0
    2.9360   -4.4450    4.4354 H   0  0  0  0  0  0  0  0  0  0  0  0
    1.5585   -0.9942    2.9288 H   0  0  0  0  0  0  0  0  0  0  0  0
    1.8514   -1.0080    5.1646 H   0  0  0  0  0  0  0  0  0  0  0  0
  1  2  1  0
  1 26  1  0
  1 27  1  0
  1 28  1  0
  2 16  1  0
  2  3  1  0
  2  4  1  0
  3 29  1  0
  3 30  1  0
  3 31  1  0
  4  5  1  0
  4 32  1  0
  4 33  1  0
  5  6  1  0
  5 34  1  0
  5 35  1  0
  6  7  1  0
  6 36  1  0
  6 37  1  0
  7 15  1  0
  7  8  1  1
  7  9  1  0
  8 38  1  0
  8 39  1  0
  8 40  1  0
  9 10  1  0
 10 11  1  0
 10 41  1  0
 10 42  1  0
 11 13  1  0
 11 20  1  0
 11 12  1  1
 13 12  1  1
 13 24  1  0
 13 14  1  0
 14 15  1  0
 14 43  1  0
 14 44  1  0
 15 16  1  0
 15 45  1  1
 16 17  1  0
 16 46  1  6
 17 18  1  0
 17 47  1  0
 17 48  1  0
 18 19  1  0
 18 20  1  0
 18 49  1  1
 19 50  1  0
 20 21  1  1
 20 22  1  0
 21 51  1  0
 21 52  1  0
 21 53  1  0
 22 23  1  0
 22 24  1  0
 22 54  1  6
 23 55  1  0
 24 25  2  0
M  END
>  <i_m_ct_stereo_status>  (267) 
1

>  <s_m_source_file>  (267) 
/var/tmp/pbs.5076255.sched01/tmp0eyfkrct/966b1hsbd3.sdf

>  <i_m_source_file_index>  (267) 
20

>  <i_lp_mmshare_version>  (267) 
48012

>  <i_f3d_flags>  (267) 
0

>  <s_epik_input>  (267) 
Tz1DMVtDQEhdKFtPSF0pW0NAQF0yKFtDSDNdKVtDQEhdKFtPSF0pW0NIMl1bQ0BIXTNDKFtDSDNdKShbQ0gzXSlbQ0gyXVtDSDJdW0NIMl1bQ0BAXShbQ0gzXSkoT1tDSDJdNClbQ0BIXTNbQ0gyXVtDQEBdMShbQ0BAXTI0NSlPNQ==

>  <s_epik_cmdline>  (267) 
J2VwaWtfcHl0aG9uJywgJy1waHQnLCAnMi4wJywgJy1waCcsICc3LjAnLCAnLXRuJywgJzgnLCAnLW1hJywgJzIwMCcsICctaW1hZScsICc8aW5maWxlLm1hZT4nLCAnLW9tYWUnLCAnPG91dGZpbGUubWFlPic=

>  <r_lp_tautomer_probability>  (267) 
1

>  <r_epik_Ionization_Penalty>  (267) 
1.90267e-05

>  <r_epik_Ionization_Penalty_Charging>  (267) 
0

>  <r_epik_Ionization_Penalty_Neutral>  (267) 
1.90267e-05

>  <r_epik_State_Penalty>  (267) 
-0

>  <r_epik_Charging_Adjusted_Penalty>  (267) 
0

>  <i_epik_Tot_Q>  (267) 
0

>  <i_epik_Tot_abs_Q>  (267) 
0

>  <s_lp_Force_Field>  (267) 
OPLS3e

>  <r_lp_Energy>  (267) 
114.611

>  <b_lp_Chiralities_Consistent>  (267) 
1

>  <s_lp_Variant>  (267) 
77:0-1

>  <s_i_glide_gridfile>  (267) 
pfpi4k_grid

>  <i_i_glide_lignum>  (267) 
20

>  <i_i_glide_rotatable_bonds>  (267) 
2

>  <r_i_docking_score>  (267) 
-2.73967

>  <r_i_glide_ligand_efficiency>  (267) 
-0.109587

>  <r_i_glide_ligand_efficiency_sa>  (267) 
-0.320434

>  <r_i_glide_ligand_efficiency_ln>  (267) 
-0.649385

>  <r_i_glide_gscore>  (267) 
-2.73967

>  <r_i_glide_lipo>  (267) 
-0.772486

>  <r_i_glide_hbond>  (267) 
0

>  <r_i_glide_metal>  (267) 
-0

>  <r_i_glide_rewards>  (267) 
-1.03975

>  <r_i_glide_evdw>  (267) 
-12.7678

>  <r_i_glide_ecoul>  (267) 
-1.92699

>  <r_i_glide_erotb>  (267) 
0

>  <r_i_glide_esite>  (267) 
0

>  <r_i_glide_emodel>  (267) 
-14.4897

>  <r_i_glide_energy>  (267) 
-14.6948

>  <r_i_glide_einternal>  (267) 
0.0434558

>  <r_i_glide_intrahb_reward>  (267) 
-0

>  <i_i_glide_confnum>  (267) 
1

>  <i_i_glide_posenum>  (267) 
23

>  <r_i_glide_eff_state_penalty>  (267) 
0

>  <ligand_id>  (267) 
77

>  <original_smiles>  (267) 
CC1(C)CCCC2(C)OCC34OC35CC2C1CC(O)C4(C)C(O)C5=O

>  <smiles>  (267) 
[H]OC1([H])C(=O)C23OC24C([H])([H])OC2(C([H])([H])[H])C([H])([H])C([H])([H])C([H])([H])C(C([H])([H])[H])(C([H])([H])[H])C([H])(C([H])([H])C([H])(O[H])C14C([H])([H])[H])C2([H])C3([H])[H]

$$$$
79:0:0
     RDKit          3D

 47 50  0  0  1  0  0  0  0  0999 V2000
    5.1998   -2.7176    2.4195 C   0  0  0  0  0  0  0  0  0  0  0  0
    4.3679   -3.7695    1.6484 C   0  0  1  0  0  0  0  0  0  0  0  0
    3.2842   -3.0306    0.8601 C   0  0  0  0  0  0  0  0  0  0  0  0
    3.4214   -2.5906   -0.4121 C   0  0  0  0  0  0  0  0  0  0  0  0
    4.6912   -2.7710   -1.1522 C   0  0  0  0  0  0  0  0  0  0  0  0
    4.8753   -2.3180   -2.2821 O   0  0  0  0  0  0  0  0  0  0  0  0
    5.8386   -3.5126   -0.4592 C   0  0  0  0  0  0  0  0  0  0  0  0
    5.2591   -4.4451    0.5930 C   0  0  0  0  0  0  0  0  0  0  0  0
    5.3874   -5.7799    0.4845 C   0  0  0  0  0  0  0  0  0  0  0  0
    4.6436   -6.7819    1.3372 C   0  0  0  0  0  0  0  0  0  0  0  0
    3.3919   -6.1493    1.9798 C   0  0  2  0  0  0  0  0  0  0  0  0
    3.7956   -4.8177    2.6659 C   0  0  2  0  0  0  0  0  0  0  0  0
    2.7084   -4.2937    3.6437 C   0  0  0  0  0  0  0  0  0  0  0  0
    1.3356   -4.9364    3.4073 C   0  0  0  0  0  0  0  0  0  0  0  0
    1.3632   -6.4810    3.5585 C   0  0  1  0  0  0  0  0  0  0  0  0
    1.2802   -6.8192    5.0683 C   0  0  0  0  0  0  0  0  0  0  0  0
    0.1954   -7.2059    2.8373 C   0  0  1  0  0  0  0  0  0  0  0  0
   -0.1241   -6.6582    1.5641 O   0  0  0  0  0  0  0  0  0  0  0  0
    0.7263   -8.6208    2.6128 C   0  0  0  0  0  0  0  0  0  0  0  0
    2.2116   -8.4374    2.2991 C   0  0  0  0  0  0  0  0  0  0  0  0
    2.6549   -7.1086    2.9552 C   0  0  1  0  0  0  0  0  0  0  0  0
    5.5715   -1.9227    1.7705 H   0  0  0  0  0  0  0  0  0  0  0  0
    6.0695   -3.1759    2.8884 H   0  0  0  0  0  0  0  0  0  0  0  0
    4.6201   -2.2249    3.2000 H   0  0  0  0  0  0  0  0  0  0  0  0
    2.3444   -2.8590    1.3651 H   0  0  0  0  0  0  0  0  0  0  0  0
    2.6186   -2.0788   -0.9171 H   0  0  0  0  0  0  0  0  0  0  0  0
    6.3914   -4.0761   -1.2071 H   0  0  0  0  0  0  0  0  0  0  0  0
    6.5268   -2.7952   -0.0194 H   0  0  0  0  0  0  0  0  0  0  0  0
    5.9955   -6.1948   -0.3045 H   0  0  0  0  0  0  0  0  0  0  0  0
    4.3498   -7.6006    0.6813 H   0  0  0  0  0  0  0  0  0  0  0  0
    5.3257   -7.1961    2.0816 H   0  0  0  0  0  0  0  0  0  0  0  0
    2.6987   -5.9108    1.1699 H   0  0  0  0  0  0  0  0  0  0  0  0
    4.6359   -5.0767    3.3139 H   0  0  0  0  0  0  0  0  0  0  0  0
    3.0219   -4.4863    4.6694 H   0  0  0  0  0  0  0  0  0  0  0  0
    2.6078   -3.2112    3.5857 H   0  0  0  0  0  0  0  0  0  0  0  0
    0.5991   -4.4992    4.0800 H   0  0  0  0  0  0  0  0  0  0  0  0
    1.0277   -4.6438    2.4106 H   0  0  0  0  0  0  0  0  0  0  0  0
    1.3356   -7.8926    5.2487 H   0  0  0  0  0  0  0  0  0  0  0  0
    0.3468   -6.4707    5.5093 H   0  0  0  0  0  0  0  0  0  0  0  0
    2.0948   -6.3683    5.6332 H   0  0  0  0  0  0  0  0  0  0  0  0
   -0.7217   -7.2217    3.4274 H   0  0  0  0  0  0  0  0  0  0  0  0
   -0.3804   -7.3793    1.0081 H   0  0  0  0  0  0  0  0  0  0  0  0
    0.6147   -9.2083    3.5246 H   0  0  0  0  0  0  0  0  0  0  0  0
    0.1954   -9.1630    1.8320 H   0  0  0  0  0  0  0  0  0  0  0  0
    2.7982   -9.2840    2.6599 H   0  0  0  0  0  0  0  0  0  0  0  0
    2.3307   -8.4005    1.2183 H   0  0  0  0  0  0  0  0  0  0  0  0
    3.3444   -7.3453    3.7680 H   0  0  0  0  0  0  0  0  0  0  0  0
  2  1  1  1
  1 22  1  0
  1 23  1  0
  1 24  1  0
  2  8  1  0
  2 12  1  0
  2  3  1  0
  3  4  2  0
  3 25  1  0
  4  5  1  0
  4 26  1  0
  5  6  2  0
  5  7  1  0
  7  8  1  0
  7 27  1  0
  7 28  1  0
  8  9  2  0
  9 10  1  0
  9 29  1  0
 10 11  1  0
 10 30  1  0
 10 31  1  0
 11 21  1  0
 11 12  1  0
 11 32  1  6
 12 13  1  0
 12 33  1  1
 13 14  1  0
 13 34  1  0
 13 35  1  0
 14 15  1  0
 14 36  1  0
 14 37  1  0
 15 21  1  0
 15 16  1  1
 15 17  1  0
 16 38  1  0
 16 39  1  0
 16 40  1  0
 17 18  1  0
 17 19  1  0
 17 41  1  1
 18 42  1  0
 19 20  1  0
 19 43  1  0
 19 44  1  0
 20 21  1  0
 20 45  1  0
 20 46  1  0
 21 47  1  1
M  END
>  <i_m_ct_stereo_status>  (268) 
1

>  <s_m_source_file>  (268) 
/var/tmp/pbs.5076255.sched01/tmp0eyfkrct/966b1hsbd3.sdf

>  <i_m_source_file_index>  (268) 
26

>  <i_lp_mmshare_version>  (268) 
48012

>  <i_f3d_flags>  (268) 
0

>  <s_epik_input>  (268) 
W0NIXTE9W0NIXUMoPU8pW0NIMl1DKFtDQEBdMTJbQ0gzXSk9W0NIXVtDSDJdW0NAQEhdM1tDQEBIXTJbQ0gyXVtDSDJdW0NAXTQoW0NIM10pW0NASF0zW0NIMl1bQ0gyXVtDQEBIXTRbT0hd

>  <s_epik_cmdline>  (268) 
J2VwaWtfcHl0aG9uJywgJy1waHQnLCAnMi4wJywgJy1waCcsICc3LjAnLCAnLXRuJywgJzgnLCAnLW1hJywgJzIwMCcsICctaW1hZScsICc8aW5maWxlLm1hZT4nLCAnLW9tYWUnLCAnPG91dGZpbGUubWFlPic=

>  <r_lp_tautomer_probability>  (268) 
1

>  <r_epik_Ionization_Penalty>  (268) 
2.12841e-06

>  <r_epik_Ionization_Penalty_Charging>  (268) 
0

>  <r_epik_Ionization_Penalty_Neutral>  (268) 
2.12841e-06

>  <r_epik_State_Penalty>  (268) 
-0

>  <r_epik_Charging_Adjusted_Penalty>  (268) 
0

>  <i_epik_Tot_Q>  (268) 
0

>  <i_epik_Tot_abs_Q>  (268) 
0

>  <s_lp_Force_Field>  (268) 
OPLS3e

>  <r_lp_Energy>  (268) 
47.9073

>  <b_lp_Chiralities_Consistent>  (268) 
1

>  <s_lp_Variant>  (268) 
79:0-1

>  <s_i_glide_gridfile>  (268) 
pfpi4k_grid

>  <i_i_glide_lignum>  (268) 
26

>  <i_i_glide_rotatable_bonds>  (268) 
1

>  <r_i_docking_score>  (268) 
-3.92301

>  <r_i_glide_ligand_efficiency>  (268) 
-0.18681

>  <r_i_glide_ligand_efficiency_sa>  (268) 
-0.515395

>  <r_i_glide_ligand_efficiency_ln>  (268) 
-0.969957

>  <r_i_glide_gscore>  (268) 
-3.92301

>  <r_i_glide_lipo>  (268) 
-0.410808

>  <r_i_glide_hbond>  (268) 
-0.216727

>  <r_i_glide_metal>  (268) 
-0

>  <r_i_glide_rewards>  (268) 
-1.45631

>  <r_i_glide_evdw>  (268) 
-21.1552

>  <r_i_glide_ecoul>  (268) 
-5.16348

>  <r_i_glide_erotb>  (268) 
0

>  <r_i_glide_esite>  (268) 
-0.00689244

>  <r_i_glide_emodel>  (268) 
-32.7794

>  <r_i_glide_energy>  (268) 
-26.3187

>  <r_i_glide_einternal>  (268) 
0.877347

>  <r_i_glide_intrahb_reward>  (268) 
-0

>  <i_i_glide_confnum>  (268) 
2

>  <i_i_glide_posenum>  (268) 
20

>  <r_i_glide_eff_state_penalty>  (268) 
0

>  <ligand_id>  (268) 
79

>  <original_smiles>  (268) 
CC12C=CC(=O)CC1=CCC1C2CCC2(C)C(O)CCC12

>  <smiles>  (268) 
[H]OC1([H])C([H])([H])C([H])([H])C2([H])C3([H])C([H])([H])C([H])=C4C([H])([H])C(=O)C([H])=C([H])C4(C([H])([H])[H])C3([H])C([H])([H])C([H])([H])C12C([H])([H])[H]

$$$$
79:0:1
     RDKit          3D

 47 50  0  0  1  0  0  0  0  0999 V2000
    4.7216   -3.4165    3.9225 C   0  0  0  0  0  0  0  0  0  0  0  0
    3.7678   -2.9437    2.7990 C   0  0  1  0  0  0  0  0  0  0  0  0
    2.6701   -3.9868    2.6510 C   0  0  0  0  0  0  0  0  0  0  0  0
    1.4811   -3.9454    3.2978 C   0  0  0  0  0  0  0  0  0  0  0  0
    1.1701   -2.8502    4.2461 C   0  0  0  0  0  0  0  0  0  0  0  0
    0.1270   -2.8056    4.9011 O   0  0  0  0  0  0  0  0  0  0  0  0
    2.2128   -1.7499    4.4784 C   0  0  0  0  0  0  0  0  0  0  0  0
    3.0715   -1.6457    3.2322 C   0  0  0  0  0  0  0  0  0  0  0  0
    3.0781   -0.5324    2.4810 C   0  0  0  0  0  0  0  0  0  0  0  0
    3.7085   -0.4329    1.1091 C   0  0  0  0  0  0  0  0  0  0  0  0
    3.8972   -1.8168    0.4606 C   0  0  2  0  0  0  0  0  0  0  0  0
    4.5982   -2.7480    1.4797 C   0  0  2  0  0  0  0  0  0  0  0  0
    5.1735   -4.0316    0.8189 C   0  0  0  0  0  0  0  0  0  0  0  0
    4.5279   -4.3201   -0.5463 C   0  0  0  0  0  0  0  0  0  0  0  0
    4.7702   -3.1673   -1.5553 C   0  0  1  0  0  0  0  0  0  0  0  0
    6.1816   -3.2898   -2.1418 C   0  0  0  0  0  0  0  0  0  0  0  0
    3.7693   -3.1435   -2.7411 C   0  0  1  0  0  0  0  0  0  0  0  0
    2.4375   -3.4087   -2.3582 O   0  0  0  0  0  0  0  0  0  0  0  0
    3.7921   -1.7116   -3.2516 C   0  0  0  0  0  0  0  0  0  0  0  0
    3.9464   -0.9064   -1.9699 C   0  0  0  0  0  0  0  0  0  0  0  0
    4.6458   -1.7734   -0.9020 C   0  0  1  0  0  0  0  0  0  0  0  0
    4.1841   -3.6447    4.8429 H   0  0  0  0  0  0  0  0  0  0  0  0
    5.4676   -2.6617    4.1646 H   0  0  0  0  0  0  0  0  0  0  0  0
    5.2504   -4.3322    3.6547 H   0  0  0  0  0  0  0  0  0  0  0  0
    2.8398   -4.7904    1.9581 H   0  0  0  0  0  0  0  0  0  0  0  0
    0.7219   -4.6999    3.1518 H   0  0  0  0  0  0  0  0  0  0  0  0
    1.7042   -0.8029    4.6676 H   0  0  0  0  0  0  0  0  0  0  0  0
    2.8178   -1.9798    5.3535 H   0  0  0  0  0  0  0  0  0  0  0  0
    2.5421    0.3558    2.8081 H   0  0  0  0  0  0  0  0  0  0  0  0
    3.0150    0.1490    0.5014 H   0  0  0  0  0  0  0  0  0  0  0  0
    4.6398    0.1350    1.1728 H   0  0  0  0  0  0  0  0  0  0  0  0
    2.8982   -2.2193    0.2805 H   0  0  0  0  0  0  0  0  0  0  0  0
    5.4893   -2.1956    1.7876 H   0  0  0  0  0  0  0  0  0  0  0  0
    6.2527   -3.9391    0.7083 H   0  0  0  0  0  0  0  0  0  0  0  0
    5.0295   -4.9005    1.4600 H   0  0  0  0  0  0  0  0  0  0  0  0
    4.9333   -5.2519   -0.9466 H   0  0  0  0  0  0  0  0  0  0  0  0
    3.4678   -4.5113   -0.3889 H   0  0  0  0  0  0  0  0  0  0  0  0
    6.4173   -2.4879   -2.8195 H   0  0  0  0  0  0  0  0  0  0  0  0
    6.2504   -4.1943   -2.7382 H   0  0  0  0  0  0  0  0  0  0  0  0
    6.9597   -3.3116   -1.3872 H   0  0  0  0  0  0  0  0  0  0  0  0
    4.0234   -3.8511   -3.5333 H   0  0  0  0  0  0  0  0  0  0  0  0
    2.3513   -4.3703   -2.3221 H   0  0  0  0  0  0  0  0  0  0  0  0
    4.6420   -1.5473   -3.9114 H   0  0  0  0  0  0  0  0  0  0  0  0
    2.8865   -1.4342   -3.7952 H   0  0  0  0  0  0  0  0  0  0  0  0
    4.4705    0.0346   -2.1493 H   0  0  0  0  0  0  0  0  0  0  0  0
    2.9394   -0.6730   -1.6407 H   0  0  0  0  0  0  0  0  0  0  0  0
    5.6375   -1.3610   -0.7165 H   0  0  0  0  0  0  0  0  0  0  0  0
  2  1  1  1
  1 22  1  0
  1 23  1  0
  1 24  1  0
  2  8  1  0
  2 12  1  0
  2  3  1  0
  3  4  2  0
  3 25  1  0
  4  5  1  0
  4 26  1  0
  5  6  2  0
  5  7  1  0
  7  8  1  0
  7 27  1  0
  7 28  1  0
  8  9  2  0
  9 10  1  0
  9 29  1  0
 10 11  1  0
 10 30  1  0
 10 31  1  0
 11 21  1  0
 11 12  1  0
 11 32  1  6
 12 13  1  0
 12 33  1  1
 13 14  1  0
 13 34  1  0
 13 35  1  0
 14 15  1  0
 14 36  1  0
 14 37  1  0
 15 21  1  0
 15 16  1  6
 15 17  1  0
 16 38  1  0
 16 39  1  0
 16 40  1  0
 17 18  1  0
 17 19  1  0
 17 41  1  6
 18 42  1  0
 19 20  1  0
 19 43  1  0
 19 44  1  0
 20 21  1  0
 20 45  1  0
 20 46  1  0
 21 47  1  1
M  END
>  <i_m_ct_stereo_status>  (269) 
1

>  <s_m_source_file>  (269) 
/var/tmp/pbs.5076255.sched01/tmp0eyfkrct/966b1hsbd3.sdf

>  <i_m_source_file_index>  (269) 
26

>  <i_lp_mmshare_version>  (269) 
48012

>  <i_f3d_flags>  (269) 
0

>  <s_epik_input>  (269) 
W0NIXTE9W0NIXUMoPU8pW0NIMl1DKFtDQEBdMTJbQ0gzXSk9W0NIXVtDSDJdW0NAQEhdM1tDQEBIXTJbQ0gyXVtDSDJdW0NAXTQoW0NIM10pW0NASF0zW0NIMl1bQ0gyXVtDQEBIXTRbT0hd

>  <s_epik_cmdline>  (269) 
J2VwaWtfcHl0aG9uJywgJy1waHQnLCAnMi4wJywgJy1waCcsICc3LjAnLCAnLXRuJywgJzgnLCAnLW1hJywgJzIwMCcsICctaW1hZScsICc8aW5maWxlLm1hZT4nLCAnLW9tYWUnLCAnPG91dGZpbGUubWFlPic=

>  <r_lp_tautomer_probability>  (269) 
1

>  <r_epik_Ionization_Penalty>  (269) 
2.12841e-06

>  <r_epik_Ionization_Penalty_Charging>  (269) 
0

>  <r_epik_Ionization_Penalty_Neutral>  (269) 
2.12841e-06

>  <r_epik_State_Penalty>  (269) 
-0

>  <r_epik_Charging_Adjusted_Penalty>  (269) 
0

>  <i_epik_Tot_Q>  (269) 
0

>  <i_epik_Tot_abs_Q>  (269) 
0

>  <s_lp_Force_Field>  (269) 
OPLS3e

>  <r_lp_Energy>  (269) 
47.9073

>  <b_lp_Chiralities_Consistent>  (269) 
1

>  <s_lp_Variant>  (269) 
79:0-1

>  <s_i_glide_gridfile>  (269) 
pfpi4k_grid

>  <i_i_glide_lignum>  (269) 
26

>  <i_i_glide_rotatable_bonds>  (269) 
1

>  <r_i_docking_score>  (269) 
-3.79553

>  <r_i_glide_ligand_efficiency>  (269) 
-0.180739

>  <r_i_glide_ligand_efficiency_sa>  (269) 
-0.498646

>  <r_i_glide_ligand_efficiency_ln>  (269) 
-0.938437

>  <r_i_glide_gscore>  (269) 
-3.79553

>  <r_i_glide_lipo>  (269) 
-0.441163

>  <r_i_glide_hbond>  (269) 
-0.32

>  <r_i_glide_metal>  (269) 
-0

>  <r_i_glide_rewards>  (269) 
-1.48164

>  <r_i_glide_evdw>  (269) 
-23.1416

>  <r_i_glide_ecoul>  (269) 
-2.63766

>  <r_i_glide_erotb>  (269) 
0

>  <r_i_glide_esite>  (269) 
0

>  <r_i_glide_emodel>  (269) 
-32.0325

>  <r_i_glide_energy>  (269) 
-25.7792

>  <r_i_glide_einternal>  (269) 
0.625873

>  <r_i_glide_intrahb_reward>  (269) 
-0

>  <i_i_glide_confnum>  (269) 
2

>  <i_i_glide_posenum>  (269) 
4

>  <r_i_glide_eff_state_penalty>  (269) 
0

>  <ligand_id>  (269) 
79

>  <original_smiles>  (269) 
CC12C=CC(=O)CC1=CCC1C2CCC2(C)C(O)CCC12

>  <smiles>  (269) 
[H]OC1([H])C([H])([H])C([H])([H])C2([H])C3([H])C([H])([H])C([H])=C4C([H])([H])C(=O)C([H])=C([H])C4(C([H])([H])[H])C3([H])C([H])([H])C([H])([H])C12C([H])([H])[H]

$$$$
79:0:2
     RDKit          3D

 47 50  0  0  1  0  0  0  0  0999 V2000
    4.5559   -2.9185    3.8039 C   0  0  0  0  0  0  0  0  0  0  0  0
    3.7968   -2.2054    2.6609 C   0  0  1  0  0  0  0  0  0  0  0  0
    2.3644   -2.7310    2.6079 C   0  0  0  0  0  0  0  0  0  0  0  0
    1.3177   -2.1717    3.2617 C   0  0  0  0  0  0  0  0  0  0  0  0
    1.4910   -0.9918    4.1393 C   0  0  0  0  0  0  0  0  0  0  0  0
    0.5816   -0.4956    4.7892 O   0  0  0  0  0  0  0  0  0  0  0  0
    2.8906   -0.3839    4.2756 C   0  0  0  0  0  0  0  0  0  0  0  0
    3.6511   -0.7367    3.0257 C   0  0  0  0  0  0  0  0  0  0  0  0
    3.9896    0.2188    2.1577 C   0  0  0  0  0  0  0  0  0  0  0  0
    4.6018    0.0148    0.8201 C   0  0  0  0  0  0  0  0  0  0  0  0
    4.2341   -1.3435    0.2319 C   0  0  2  0  0  0  0  0  0  0  0  0
    4.5702   -2.3998    1.3099 C   0  0  2  0  0  0  0  0  0  0  0  0
    4.6028   -3.8270    0.7326 C   0  0  0  0  0  0  0  0  0  0  0  0
    3.8339   -3.9078   -0.5933 C   0  0  0  0  0  0  0  0  0  0  0  0
    4.4641   -3.0194   -1.6982 C   0  0  1  0  0  0  0  0  0  0  0  0
    5.6887   -3.7070   -2.2843 C   0  0  0  0  0  0  0  0  0  0  0  0
    3.5608   -2.7436   -2.9154 C   0  0  1  0  0  0  0  0  0  0  0  0
    2.2225   -2.5861   -2.6097 O   0  0  0  0  0  0  0  0  0  0  0  0
    4.0699   -1.4197   -3.4853 C   0  0  0  0  0  0  0  0  0  0  0  0
    4.6182   -0.6603   -2.2726 C   0  0  0  0  0  0  0  0  0  0  0  0
    4.9186   -1.6518   -1.1369 C   0  0  1  0  0  0  0  0  0  0  0  0
    4.0078   -2.8449    4.7410 H   0  0  0  0  0  0  0  0  0  0  0  0
    5.5353   -2.4744    3.9585 H   0  0  0  0  0  0  0  0  0  0  0  0
    4.6786   -3.9756    3.5880 H   0  0  0  0  0  0  0  0  0  0  0  0
    2.2006   -3.5722    1.9494 H   0  0  0  0  0  0  0  0  0  0  0  0
    0.3133   -2.5537    3.1592 H   0  0  0  0  0  0  0  0  0  0  0  0
    2.8126    0.7013    4.3690 H   0  0  0  0  0  0  0  0  0  0  0  0
    3.3956   -0.7478    5.1657 H   0  0  0  0  0  0  0  0  0  0  0  0
    3.7710    1.2461    2.4389 H   0  0  0  0  0  0  0  0  0  0  0  0
    4.1987    0.7889    0.1836 H   0  0  0  0  0  0  0  0  0  0  0  0
    5.6858    0.1715    0.8596 H   0  0  0  0  0  0  0  0  0  0  0  0
    3.1490   -1.3281    0.0744 H   0  0  0  0  0  0  0  0  0  0  0  0
    5.6170   -2.1986    1.5626 H   0  0  0  0  0  0  0  0  0  0  0  0
    5.6286   -4.1612    0.6099 H   0  0  0  0  0  0  0  0  0  0  0  0
    4.1423   -4.5318    1.4305 H   0  0  0  0  0  0  0  0  0  0  0  0
    3.8626   -4.9568   -0.8915 H   0  0  0  0  0  0  0  0  0  0  0  0
    2.7915   -3.6755   -0.3981 H   0  0  0  0  0  0  0  0  0  0  0  0
    6.1789   -3.1079   -3.0520 H   0  0  0  0  0  0  0  0  0  0  0  0
    5.3878   -4.6426   -2.7571 H   0  0  0  0  0  0  0  0  0  0  0  0
    6.4278   -3.9068   -1.5156 H   0  0  0  0  0  0  0  0  0  0  0  0
    3.5443   -3.5694   -3.6360 H   0  0  0  0  0  0  0  0  0  0  0  0
    2.0636   -2.9230   -1.7333 H   0  0  0  0  0  0  0  0  0  0  0  0
    4.8687   -1.6143   -4.1954 H   0  0  0  0  0  0  0  0  0  0  0  0
    3.2955   -0.8616   -3.9943 H   0  0  0  0  0  0  0  0  0  0  0  0
    5.4814   -0.0560   -2.5227 H   0  0  0  0  0  0  0  0  0  0  0  0
    3.8916    0.0512   -1.9531 H   0  0  0  0  0  0  0  0  0  0  0  0
    6.0025   -1.6627   -0.9745 H   0  0  0  0  0  0  0  0  0  0  0  0
  2  1  1  1
  1 22  1  0
  1 23  1  0
  1 24  1  0
  2  8  1  0
  2 12  1  0
  2  3  1  0
  3  4  2  0
  3 25  1  0
  4  5  1  0
  4 26  1  0
  5  6  2  0
  5  7  1  0
  7  8  1  0
  7 27  1  0
  7 28  1  0
  8  9  2  0
  9 10  1  0
  9 29  1  0
 10 11  1  0
 10 30  1  0
 10 31  1  0
 11 21  1  0
 11 12  1  0
 11 32  1  6
 12 13  1  0
 12 33  1  1
 13 14  1  0
 13 34  1  0
 13 35  1  0
 14 15  1  0
 14 36  1  0
 14 37  1  0
 15 21  1  0
 15 16  1  6
 15 17  1  0
 16 38  1  0
 16 39  1  0
 16 40  1  0
 17 18  1  0
 17 19  1  0
 17 41  1  6
 18 42  1  0
 19 20  1  0
 19 43  1  0
 19 44  1  0
 20 21  1  0
 20 45  1  0
 20 46  1  0
 21 47  1  1
M  END
>  <i_m_ct_stereo_status>  (270) 
1

>  <s_m_source_file>  (270) 
/var/tmp/pbs.5076255.sched01/tmp0eyfkrct/966b1hsbd3.sdf

>  <i_m_source_file_index>  (270) 
26

>  <i_lp_mmshare_version>  (270) 
48012

>  <i_f3d_flags>  (270) 
0

>  <s_epik_input>  (270) 
W0NIXTE9W0NIXUMoPU8pW0NIMl1DKFtDQEBdMTJbQ0gzXSk9W0NIXVtDSDJdW0NAQEhdM1tDQEBIXTJbQ0gyXVtDSDJdW0NAXTQoW0NIM10pW0NASF0zW0NIMl1bQ0gyXVtDQEBIXTRbT0hd

>  <s_epik_cmdline>  (270) 
J2VwaWtfcHl0aG9uJywgJy1waHQnLCAnMi4wJywgJy1waCcsICc3LjAnLCAnLXRuJywgJzgnLCAnLW1hJywgJzIwMCcsICctaW1hZScsICc8aW5maWxlLm1hZT4nLCAnLW9tYWUnLCAnPG91dGZpbGUubWFlPic=

>  <r_lp_tautomer_probability>  (270) 
1

>  <r_epik_Ionization_Penalty>  (270) 
2.12841e-06

>  <r_epik_Ionization_Penalty_Charging>  (270) 
0

>  <r_epik_Ionization_Penalty_Neutral>  (270) 
2.12841e-06

>  <r_epik_State_Penalty>  (270) 
-0

>  <r_epik_Charging_Adjusted_Penalty>  (270) 
0

>  <i_epik_Tot_Q>  (270) 
0

>  <i_epik_Tot_abs_Q>  (270) 
0

>  <s_lp_Force_Field>  (270) 
OPLS3e

>  <r_lp_Energy>  (270) 
47.9073

>  <b_lp_Chiralities_Consistent>  (270) 
1

>  <s_lp_Variant>  (270) 
79:0-1

>  <s_i_glide_gridfile>  (270) 
pfpi4k_grid

>  <i_i_glide_lignum>  (270) 
26

>  <i_i_glide_rotatable_bonds>  (270) 
1

>  <r_i_docking_score>  (270) 
-3.07233

>  <r_i_glide_ligand_efficiency>  (270) 
-0.146302

>  <r_i_glide_ligand_efficiency_sa>  (270) 
-0.403635

>  <r_i_glide_ligand_efficiency_ln>  (270) 
-0.759628

>  <r_i_glide_gscore>  (270) 
-3.07233

>  <r_i_glide_lipo>  (270) 
-0.553346

>  <r_i_glide_hbond>  (270) 
0

>  <r_i_glide_metal>  (270) 
-0

>  <r_i_glide_rewards>  (270) 
-1.45631

>  <r_i_glide_evdw>  (270) 
-17.7053

>  <r_i_glide_ecoul>  (270) 
-1.17162

>  <r_i_glide_erotb>  (270) 
0

>  <r_i_glide_esite>  (270) 
-0.00167528

>  <r_i_glide_emodel>  (270) 
-23.3237

>  <r_i_glide_energy>  (270) 
-18.8769

>  <r_i_glide_einternal>  (270) 
0.85233

>  <r_i_glide_intrahb_reward>  (270) 
-0

>  <i_i_glide_confnum>  (270) 
2

>  <i_i_glide_posenum>  (270) 
21

>  <r_i_glide_eff_state_penalty>  (270) 
0

>  <ligand_id>  (270) 
79

>  <original_smiles>  (270) 
CC12C=CC(=O)CC1=CCC1C2CCC2(C)C(O)CCC12

>  <smiles>  (270) 
[H]OC1([H])C([H])([H])C([H])([H])C2([H])C3([H])C([H])([H])C([H])=C4C([H])([H])C(=O)C([H])=C([H])C4(C([H])([H])[H])C3([H])C([H])([H])C([H])([H])C12C([H])([H])[H]

$$$$
80:1:0
     RDKit          3D

 55 59  0  0  1  0  0  0  0  0999 V2000
   -2.9666    3.0366    3.3779 C   0  0  0  0  0  0  0  0  0  0  0  0
   -1.6932    3.1239    3.8108 C   0  0  0  0  0  0  0  0  0  0  0  0
   -1.1910    3.0947    5.2654 C   0  0  1  0  0  0  0  0  0  0  0  0
   -2.3948    2.9725    6.2200 C   0  0  0  0  0  0  0  0  0  0  0  0
   -0.2036    1.8345    5.4014 C   0  0  0  0  0  0  0  0  0  0  0  0
    1.0201    1.6946    6.4237 C   0  0  2  0  0  0  0  0  0  0  0  0
    0.5288    0.8009    7.5883 C   0  0  0  0  0  0  0  0  0  0  0  0
    0.6775   -0.5368    7.6087 C   0  0  0  0  0  0  0  0  0  0  0  0
   -0.2744    1.4531    8.7030 C   0  0  0  0  0  0  0  0  0  0  0  0
    0.2824    2.7955    9.1801 C   0  0  0  0  0  0  0  0  0  0  0  0
    0.6387    3.7312    8.0077 C   0  0  0  0  0  0  0  0  0  0  0  0
    1.5324    3.0736    6.8806 C   0  0  1  0  0  0  0  0  0  0  0  0
    2.9112    2.9895    7.6378 C   0  0  0  0  0  0  0  0  0  0  0  0
    4.0541    2.2562    6.9497 C   0  0  0  0  0  0  0  0  0  0  0  0
    3.5587    0.9877    6.4286 N   0  0  0  0  0  0  0  0  0  0  0  0
    3.7269   -0.1270    7.3439 C   0  0  0  0  0  0  0  0  0  0  0  0
    2.3023    1.0967    5.6659 C   0  0  2  0  0  0  0  0  0  0  0  0
    2.7905    1.9679    4.4669 C   0  0  0  0  0  0  0  0  0  0  0  0
    2.5975    3.4867    4.5658 C   0  0  0  0  0  0  0  0  0  0  0  0
    2.8190    4.3494    3.4704 C   0  0  0  0  0  0  0  0  0  0  0  0
    2.0058    5.4883    3.3206 C   0  0  0  0  0  0  0  0  0  0  0  0
    0.8353    5.6016    4.0928 C   0  0  0  0  0  0  0  0  0  0  0  0
   -0.0992    6.5273    3.7423 O   0  0  0  0  0  0  0  0  0  0  0  0
    0.5722    4.6921    5.1430 C   0  0  0  0  0  0  0  0  0  0  0  0
    1.6330    3.8581    5.5347 C   0  0  0  0  0  0  0  0  0  0  0  0
   -0.7093    4.4254    5.5586 O   0  0  0  0  0  0  0  0  0  0  0  0
   -3.8055    2.9304    4.0496 H   0  0  0  0  0  0  0  0  0  0  0  0
   -3.2076    3.0699    2.3242 H   0  0  0  0  0  0  0  0  0  0  0  0
   -0.9233    3.2281    3.0547 H   0  0  0  0  0  0  0  0  0  0  0  0
   -2.8717    2.0010    6.1238 H   0  0  0  0  0  0  0  0  0  0  0  0
   -3.1336    3.7461    6.0123 H   0  0  0  0  0  0  0  0  0  0  0  0
   -2.1380    3.1152    7.2619 H   0  0  0  0  0  0  0  0  0  0  0  0
   -0.8348    0.9614    5.5420 H   0  0  0  0  0  0  0  0  0  0  0  0
    0.1902    1.6571    4.4037 H   0  0  0  0  0  0  0  0  0  0  0  0
    1.1806   -1.0681    6.8184 H   0  0  0  0  0  0  0  0  0  0  0  0
    0.2931   -1.1339    8.4231 H   0  0  0  0  0  0  0  0  0  0  0  0
   -1.2957    1.5670    8.3532 H   0  0  0  0  0  0  0  0  0  0  0  0
   -0.3417    0.7801    9.5611 H   0  0  0  0  0  0  0  0  0  0  0  0
   -0.4617    3.2802    9.8169 H   0  0  0  0  0  0  0  0  0  0  0  0
    1.1333    2.6337    9.8384 H   0  0  0  0  0  0  0  0  0  0  0  0
   -0.3202    4.0928    7.6871 H   0  0  0  0  0  0  0  0  0  0  0  0
    1.1202    4.6311    8.3984 H   0  0  0  0  0  0  0  0  0  0  0  0
    3.2616    3.9867    7.9167 H   0  0  0  0  0  0  0  0  0  0  0  0
    2.7979    2.4623    8.5801 H   0  0  0  0  0  0  0  0  0  0  0  0
    4.4693    2.8820    6.1581 H   0  0  0  0  0  0  0  0  0  0  0  0
    4.8817    2.0895    7.6403 H   0  0  0  0  0  0  0  0  0  0  0  0
    3.4320   -1.0602    6.8582 H   0  0  0  0  0  0  0  0  0  0  0  0
    3.1504    0.0124    8.2582 H   0  0  0  0  0  0  0  0  0  0  0  0
    4.7767   -0.2326    7.6231 H   0  0  0  0  0  0  0  0  0  0  0  0
    2.0847    0.1079    5.2705 H   0  0  0  0  0  0  0  0  0  0  0  0
    3.8303    1.7687    4.1898 H   0  0  0  0  0  0  0  0  0  0  0  0
    2.2270    1.6601    3.5921 H   0  0  0  0  0  0  0  0  0  0  0  0
    3.5034    4.0822    2.6798 H   0  0  0  0  0  0  0  0  0  0  0  0
    2.1677    6.1416    2.4809 H   0  0  0  0  0  0  0  0  0  0  0  0
    0.1660    7.1810    3.0762 H   0  0  0  0  0  0  0  0  0  0  0  0
  1  2  2  0
  1 27  1  0
  1 28  1  0
  2  3  1  0
  2 29  1  0
  3 26  1  0
  3  4  1  1
  3  5  1  0
  4 30  1  0
  4 31  1  0
  4 32  1  0
  6  5  1  6
  5 33  1  0
  5 34  1  0
  6 12  1  0
  6 17  1  0
  6  7  1  0
  7  8  2  0
  7  9  1  0
  8 35  1  0
  8 36  1  0
  9 10  1  0
  9 37  1  0
  9 38  1  0
 10 11  1  0
 10 39  1  0
 10 40  1  0
 12 11  1  1
 11 41  1  0
 11 42  1  0
 12 25  1  0
 12 13  1  0
 13 14  1  0
 13 43  1  0
 13 44  1  0
 14 15  1  0
 14 45  1  0
 14 46  1  0
 15 16  1  0
 15 17  1  0
 16 47  1  0
 16 48  1  0
 16 49  1  0
 17 18  1  0
 17 50  1  6
 18 19  1  0
 18 51  1  0
 18 52  1  0
 19 25  2  0
 19 20  1  0
 20 21  2  0
 20 53  1  0
 21 22  1  0
 21 54  1  0
 22 23  1  0
 22 24  2  0
 23 55  1  0
 24 25  1  0
 24 26  1  0
M  END
>  <i_m_ct_stereo_status>  (271) 
1

>  <s_m_source_file>  (271) 
/var/tmp/pbs.5076255.sched01/tmp0eyfkrct/966b1hsbd3.sdf

>  <i_m_source_file_index>  (271) 
28

>  <i_lp_mmshare_version>  (271) 
48012

>  <i_f3d_flags>  (271) 
0

>  <s_epik_input>  (271) 
W0NIMl09W0NIXVtDQEBdKFtDSDNdKShbQ0gyXTEpT2MyYyhbT0hdKVtjSF1bY0hdYyhbQ0gyXVtDQEhdM04oW0NIM10pW0NIMl1bQ0gyXTQpYzJbQ0BdNChbQ0BAXTEzNSlbQ0gyXVtDSDJdW0NIMl1DNT1bQ0gyXQ==

>  <s_epik_cmdline>  (271) 
J2VwaWtfcHl0aG9uJywgJy1waHQnLCAnMi4wJywgJy1waCcsICc3LjAnLCAnLXRuJywgJzgnLCAnLW1hJywgJzIwMCcsICctaW1hZScsICc8aW5maWxlLm1hZT4nLCAnLW9tYWUnLCAnPG91dGZpbGUubWFlPic=

>  <r_lp_tautomer_probability>  (271) 
1

>  <r_epik_Ionization_Penalty>  (271) 
1.98727

>  <r_epik_Ionization_Penalty_Charging>  (271) 
0

>  <r_epik_Ionization_Penalty_Neutral>  (271) 
1.98727

>  <r_epik_State_Penalty>  (271) 
2.11478

>  <r_epik_Charging_Adjusted_Penalty>  (271) 
2.11478

>  <i_epik_Tot_Q>  (271) 
0

>  <i_epik_Tot_abs_Q>  (271) 
0

>  <s_lp_Force_Field>  (271) 
OPLS3e

>  <r_lp_Energy>  (271) 
133.305

>  <b_lp_Chiralities_Consistent>  (271) 
1

>  <s_lp_Variant>  (271) 
80:0-2

>  <s_i_glide_gridfile>  (271) 
pfpi4k_grid

>  <i_i_glide_lignum>  (271) 
28

>  <i_i_glide_rotatable_bonds>  (271) 
2

>  <r_i_docking_score>  (271) 
-2.93464

>  <r_i_glide_ligand_efficiency>  (271) 
-0.112871

>  <r_i_glide_ligand_efficiency_sa>  (271) 
-0.334379

>  <r_i_glide_ligand_efficiency_ln>  (271) 
-0.689191

>  <r_i_glide_gscore>  (271) 
-2.93464

>  <r_i_glide_lipo>  (271) 
-0.104861

>  <r_i_glide_hbond>  (271) 
0

>  <r_i_glide_metal>  (271) 
-0

>  <r_i_glide_rewards>  (271) 
-1.01262

>  <r_i_glide_evdw>  (271) 
-13.8785

>  <r_i_glide_ecoul>  (271) 
-8.20871

>  <r_i_glide_erotb>  (271) 
0.108074

>  <r_i_glide_esite>  (271) 
0

>  <r_i_glide_emodel>  (271) 
-26.8282

>  <r_i_glide_energy>  (271) 
-22.0872

>  <r_i_glide_einternal>  (271) 
0.134324

>  <r_i_glide_intrahb_reward>  (271) 
-0

>  <i_i_glide_confnum>  (271) 
5

>  <i_i_glide_posenum>  (271) 
39

>  <r_i_glide_eff_state_penalty>  (271) 
0

>  <ligand_id>  (271) 
80

>  <original_smiles>  (271) 
C=CC1(C)CC23C(=C)CCCC24CCN(C)C3Cc2ccc(O)c(c24)O1

>  <smiles>  (271) 
[H]Oc1c([H])c([H])c2c3c1OC(C([H])=C([H])[H])(C([H])([H])[H])C([H])([H])C14C(=C([H])[H])C([H])([H])C([H])([H])C([H])([H])C31C([H])([H])C([H])([H])N(C([H])([H])[H])C4([H])C2([H])[H]

$$$$
80:1:1
     RDKit          3D

 55 59  0  0  1  0  0  0  0  0999 V2000
   -3.0484    3.8394    2.8778 C   0  0  0  0  0  0  0  0  0  0  0  0
   -1.7997    3.9905    3.3527 C   0  0  0  0  0  0  0  0  0  0  0  0
   -1.1999    3.2967    4.5764 C   0  0  1  0  0  0  0  0  0  0  0  0
   -2.3408    2.9194    5.5316 C   0  0  0  0  0  0  0  0  0  0  0  0
   -0.4197    2.0073    4.0319 C   0  0  0  0  0  0  0  0  0  0  0  0
    0.8449    1.3112    4.7206 C   0  0  2  0  0  0  0  0  0  0  0  0
    0.3100    0.0597    5.4578 C   0  0  0  0  0  0  0  0  0  0  0  0
    0.2438   -1.1626    4.8945 C   0  0  0  0  0  0  0  0  0  0  0  0
   -0.2903    0.2450    6.8428 C   0  0  0  0  0  0  0  0  0  0  0  0
    0.5060    1.1765    7.7570 C   0  0  0  0  0  0  0  0  0  0  0  0
    0.9073    2.4825    7.0516 C   0  0  0  0  0  0  0  0  0  0  0  0
    1.5935    2.2957    5.6426 C   0  0  1  0  0  0  0  0  0  0  0  0
    2.9986    1.7441    6.0851 C   0  0  0  0  0  0  0  0  0  0  0  0
    3.9527    1.2644    5.0004 C   0  0  0  0  0  0  0  0  0  0  0  0
    3.2269    0.4059    4.0757 N   0  0  0  0  0  0  0  0  0  0  0  0
    3.2919   -1.0068    4.4034 C   0  0  0  0  0  0  0  0  0  0  0  0
    1.9439    0.9711    3.6071 C   0  0  2  0  0  0  0  0  0  0  0  0
    2.4468    2.2271    2.8354 C   0  0  0  0  0  0  0  0  0  0  0  0
    2.5008    3.5613    3.5924 C   0  0  0  0  0  0  0  0  0  0  0  0
    2.7755    4.7853    2.9613 C   0  0  0  0  0  0  0  0  0  0  0  0
    2.1419    5.9539    3.4105 C   0  0  0  0  0  0  0  0  0  0  0  0
    1.0585    5.8511    4.3068 C   0  0  0  0  0  0  0  0  0  0  0  0
    0.2366    6.9316    4.4807 O   0  0  0  0  0  0  0  0  0  0  0  0
    0.7541    4.6076    4.9043 C   0  0  0  0  0  0  0  0  0  0  0  0
    1.7003    3.5773    4.7592 C   0  0  0  0  0  0  0  0  0  0  0  0
   -0.5104    4.3154    5.3348 O   0  0  0  0  0  0  0  0  0  0  0  0
   -3.7634    3.1555    3.3161 H   0  0  0  0  0  0  0  0  0  0  0  0
   -3.3888    4.4123    2.0342 H   0  0  0  0  0  0  0  0  0  0  0  0
   -1.1384    4.6698    2.8319 H   0  0  0  0  0  0  0  0  0  0  0  0
   -2.9546    2.1471    5.0943 H   0  0  0  0  0  0  0  0  0  0  0  0
   -2.9882    3.7752    5.7248 H   0  0  0  0  0  0  0  0  0  0  0  0
   -1.9965    2.5765    6.4991 H   0  0  0  0  0  0  0  0  0  0  0  0
   -1.1718    1.2351    3.8774 H   0  0  0  0  0  0  0  0  0  0  0  0
   -0.1446    2.2468    3.0055 H   0  0  0  0  0  0  0  0  0  0  0  0
    0.5936   -1.3467    3.8917 H   0  0  0  0  0  0  0  0  0  0  0  0
   -0.1680   -2.0108    5.4262 H   0  0  0  0  0  0  0  0  0  0  0  0
   -1.3045    0.6119    6.7135 H   0  0  0  0  0  0  0  0  0  0  0  0
   -0.3854   -0.7249    7.3354 H   0  0  0  0  0  0  0  0  0  0  0  0
   -0.0958    1.4186    8.6344 H   0  0  0  0  0  0  0  0  0  0  0  0
    1.3735    0.6588    8.1591 H   0  0  0  0  0  0  0  0  0  0  0  0
   -0.0032    3.0494    7.0461 H   0  0  0  0  0  0  0  0  0  0  0  0
    1.5575    3.0699    7.7041 H   0  0  0  0  0  0  0  0  0  0  0  0
    3.5230    2.4762    6.7022 H   0  0  0  0  0  0  0  0  0  0  0  0
    2.8831    0.8753    6.7223 H   0  0  0  0  0  0  0  0  0  0  0  0
    4.3945    2.1211    4.4896 H   0  0  0  0  0  0  0  0  0  0  0  0
    4.7982    0.7273    5.4324 H   0  0  0  0  0  0  0  0  0  0  0  0
    2.8159   -1.5981    3.6165 H   0  0  0  0  0  0  0  0  0  0  0  0
    2.8202   -1.2180    5.3630 H   0  0  0  0  0  0  0  0  0  0  0  0
    4.3323   -1.3321    4.4615 H   0  0  0  0  0  0  0  0  0  0  0  0
    1.5392    0.2774    2.8699 H   0  0  0  0  0  0  0  0  0  0  0  0
    3.4095    2.0302    2.3513 H   0  0  0  0  0  0  0  0  0  0  0  0
    1.7742    2.3874    2.0007 H   0  0  0  0  0  0  0  0  0  0  0  0
    3.3667    4.8053    2.0593 H   0  0  0  0  0  0  0  0  0  0  0  0
    2.3478    6.8896    2.9250 H   0  0  0  0  0  0  0  0  0  0  0  0
    0.3263    7.5624    3.7644 H   0  0  0  0  0  0  0  0  0  0  0  0
  1  2  2  0
  1 27  1  0
  1 28  1  0
  2  3  1  0
  2 29  1  0
  3 26  1  0
  3  4  1  1
  3  5  1  0
  4 30  1  0
  4 31  1  0
  4 32  1  0
  6  5  1  6
  5 33  1  0
  5 34  1  0
  6 12  1  0
  6 17  1  0
  6  7  1  0
  7  8  2  0
  7  9  1  0
  8 35  1  0
  8 36  1  0
  9 10  1  0
  9 37  1  0
  9 38  1  0
 10 11  1  0
 10 39  1  0
 10 40  1  0
 12 11  1  1
 11 41  1  0
 11 42  1  0
 12 25  1  0
 12 13  1  0
 13 14  1  0
 13 43  1  0
 13 44  1  0
 14 15  1  0
 14 45  1  0
 14 46  1  0
 15 16  1  0
 15 17  1  0
 16 47  1  0
 16 48  1  0
 16 49  1  0
 17 18  1  0
 17 50  1  6
 18 19  1  0
 18 51  1  0
 18 52  1  0
 19 25  2  0
 19 20  1  0
 20 21  2  0
 20 53  1  0
 21 22  1  0
 21 54  1  0
 22 23  1  0
 22 24  2  0
 23 55  1  0
 24 25  1  0
 24 26  1  0
M  END
>  <i_m_ct_stereo_status>  (272) 
1

>  <s_m_source_file>  (272) 
/var/tmp/pbs.5076255.sched01/tmp0eyfkrct/966b1hsbd3.sdf

>  <i_m_source_file_index>  (272) 
28

>  <i_lp_mmshare_version>  (272) 
48012

>  <i_f3d_flags>  (272) 
0

>  <s_epik_input>  (272) 
W0NIMl09W0NIXVtDQEBdKFtDSDNdKShbQ0gyXTEpT2MyYyhbT0hdKVtjSF1bY0hdYyhbQ0gyXVtDQEhdM04oW0NIM10pW0NIMl1bQ0gyXTQpYzJbQ0BdNChbQ0BAXTEzNSlbQ0gyXVtDSDJdW0NIMl1DNT1bQ0gyXQ==

>  <s_epik_cmdline>  (272) 
J2VwaWtfcHl0aG9uJywgJy1waHQnLCAnMi4wJywgJy1waCcsICc3LjAnLCAnLXRuJywgJzgnLCAnLW1hJywgJzIwMCcsICctaW1hZScsICc8aW5maWxlLm1hZT4nLCAnLW9tYWUnLCAnPG91dGZpbGUubWFlPic=

>  <r_lp_tautomer_probability>  (272) 
1

>  <r_epik_Ionization_Penalty>  (272) 
1.98727

>  <r_epik_Ionization_Penalty_Charging>  (272) 
0

>  <r_epik_Ionization_Penalty_Neutral>  (272) 
1.98727

>  <r_epik_State_Penalty>  (272) 
2.11478

>  <r_epik_Charging_Adjusted_Penalty>  (272) 
2.11478

>  <i_epik_Tot_Q>  (272) 
0

>  <i_epik_Tot_abs_Q>  (272) 
0

>  <s_lp_Force_Field>  (272) 
OPLS3e

>  <r_lp_Energy>  (272) 
133.305

>  <b_lp_Chiralities_Consistent>  (272) 
1

>  <s_lp_Variant>  (272) 
80:0-2

>  <s_i_glide_gridfile>  (272) 
pfpi4k_grid

>  <i_i_glide_lignum>  (272) 
28

>  <i_i_glide_rotatable_bonds>  (272) 
2

>  <r_i_docking_score>  (272) 
-2.77864

>  <r_i_glide_ligand_efficiency>  (272) 
-0.106871

>  <r_i_glide_ligand_efficiency_sa>  (272) 
-0.316605

>  <r_i_glide_ligand_efficiency_ln>  (272) 
-0.652555

>  <r_i_glide_gscore>  (272) 
-2.77864

>  <r_i_glide_lipo>  (272) 
-0.033416

>  <r_i_glide_hbond>  (272) 
0

>  <r_i_glide_metal>  (272) 
-0

>  <r_i_glide_rewards>  (272) 
-1.01262

>  <r_i_glide_evdw>  (272) 
-17.9654

>  <r_i_glide_ecoul>  (272) 
-6.28273

>  <r_i_glide_erotb>  (272) 
0.108074

>  <r_i_glide_esite>  (272) 
0

>  <r_i_glide_emodel>  (272) 
-28.097

>  <r_i_glide_energy>  (272) 
-24.2481

>  <r_i_glide_einternal>  (272) 
1.08852

>  <r_i_glide_intrahb_reward>  (272) 
-0

>  <i_i_glide_confnum>  (272) 
5

>  <i_i_glide_posenum>  (272) 
33

>  <r_i_glide_eff_state_penalty>  (272) 
0

>  <ligand_id>  (272) 
80

>  <original_smiles>  (272) 
C=CC1(C)CC23C(=C)CCCC24CCN(C)C3Cc2ccc(O)c(c24)O1

>  <smiles>  (272) 
[H]Oc1c([H])c([H])c2c3c1OC(C([H])=C([H])[H])(C([H])([H])[H])C([H])([H])C14C(=C([H])[H])C([H])([H])C([H])([H])C([H])([H])C31C([H])([H])C([H])([H])N(C([H])([H])[H])C4([H])C2([H])[H]

$$$$
80:1:2
     RDKit          3D

 55 59  0  0  1  0  0  0  0  0999 V2000
   -3.0806    3.3413    3.2366 C   0  0  0  0  0  0  0  0  0  0  0  0
   -1.8177    3.5500    3.6528 C   0  0  0  0  0  0  0  0  0  0  0  0
   -1.2016    3.1042    4.9846 C   0  0  1  0  0  0  0  0  0  0  0  0
   -2.3207    2.9733    6.0369 C   0  0  0  0  0  0  0  0  0  0  0  0
   -0.4632    1.7092    4.7076 C   0  0  0  0  0  0  0  0  0  0  0  0
    0.8084    1.1399    5.4948 C   0  0  2  0  0  0  0  0  0  0  0  0
    0.2751    0.0847    6.4968 C   0  0  0  0  0  0  0  0  0  0  0  0
    0.1701   -1.2259    6.2069 C   0  0  0  0  0  0  0  0  0  0  0  0
   -0.2743    0.5787    7.8267 C   0  0  0  0  0  0  0  0  0  0  0  0
    0.5717    1.6597    8.4996 C   0  0  0  0  0  0  0  0  0  0  0  0
    0.9762    2.7771    7.5194 C   0  0  0  0  0  0  0  0  0  0  0  0
    1.6111    2.2724    6.1678 C   0  0  1  0  0  0  0  0  0  0  0  0
    3.0205    1.7943    6.6797 C   0  0  0  0  0  0  0  0  0  0  0  0
    3.9287    1.0707    5.6963 C   0  0  0  0  0  0  0  0  0  0  0  0
    3.1554    0.0535    4.9919 N   0  0  0  0  0  0  0  0  0  0  0  0
    3.2013   -1.2578    5.6140 C   0  0  0  0  0  0  0  0  0  0  0  0
    1.8741    0.5425    4.4512 C   0  0  2  0  0  0  0  0  0  0  0  0
    2.3906    1.5844    3.4177 C   0  0  0  0  0  0  0  0  0  0  0  0
    2.4869    3.0459    3.8779 C   0  0  0  0  0  0  0  0  0  0  0  0
    2.7600    4.0983    2.9889 C   0  0  0  0  0  0  0  0  0  0  0  0
    2.1627    5.3523    3.1878 C   0  0  0  0  0  0  0  0  0  0  0  0
    1.1076    5.4584    4.1128 C   0  0  0  0  0  0  0  0  0  0  0  0
    0.2967    6.5543    4.0833 O   0  0  0  0  0  0  0  0  0  0  0  0
    0.7997    4.3894    4.9809 C   0  0  0  0  0  0  0  0  0  0  0  0
    1.7218    3.3233    5.0315 C   0  0  0  0  0  0  0  0  0  0  0  0
   -0.4582    4.2359    5.4923 O   0  0  0  0  0  0  0  0  0  0  0  0
   -3.7915    2.7870    3.8293 H   0  0  0  0  0  0  0  0  0  0  0  0
   -3.4286    3.7152    2.2849 H   0  0  0  0  0  0  0  0  0  0  0  0
   -1.1579    4.0908    2.9853 H   0  0  0  0  0  0  0  0  0  0  0  0
   -2.9831    2.1427    5.8275 H   0  0  0  0  0  0  0  0  0  0  0  0
   -2.9337    3.8733    6.0596 H   0  0  0  0  0  0  0  0  0  0  0  0
   -1.9438    2.8397    7.0443 H   0  0  0  0  0  0  0  0  0  0  0  0
   -1.2332    0.9423    4.7411 H   0  0  0  0  0  0  0  0  0  0  0  0
   -0.2110    1.7197    3.6509 H   0  0  0  0  0  0  0  0  0  0  0  0
    0.4831   -1.6248    5.2581 H   0  0  0  0  0  0  0  0  0  0  0  0
   -0.2341   -1.9309    6.9167 H   0  0  0  0  0  0  0  0  0  0  0  0
   -1.2831    0.9416    7.6553 H   0  0  0  0  0  0  0  0  0  0  0  0
   -0.3709   -0.2545    8.5226 H   0  0  0  0  0  0  0  0  0  0  0  0
    0.0001    2.0965    9.3210 H   0  0  0  0  0  0  0  0  0  0  0  0
    1.4396    1.2142    8.9791 H   0  0  0  0  0  0  0  0  0  0  0  0
    0.0740    3.3524    7.4219 H   0  0  0  0  0  0  0  0  0  0  0  0
    1.6564    3.4688    8.0168 H   0  0  0  0  0  0  0  0  0  0  0  0
    3.5741    2.6288    7.1098 H   0  0  0  0  0  0  0  0  0  0  0  0
    2.9036    1.0822    7.4898 H   0  0  0  0  0  0  0  0  0  0  0  0
    4.3737    1.7869    5.0043 H   0  0  0  0  0  0  0  0  0  0  0  0
    4.7750    0.6153    6.2118 H   0  0  0  0  0  0  0  0  0  0  0  0
    2.6902   -1.9879    4.9852 H   0  0  0  0  0  0  0  0  0  0  0  0
    2.7570   -1.2476    6.6085 H   0  0  0  0  0  0  0  0  0  0  0  0
    4.2365   -1.5885    5.7114 H   0  0  0  0  0  0  0  0  0  0  0  0
    1.4304   -0.2781    3.8873 H   0  0  0  0  0  0  0  0  0  0  0  0
    3.3414    1.2872    2.9597 H   0  0  0  0  0  0  0  0  0  0  0  0
    1.6923    1.5907    2.5838 H   0  0  0  0  0  0  0  0  0  0  0  0
    3.3251    3.9213    2.0856 H   0  0  0  0  0  0  0  0  0  0  0  0
    2.3686    6.1436    2.4863 H   0  0  0  0  0  0  0  0  0  0  0  0
    0.4862    7.1835    3.3836 H   0  0  0  0  0  0  0  0  0  0  0  0
  1  2  2  0
  1 27  1  0
  1 28  1  0
  2  3  1  0
  2 29  1  0
  3 26  1  0
  3  4  1  1
  3  5  1  0
  4 30  1  0
  4 31  1  0
  4 32  1  0
  6  5  1  6
  5 33  1  0
  5 34  1  0
  6 12  1  0
  6 17  1  0
  6  7  1  0
  7  8  2  0
  7  9  1  0
  8 35  1  0
  8 36  1  0
  9 10  1  0
  9 37  1  0
  9 38  1  0
 10 11  1  0
 10 39  1  0
 10 40  1  0
 12 11  1  1
 11 41  1  0
 11 42  1  0
 12 25  1  0
 12 13  1  0
 13 14  1  0
 13 43  1  0
 13 44  1  0
 14 15  1  0
 14 45  1  0
 14 46  1  0
 15 16  1  0
 15 17  1  0
 16 47  1  0
 16 48  1  0
 16 49  1  0
 17 18  1  0
 17 50  1  6
 18 19  1  0
 18 51  1  0
 18 52  1  0
 19 25  2  0
 19 20  1  0
 20 21  2  0
 20 53  1  0
 21 22  1  0
 21 54  1  0
 22 23  1  0
 22 24  2  0
 23 55  1  0
 24 25  1  0
 24 26  1  0
M  END
>  <i_m_ct_stereo_status>  (273) 
1

>  <s_m_source_file>  (273) 
/var/tmp/pbs.5076255.sched01/tmp0eyfkrct/966b1hsbd3.sdf

>  <i_m_source_file_index>  (273) 
28

>  <i_lp_mmshare_version>  (273) 
48012

>  <i_f3d_flags>  (273) 
0

>  <s_epik_input>  (273) 
W0NIMl09W0NIXVtDQEBdKFtDSDNdKShbQ0gyXTEpT2MyYyhbT0hdKVtjSF1bY0hdYyhbQ0gyXVtDQEhdM04oW0NIM10pW0NIMl1bQ0gyXTQpYzJbQ0BdNChbQ0BAXTEzNSlbQ0gyXVtDSDJdW0NIMl1DNT1bQ0gyXQ==

>  <s_epik_cmdline>  (273) 
J2VwaWtfcHl0aG9uJywgJy1waHQnLCAnMi4wJywgJy1waCcsICc3LjAnLCAnLXRuJywgJzgnLCAnLW1hJywgJzIwMCcsICctaW1hZScsICc8aW5maWxlLm1hZT4nLCAnLW9tYWUnLCAnPG91dGZpbGUubWFlPic=

>  <r_lp_tautomer_probability>  (273) 
1

>  <r_epik_Ionization_Penalty>  (273) 
1.98727

>  <r_epik_Ionization_Penalty_Charging>  (273) 
0

>  <r_epik_Ionization_Penalty_Neutral>  (273) 
1.98727

>  <r_epik_State_Penalty>  (273) 
2.11478

>  <r_epik_Charging_Adjusted_Penalty>  (273) 
2.11478

>  <i_epik_Tot_Q>  (273) 
0

>  <i_epik_Tot_abs_Q>  (273) 
0

>  <s_lp_Force_Field>  (273) 
OPLS3e

>  <r_lp_Energy>  (273) 
133.305

>  <b_lp_Chiralities_Consistent>  (273) 
1

>  <s_lp_Variant>  (273) 
80:0-2

>  <s_i_glide_gridfile>  (273) 
pfpi4k_grid

>  <i_i_glide_lignum>  (273) 
28

>  <i_i_glide_rotatable_bonds>  (273) 
2

>  <r_i_docking_score>  (273) 
-2.66198

>  <r_i_glide_ligand_efficiency>  (273) 
-0.102384

>  <r_i_glide_ligand_efficiency_sa>  (273) 
-0.303312

>  <r_i_glide_ligand_efficiency_ln>  (273) 
-0.625157

>  <r_i_glide_gscore>  (273) 
-2.66198

>  <r_i_glide_lipo>  (273) 
-0.0757093

>  <r_i_glide_hbond>  (273) 
0

>  <r_i_glide_metal>  (273) 
-0

>  <r_i_glide_rewards>  (273) 
-1.01262

>  <r_i_glide_evdw>  (273) 
-18.2132

>  <r_i_glide_ecoul>  (273) 
-5.44919

>  <r_i_glide_erotb>  (273) 
0.154391

>  <r_i_glide_esite>  (273) 
0

>  <r_i_glide_emodel>  (273) 
-27.6393

>  <r_i_glide_energy>  (273) 
-23.6624

>  <r_i_glide_einternal>  (273) 
0.68295

>  <r_i_glide_intrahb_reward>  (273) 
-0

>  <i_i_glide_confnum>  (273) 
5

>  <i_i_glide_posenum>  (273) 
36

>  <r_i_glide_eff_state_penalty>  (273) 
0

>  <ligand_id>  (273) 
80

>  <original_smiles>  (273) 
C=CC1(C)CC23C(=C)CCCC24CCN(C)C3Cc2ccc(O)c(c24)O1

>  <smiles>  (273) 
[H]Oc1c([H])c([H])c2c3c1OC(C([H])=C([H])[H])(C([H])([H])[H])C([H])([H])C14C(=C([H])[H])C([H])([H])C([H])([H])C([H])([H])C31C([H])([H])C([H])([H])N(C([H])([H])[H])C4([H])C2([H])[H]

$$$$
81:0:0
     RDKit          3D

 39 43  0  0  1  0  0  0  0  0999 V2000
    6.0431   -3.0809   -2.3100 C   0  0  0  0  0  0  0  0  0  0  0  0
    4.7385   -3.2749   -1.5375 C   0  0  1  0  0  0  0  0  0  0  0  0
    3.4818   -2.7351   -2.1338 N   0  0  0  0  0  0  0  0  0  0  0  0
    3.4473   -1.3140   -2.4809 C   0  0  0  0  0  0  0  0  0  0  0  0
    3.7255   -1.7226   -3.9302 C   0  0  0  0  0  0  0  0  0  0  0  0
    3.2380   -3.1175   -3.5223 C   0  0  0  0  0  0  0  0  0  0  0  0
    4.6308   -4.4846   -0.6574 C   0  0  1  0  0  0  0  0  0  0  0  0
    3.4697   -4.9253    0.2818 C   0  0  0  0  0  0  0  0  0  0  0  0
    3.7061   -4.5988    1.8297 C   0  0  2  0  0  0  0  0  0  0  0  0
    2.5619   -3.7525    2.4516 C   0  0  0  0  0  0  0  0  0  0  0  0
    2.7514   -2.2440    2.2762 C   0  0  0  0  0  0  0  0  0  0  0  0
    1.7298   -1.3495    2.6374 C   0  0  0  0  0  0  0  0  0  0  0  0
    1.9128    0.0363    2.4896 C   0  0  0  0  0  0  0  0  0  0  0  0
    3.1290    0.5255    2.0037 C   0  0  0  0  0  0  0  0  0  0  0  0
    4.1695   -0.3662    1.6457 C   0  0  0  0  0  0  0  0  0  0  0  0
    3.9770   -1.7326    1.7642 C   0  0  0  0  0  0  0  0  0  0  0  0
    5.0081   -2.6869    1.3177 C   0  0  0  0  0  0  0  0  0  0  0  0
    4.9649   -3.8413    2.0575 N   0  0  0  0  0  0  0  0  0  0  0  0
    4.9137   -3.1611   -0.0415 C   0  0  0  0  0  0  0  0  0  0  0  0
    6.8996   -3.5445   -1.7897 H   0  0  0  0  0  0  0  0  0  0  0  0
    6.2276   -2.0165   -2.4198 H   0  0  0  0  0  0  0  0  0  0  0  0
    5.9594   -3.5594   -3.2816 H   0  0  0  0  0  0  0  0  0  0  0  0
    2.4312   -0.9573   -2.3296 H   0  0  0  0  0  0  0  0  0  0  0  0
    4.1800   -0.7252   -1.9241 H   0  0  0  0  0  0  0  0  0  0  0  0
    3.0675   -1.2433   -4.6632 H   0  0  0  0  0  0  0  0  0  0  0  0
    4.7839   -1.6650   -4.1899 H   0  0  0  0  0  0  0  0  0  0  0  0
    3.8339   -3.9917   -3.7981 H   0  0  0  0  0  0  0  0  0  0  0  0
    2.1627   -3.2650   -3.6507 H   0  0  0  0  0  0  0  0  0  0  0  0
    5.5056   -5.1361   -0.5778 H   0  0  0  0  0  0  0  0  0  0  0  0
    2.5469   -4.4367   -0.0476 H   0  0  0  0  0  0  0  0  0  0  0  0
    3.2903   -6.0044    0.1409 H   0  0  0  0  0  0  0  0  0  0  0  0
    3.7743   -5.5469    2.3528 H   0  0  0  0  0  0  0  0  0  0  0  0
    1.5866   -4.0858    2.1020 H   0  0  0  0  0  0  0  0  0  0  0  0
    2.5641   -3.9453    3.5236 H   0  0  0  0  0  0  0  0  0  0  0  0
    0.7884   -1.7275    3.0188 H   0  0  0  0  0  0  0  0  0  0  0  0
    1.1016    0.7229    2.7352 H   0  0  0  0  0  0  0  0  0  0  0  0
    3.2627    1.5900    1.8862 H   0  0  0  0  0  0  0  0  0  0  0  0
    5.0956    0.0336    1.2607 H   0  0  0  0  0  0  0  0  0  0  0  0
    5.1624   -3.7272    3.0522 H   0  0  0  0  0  0  0  0  0  0  0  0
  2  1  1  6
  1 20  1  0
  1 21  1  0
  1 22  1  0
  2  3  1  0
  2  7  1  0
  2 19  1  0
  3  6  1  0
  3  4  1  0
  4  5  1  0
  4 23  1  0
  4 24  1  0
  5  6  1  0
  5 25  1  0
  5 26  1  0
  6 27  1  0
  6 28  1  0
  7  8  1  0
  7 29  1  1
  7 19  1  0
  8  9  1  0
  8 30  1  0
  8 31  1  0
  9 10  1  0
  9 32  1  1
  9 18  1  0
 10 11  1  0
 10 33  1  0
 10 34  1  0
 11 16  2  0
 11 12  1  0
 12 13  2  0
 12 35  1  0
 13 14  1  0
 13 36  1  0
 14 15  2  0
 14 37  1  0
 15 16  1  0
 15 38  1  0
 16 17  1  0
 17 19  2  0
 17 18  1  0
 18 39  1  0
M  END
>  <i_m_ct_stereo_status>  (274) 
1

>  <s_m_source_file>  (274) 
/var/tmp/pbs.5076255.sched01/tmp0eyfkrct/966b1hsbd3.sdf

>  <i_m_source_file_index>  (274) 
29

>  <i_lp_mmshare_version>  (274) 
48012

>  <i_f3d_flags>  (274) 
0

>  <s_epik_input>  (274) 
W0NIMl0xW0NIMl1bQ0gyXU4xW0NAQF0yKFtDSDNdKVtDQEhdKFtDQEhdMjMpQz00YzVjKFtDSDJdW0NASF0oTjQpW0NIMl0zKVtjSF1bY0hdW2NIXVtjSF01

>  <s_epik_cmdline>  (274) 
J2VwaWtfcHl0aG9uJywgJy1waHQnLCAnMi4wJywgJy1waCcsICc3LjAnLCAnLXRuJywgJzgnLCAnLW1hJywgJzIwMCcsICctaW1hZScsICc8aW5maWxlLm1hZT4nLCAnLW9tYWUnLCAnPG91dGZpbGUubWFlPic=

>  <r_lp_tautomer_probability>  (274) 
1

>  <r_epik_Ionization_Penalty>  (274) 
3.92933

>  <r_epik_Ionization_Penalty_Charging>  (274) 
4.80686e-11

>  <r_epik_Ionization_Penalty_Neutral>  (274) 
3.92933

>  <r_epik_State_Penalty>  (274) 
-0

>  <r_epik_Charging_Adjusted_Penalty>  (274) 
4.80686e-11

>  <i_epik_Tot_Q>  (274) 
0

>  <i_epik_Tot_abs_Q>  (274) 
0

>  <s_epik_Chemistry_Notes>  (274) 
This compound has an imine and may undergo hydrolysis.

>  <s_lp_Force_Field>  (274) 
OPLS3e

>  <r_lp_Energy>  (274) 
62.1867

>  <b_lp_Chiralities_Consistent>  (274) 
1

>  <s_lp_Variant>  (274) 
81:0-1

>  <s_i_glide_gridfile>  (274) 
pfpi4k_grid

>  <i_i_glide_lignum>  (274) 
29

>  <i_i_glide_rotatable_bonds>  (274) 
1

>  <r_i_docking_score>  (274) 
-3.45745

>  <r_i_glide_ligand_efficiency>  (274) 
-0.181971

>  <r_i_glide_ligand_efficiency_sa>  (274) 
-0.485572

>  <r_i_glide_ligand_efficiency_ln>  (274) 
-0.876539

>  <r_i_glide_gscore>  (274) 
-3.45745

>  <r_i_glide_lipo>  (274) 
-0.767824

>  <r_i_glide_hbond>  (274) 
0

>  <r_i_glide_metal>  (274) 
-0

>  <r_i_glide_rewards>  (274) 
-1.68849

>  <r_i_glide_evdw>  (274) 
-25.7702

>  <r_i_glide_ecoul>  (274) 
0.078937

>  <r_i_glide_erotb>  (274) 
0.275535

>  <r_i_glide_esite>  (274) 
0

>  <r_i_glide_emodel>  (274) 
-30.0266

>  <r_i_glide_energy>  (274) 
-25.6913

>  <r_i_glide_einternal>  (274) 
0.0192228

>  <r_i_glide_intrahb_reward>  (274) 
-0

>  <i_i_glide_confnum>  (274) 
4

>  <i_i_glide_posenum>  (274) 
8

>  <r_i_glide_eff_state_penalty>  (274) 
0

>  <ligand_id>  (274) 
81

>  <original_smiles>  (274) 
CC1(N2CCC2)C2CC3Cc4ccccc4C(=N3)C21

>  <smiles>  (274) 
[H]c1c([H])c([H])c2c(c1[H])C1=C3C([H])(C([H])([H])C([H])(N1[H])C2([H])[H])C3(N1C([H])([H])C([H])([H])C1([H])[H])C([H])([H])[H]

$$$$
81:0:1
     RDKit          3D

 39 43  0  0  1  0  0  0  0  0999 V2000
    2.8781   -2.6040    3.5063 C   0  0  0  0  0  0  0  0  0  0  0  0
    3.6447   -1.9945    2.3313 C   0  0  1  0  0  0  0  0  0  0  0  0
    3.2389   -0.6539    1.8756 N   0  0  0  0  0  0  0  0  0  0  0  0
    3.3833    0.3683    2.9059 C   0  0  0  0  0  0  0  0  0  0  0  0
    1.8630    0.3193    3.1139 C   0  0  0  0  0  0  0  0  0  0  0  0
    1.8102   -0.3603    1.7412 C   0  0  0  0  0  0  0  0  0  0  0  0
    5.0930   -2.3335    2.2161 C   0  0  1  0  0  0  0  0  0  0  0  0
    6.1381   -1.9054    1.1399 C   0  0  0  0  0  0  0  0  0  0  0  0
    6.4198   -3.0051    0.0160 C   0  0  2  0  0  0  0  0  0  0  0  0
    6.2030   -2.4634   -1.4270 C   0  0  0  0  0  0  0  0  0  0  0  0
    4.7521   -2.5798   -1.9066 C   0  0  0  0  0  0  0  0  0  0  0  0
    4.3366   -1.9733   -3.1187 C   0  0  0  0  0  0  0  0  0  0  0  0
    3.0248   -2.1200   -3.5664 C   0  0  0  0  0  0  0  0  0  0  0  0
    2.1268   -2.8880   -2.8063 C   0  0  0  0  0  0  0  0  0  0  0  0
    2.5086   -3.4560   -1.5905 C   0  0  0  0  0  0  0  0  0  0  0  0
    3.8200   -3.3110   -1.1251 C   0  0  0  0  0  0  0  0  0  0  0  0
    4.2225   -3.8688    0.1802 C   0  0  0  0  0  0  0  0  0  0  0  0
    5.5647   -4.2009    0.1563 N   0  0  0  0  0  0  0  0  0  0  0  0
    4.1044   -2.9870    1.3088 C   0  0  0  0  0  0  0  0  0  0  0  0
    3.2214   -3.6175    3.7467 H   0  0  0  0  0  0  0  0  0  0  0  0
    1.8151   -2.6433    3.2849 H   0  0  0  0  0  0  0  0  0  0  0  0
    3.0333   -1.9666    4.3766 H   0  0  0  0  0  0  0  0  0  0  0  0
    4.0482    0.0373    3.7102 H   0  0  0  0  0  0  0  0  0  0  0  0
    3.7211    1.2936    2.4450 H   0  0  0  0  0  0  0  0  0  0  0  0
    1.5344   -0.3172    3.9358 H   0  0  0  0  0  0  0  0  0  0  0  0
    1.4111    1.3223    3.1325 H   0  0  0  0  0  0  0  0  0  0  0  0
    1.6655    0.3567    0.9312 H   0  0  0  0  0  0  0  0  0  0  0  0
    1.2052   -1.2633    1.6101 H   0  0  0  0  0  0  0  0  0  0  0  0
    5.4811   -3.0789    2.9192 H   0  0  0  0  0  0  0  0  0  0  0  0
    5.7872   -0.9836    0.6644 H   0  0  0  0  0  0  0  0  0  0  0  0
    7.0616   -1.6253    1.6604 H   0  0  0  0  0  0  0  0  0  0  0  0
    7.4514   -3.3119    0.1206 H   0  0  0  0  0  0  0  0  0  0  0  0
    6.5637   -1.4561   -1.5266 H   0  0  0  0  0  0  0  0  0  0  0  0
    6.8074   -3.0664   -2.1048 H   0  0  0  0  0  0  0  0  0  0  0  0
    5.0102   -1.3779   -3.7164 H   0  0  0  0  0  0  0  0  0  0  0  0
    2.6978   -1.6216   -4.4727 H   0  0  0  0  0  0  0  0  0  0  0  0
    1.1054   -2.9977   -3.1488 H   0  0  0  0  0  0  0  0  0  0  0  0
    1.7897   -4.0143   -1.0104 H   0  0  0  0  0  0  0  0  0  0  0  0
    5.7939   -4.9411   -0.5138 H   0  0  0  0  0  0  0  0  0  0  0  0
  2  1  1  1
  1 20  1  0
  1 21  1  0
  1 22  1  0
  2  3  1  0
  2  7  1  0
  2 19  1  0
  3  6  1  0
  3  4  1  0
  4  5  1  0
  4 23  1  0
  4 24  1  0
  5  6  1  0
  5 25  1  0
  5 26  1  0
  6 27  1  0
  6 28  1  0
  7  8  1  0
  7 29  1  6
  7 19  1  0
  8  9  1  0
  8 30  1  0
  8 31  1  0
  9 10  1  0
  9 32  1  6
  9 18  1  0
 10 11  1  0
 10 33  1  0
 10 34  1  0
 11 16  2  0
 11 12  1  0
 12 13  2  0
 12 35  1  0
 13 14  1  0
 13 36  1  0
 14 15  2  0
 14 37  1  0
 15 16  1  0
 15 38  1  0
 16 17  1  0
 17 19  2  0
 17 18  1  0
 18 39  1  0
M  END
>  <i_m_ct_stereo_status>  (275) 
1

>  <s_m_source_file>  (275) 
/var/tmp/pbs.5076255.sched01/tmp0eyfkrct/966b1hsbd3.sdf

>  <i_m_source_file_index>  (275) 
29

>  <i_lp_mmshare_version>  (275) 
48012

>  <i_f3d_flags>  (275) 
0

>  <s_epik_input>  (275) 
W0NIMl0xW0NIMl1bQ0gyXU4xW0NAQF0yKFtDSDNdKVtDQEhdKFtDQEhdMjMpQz00YzVjKFtDSDJdW0NASF0oTjQpW0NIMl0zKVtjSF1bY0hdW2NIXVtjSF01

>  <s_epik_cmdline>  (275) 
J2VwaWtfcHl0aG9uJywgJy1waHQnLCAnMi4wJywgJy1waCcsICc3LjAnLCAnLXRuJywgJzgnLCAnLW1hJywgJzIwMCcsICctaW1hZScsICc8aW5maWxlLm1hZT4nLCAnLW9tYWUnLCAnPG91dGZpbGUubWFlPic=

>  <r_lp_tautomer_probability>  (275) 
1

>  <r_epik_Ionization_Penalty>  (275) 
3.92933

>  <r_epik_Ionization_Penalty_Charging>  (275) 
4.80686e-11

>  <r_epik_Ionization_Penalty_Neutral>  (275) 
3.92933

>  <r_epik_State_Penalty>  (275) 
-0

>  <r_epik_Charging_Adjusted_Penalty>  (275) 
4.80686e-11

>  <i_epik_Tot_Q>  (275) 
0

>  <i_epik_Tot_abs_Q>  (275) 
0

>  <s_epik_Chemistry_Notes>  (275) 
This compound has an imine and may undergo hydrolysis.

>  <s_lp_Force_Field>  (275) 
OPLS3e

>  <r_lp_Energy>  (275) 
62.1867

>  <b_lp_Chiralities_Consistent>  (275) 
1

>  <s_lp_Variant>  (275) 
81:0-1

>  <s_i_glide_gridfile>  (275) 
pfpi4k_grid

>  <i_i_glide_lignum>  (275) 
29

>  <i_i_glide_rotatable_bonds>  (275) 
1

>  <r_i_docking_score>  (275) 
-3.19536

>  <r_i_glide_ligand_efficiency>  (275) 
-0.168177

>  <r_i_glide_ligand_efficiency_sa>  (275) 
-0.448764

>  <r_i_glide_ligand_efficiency_ln>  (275) 
-0.810093

>  <r_i_glide_gscore>  (275) 
-3.19536

>  <r_i_glide_lipo>  (275) 
-0.864465

>  <r_i_glide_hbond>  (275) 
0

>  <r_i_glide_metal>  (275) 
-0

>  <r_i_glide_rewards>  (275) 
-1.68849

>  <r_i_glide_evdw>  (275) 
-22.3598

>  <r_i_glide_ecoul>  (275) 
1.3337

>  <r_i_glide_erotb>  (275) 
0.275535

>  <r_i_glide_esite>  (275) 
0

>  <r_i_glide_emodel>  (275) 
-24.8505

>  <r_i_glide_energy>  (275) 
-21.0261

>  <r_i_glide_einternal>  (275) 
0.0827052

>  <r_i_glide_intrahb_reward>  (275) 
-0

>  <i_i_glide_confnum>  (275) 
1

>  <i_i_glide_posenum>  (275) 
10

>  <r_i_glide_eff_state_penalty>  (275) 
0

>  <ligand_id>  (275) 
81

>  <original_smiles>  (275) 
CC1(N2CCC2)C2CC3Cc4ccccc4C(=N3)C21

>  <smiles>  (275) 
[H]c1c([H])c([H])c2c(c1[H])C1=C3C([H])(C([H])([H])C([H])(N1[H])C2([H])[H])C3(N1C([H])([H])C([H])([H])C1([H])[H])C([H])([H])[H]

$$$$
81:0:2
     RDKit          3D

 39 43  0  0  1  0  0  0  0  0999 V2000
    4.4229   -0.6710   -2.5732 C   0  0  0  0  0  0  0  0  0  0  0  0
    4.7378   -2.0297   -1.9531 C   0  0  1  0  0  0  0  0  0  0  0  0
    3.9428   -3.1885   -2.4062 N   0  0  0  0  0  0  0  0  0  0  0  0
    3.9350   -3.4089   -3.8436 C   0  0  0  0  0  0  0  0  0  0  0  0
    2.5427   -2.7691   -3.8834 C   0  0  0  0  0  0  0  0  0  0  0  0
    2.4937   -3.0475   -2.3715 C   0  0  0  0  0  0  0  0  0  0  0  0
    6.1511   -2.2936   -1.5634 C   0  0  1  0  0  0  0  0  0  0  0  0
    6.7660   -3.5486   -0.8661 C   0  0  0  0  0  0  0  0  0  0  0  0
    6.9914   -3.4055    0.6896 C   0  0  2  0  0  0  0  0  0  0  0  0
    6.3027   -4.5487    1.4966 C   0  0  0  0  0  0  0  0  0  0  0  0
    4.8443   -4.2252    1.8752 C   0  0  0  0  0  0  0  0  0  0  0  0
    4.0362   -5.2047    2.4793 C   0  0  0  0  0  0  0  0  0  0  0  0
    2.7104   -4.8883    2.8319 C   0  0  0  0  0  0  0  0  0  0  0  0
    2.2164   -3.6083    2.6050 C   0  0  0  0  0  0  0  0  0  0  0  0
    3.0143   -2.6103    2.0065 C   0  0  0  0  0  0  0  0  0  0  0  0
    4.3395   -2.9296    1.6272 C   0  0  0  0  0  0  0  0  0  0  0  0
    5.1563   -1.9246    0.9282 C   0  0  0  0  0  0  0  0  0  0  0  0
    6.5064   -2.1372    1.2309 N   0  0  0  0  0  0  0  0  0  0  0  0
    5.1361   -1.9541   -0.5163 C   0  0  0  0  0  0  0  0  0  0  0  0
    5.0846    0.1159   -2.1796 H   0  0  0  0  0  0  0  0  0  0  0  0
    3.3908   -0.3910   -2.3724 H   0  0  0  0  0  0  0  0  0  0  0  0
    4.5863   -0.7166   -3.6472 H   0  0  0  0  0  0  0  0  0  0  0  0
    4.7703   -2.9014   -4.3241 H   0  0  0  0  0  0  0  0  0  0  0  0
    3.9193   -4.4865   -4.0214 H   0  0  0  0  0  0  0  0  0  0  0  0
    2.5216   -1.7083   -4.1478 H   0  0  0  0  0  0  0  0  0  0  0  0
    1.8218   -3.3746   -4.4474 H   0  0  0  0  0  0  0  0  0  0  0  0
    2.0203   -3.9997   -2.1391 H   0  0  0  0  0  0  0  0  0  0  0  0
    2.2058   -2.2589   -1.6766 H   0  0  0  0  0  0  0  0  0  0  0  0
    6.8320   -1.4649   -1.6883 H   0  0  0  0  0  0  0  0  0  0  0  0
    6.0941   -4.3958   -1.0335 H   0  0  0  0  0  0  0  0  0  0  0  0
    7.7008   -3.7977   -1.3664 H   0  0  0  0  0  0  0  0  0  0  0  0
    8.0627   -3.4710    0.8712 H   0  0  0  0  0  0  0  0  0  0  0  0
    6.3865   -5.5178    1.0050 H   0  0  0  0  0  0  0  0  0  0  0  0
    6.8403   -4.6610    2.4385 H   0  0  0  0  0  0  0  0  0  0  0  0
    4.4272   -6.1903    2.6598 H   0  0  0  0  0  0  0  0  0  0  0  0
    2.0797   -5.6605    3.2617 H   0  0  0  0  0  0  0  0  0  0  0  0
    1.1950   -3.3674    2.8675 H   0  0  0  0  0  0  0  0  0  0  0  0
    2.6180   -1.6290    1.8126 H   0  0  0  0  0  0  0  0  0  0  0  0
    6.7215   -1.9922    2.2074 H   0  0  0  0  0  0  0  0  0  0  0  0
  2  1  1  6
  1 20  1  0
  1 21  1  0
  1 22  1  0
  2  3  1  0
  2  7  1  0
  2 19  1  0
  3  6  1  0
  3  4  1  0
  4  5  1  0
  4 23  1  0
  4 24  1  0
  5  6  1  0
  5 25  1  0
  5 26  1  0
  6 27  1  0
  6 28  1  0
  7  8  1  0
  7 29  1  1
  7 19  1  0
  8  9  1  0
  8 30  1  0
  8 31  1  0
  9 10  1  0
  9 32  1  6
  9 18  1  0
 10 11  1  0
 10 33  1  0
 10 34  1  0
 11 16  2  0
 11 12  1  0
 12 13  2  0
 12 35  1  0
 13 14  1  0
 13 36  1  0
 14 15  2  0
 14 37  1  0
 15 16  1  0
 15 38  1  0
 16 17  1  0
 17 19  2  0
 17 18  1  0
 18 39  1  0
M  END
>  <i_m_ct_stereo_status>  (276) 
1

>  <s_m_source_file>  (276) 
/var/tmp/pbs.5076255.sched01/tmp0eyfkrct/966b1hsbd3.sdf

>  <i_m_source_file_index>  (276) 
29

>  <i_lp_mmshare_version>  (276) 
48012

>  <i_f3d_flags>  (276) 
0

>  <s_epik_input>  (276) 
W0NIMl0xW0NIMl1bQ0gyXU4xW0NAQF0yKFtDSDNdKVtDQEhdKFtDQEhdMjMpQz00YzVjKFtDSDJdW0NASF0oTjQpW0NIMl0zKVtjSF1bY0hdW2NIXVtjSF01

>  <s_epik_cmdline>  (276) 
J2VwaWtfcHl0aG9uJywgJy1waHQnLCAnMi4wJywgJy1waCcsICc3LjAnLCAnLXRuJywgJzgnLCAnLW1hJywgJzIwMCcsICctaW1hZScsICc8aW5maWxlLm1hZT4nLCAnLW9tYWUnLCAnPG91dGZpbGUubWFlPic=

>  <r_lp_tautomer_probability>  (276) 
1

>  <r_epik_Ionization_Penalty>  (276) 
3.92933

>  <r_epik_Ionization_Penalty_Charging>  (276) 
4.80686e-11

>  <r_epik_Ionization_Penalty_Neutral>  (276) 
3.92933

>  <r_epik_State_Penalty>  (276) 
-0

>  <r_epik_Charging_Adjusted_Penalty>  (276) 
4.80686e-11

>  <i_epik_Tot_Q>  (276) 
0

>  <i_epik_Tot_abs_Q>  (276) 
0

>  <s_epik_Chemistry_Notes>  (276) 
This compound has an imine and may undergo hydrolysis.

>  <s_lp_Force_Field>  (276) 
OPLS3e

>  <r_lp_Energy>  (276) 
62.1867

>  <b_lp_Chiralities_Consistent>  (276) 
1

>  <s_lp_Variant>  (276) 
81:0-1

>  <s_i_glide_gridfile>  (276) 
pfpi4k_grid

>  <i_i_glide_lignum>  (276) 
29

>  <i_i_glide_rotatable_bonds>  (276) 
1

>  <r_i_docking_score>  (276) 
-3.01931

>  <r_i_glide_ligand_efficiency>  (276) 
-0.158911

>  <r_i_glide_ligand_efficiency_sa>  (276) 
-0.424039

>  <r_i_glide_ligand_efficiency_ln>  (276) 
-0.76546

>  <r_i_glide_gscore>  (276) 
-3.01931

>  <r_i_glide_lipo>  (276) 
-0.700811

>  <r_i_glide_hbond>  (276) 
0

>  <r_i_glide_metal>  (276) 
-0

>  <r_i_glide_rewards>  (276) 
-1.68849

>  <r_i_glide_evdw>  (276) 
-21.768

>  <r_i_glide_ecoul>  (276) 
1.21907

>  <r_i_glide_erotb>  (276) 
0.275535

>  <r_i_glide_esite>  (276) 
0

>  <r_i_glide_emodel>  (276) 
-24.24

>  <r_i_glide_energy>  (276) 
-20.549

>  <r_i_glide_einternal>  (276) 
0.000564107

>  <r_i_glide_intrahb_reward>  (276) 
-0

>  <i_i_glide_confnum>  (276) 
6

>  <i_i_glide_posenum>  (276) 
24

>  <r_i_glide_eff_state_penalty>  (276) 
0

>  <ligand_id>  (276) 
81

>  <original_smiles>  (276) 
CC1(N2CCC2)C2CC3Cc4ccccc4C(=N3)C21

>  <smiles>  (276) 
[H]c1c([H])c([H])c2c(c1[H])C1=C3C([H])(C([H])([H])C([H])(N1[H])C2([H])[H])C3(N1C([H])([H])C([H])([H])C1([H])[H])C([H])([H])[H]

$$$$
82:0:0
     RDKit          3D

 89 96  0  0  1  0  0  0  0  0999 V2000
    3.8898   -3.5895   10.4675 C   0  0  0  0  0  0  0  0  0  0  0  0
    3.3162   -3.0744    9.1134 C   0  0  0  0  0  0  0  0  0  0  0  0
    4.1249   -3.3510    7.7831 C   0  0  2  0  0  0  0  0  0  0  0  0
    5.5906   -2.7703    8.0308 C   0  0  1  0  0  0  0  0  0  0  0  0
    6.7876   -3.6138    7.5297 C   0  0  0  0  0  0  0  0  0  0  0  0
    6.9216   -3.9496    6.3828 O   0  0  0  0  0  0  0  0  0  0  0  0
    7.7053   -3.7640    8.5033 O   0  0  0  0  0  0  0  0  0  0  0  0
    8.8676   -4.5283    8.2297 C   0  0  0  0  0  0  0  0  0  0  0  0
    5.5849   -1.3836    7.3724 C   0  0  1  0  0  0  0  0  0  0  0  0
    6.9213   -0.6739    7.0612 C   0  0  0  0  0  0  0  0  0  0  0  0
    6.6905    0.6284    6.2801 C   0  0  0  0  0  0  0  0  0  0  0  0
    5.8206    0.3558    5.0392 C   0  0  0  0  0  0  0  0  0  0  0  0
    4.4930   -0.3154    5.4044 C   0  0  0  0  0  0  0  0  0  0  0  0
    4.7458   -1.5806    6.1680 N   0  0  2  0  0  0  0  0  0  0  0  0
    3.5822   -2.3411    6.6973 C   0  0  1  0  0  0  0  0  0  0  0  0
    2.7127   -2.9326    5.6289 C   0  0  0  0  0  0  0  0  0  0  0  0
    2.7472   -4.2154    5.2747 C   0  0  0  0  0  0  0  0  0  0  0  0
    3.7553   -5.2761    5.7862 C   0  0  1  0  0  0  0  0  0  0  0  0
    3.2695   -6.6856    5.5179 C   0  0  2  0  0  0  0  0  0  0  0  0
    4.4247   -7.4405    6.3234 C   0  0  1  0  0  0  0  0  0  0  0  0
    5.7597   -6.6580    5.9184 C   0  0  0  0  0  0  0  0  0  0  0  0
    5.0292   -5.7558    4.9007 C   0  0  2  0  0  0  0  0  0  0  0  0
    5.3849   -4.6329    3.8797 C   0  0  0  0  0  0  0  0  0  0  0  0
    4.1827   -4.6180    2.8611 C   0  0  0  0  0  0  0  0  0  0  0  0
    4.0800   -3.4154    1.9726 C   0  0  0  0  0  0  0  0  0  0  0  0
    4.7576   -2.4162    2.1106 O   0  0  0  0  0  0  0  0  0  0  0  0
    3.1237   -3.5777    1.0270 O   0  0  0  0  0  0  0  0  0  0  0  0
    2.9254   -2.5665    0.0450 C   0  0  0  0  0  0  0  0  0  0  0  0
    3.2421   -5.6076    2.8930 C   0  0  0  0  0  0  0  0  0  0  0  0
    3.3400   -6.8339    3.8921 C   0  0  2  0  0  0  0  0  0  0  0  0
    2.5737   -8.0480    3.3121 C   0  0  0  0  0  0  0  0  0  0  0  0
    3.2011   -8.9928    2.8317 O   0  0  0  0  0  0  0  0  0  0  0  0
    1.0726   -7.9825    3.3088 C   0  0  0  0  0  0  0  0  0  0  0  0
    0.3664   -7.0644    4.1263 C   0  0  0  0  0  0  0  0  0  0  0  0
   -1.0399   -7.0491    4.1510 C   0  0  0  0  0  0  0  0  0  0  0  0
   -1.7706   -7.9061    3.3129 C   0  0  0  0  0  0  0  0  0  0  0  0
   -1.0809   -8.8133    2.4776 C   0  0  0  0  0  0  0  0  0  0  0  0
    0.3283   -8.8614    2.4895 C   0  0  0  0  0  0  0  0  0  0  0  0
    4.8071   -6.9463    3.8474 C   0  0  0  0  0  0  0  0  0  0  0  0
    4.1704   -7.3482    7.7875 N   0  0  1  0  0  0  0  0  0  0  0  0
    4.8653   -8.3767    8.6157 C   0  0  0  0  0  0  0  0  0  0  0  0
    4.3409   -5.9637    8.3287 C   0  0  0  0  0  0  0  0  0  0  0  0
    3.8597   -4.8770    7.3413 C   0  0  1  0  0  0  0  0  0  0  0  0
    3.1379   -3.4377   11.2555 H   0  0  0  0  0  0  0  0  0  0  0  0
    4.7418   -2.9777   10.8013 H   0  0  0  0  0  0  0  0  0  0  0  0
    4.1881   -4.6112   10.4866 H   0  0  0  0  0  0  0  0  0  0  0  0
    2.2910   -3.4391    8.9983 H   0  0  0  0  0  0  0  0  0  0  0  0
    3.1842   -2.0059    9.2438 H   0  0  0  0  0  0  0  0  0  0  0  0
    5.7799   -2.6082    9.0802 H   0  0  0  0  0  0  0  0  0  0  0  0
    9.5926   -4.4075    9.0339 H   0  0  0  0  0  0  0  0  0  0  0  0
    9.3570   -4.2316    7.3095 H   0  0  0  0  0  0  0  0  0  0  0  0
    8.5948   -5.5777    8.1513 H   0  0  0  0  0  0  0  0  0  0  0  0
    5.0274   -0.7135    8.0318 H   0  0  0  0  0  0  0  0  0  0  0  0
    7.4277   -0.4526    7.9942 H   0  0  0  0  0  0  0  0  0  0  0  0
    7.5943   -1.3039    6.4751 H   0  0  0  0  0  0  0  0  0  0  0  0
    6.2049    1.3742    6.9132 H   0  0  0  0  0  0  0  0  0  0  0  0
    7.6532    1.0598    5.9849 H   0  0  0  0  0  0  0  0  0  0  0  0
    5.6161    1.2891    4.5258 H   0  0  0  0  0  0  0  0  0  0  0  0
    6.3838   -0.2556    4.3284 H   0  0  0  0  0  0  0  0  0  0  0  0
    3.8923    0.3579    6.0127 H   0  0  0  0  0  0  0  0  0  0  0  0
    3.9364   -0.5472    4.5081 H   0  0  0  0  0  0  0  0  0  0  0  0
    2.9362   -1.5941    7.1646 H   0  0  0  0  0  0  0  0  0  0  0  0
    1.9376   -2.2936    5.2295 H   0  0  0  0  0  0  0  0  0  0  0  0
    1.9492   -4.5407    4.6244 H   0  0  0  0  0  0  0  0  0  0  0  0
    2.2941   -6.9118    5.9615 H   0  0  0  0  0  0  0  0  0  0  0  0
    4.4352   -8.4942    6.0562 H   0  0  0  0  0  0  0  0  0  0  0  0
    6.2712   -6.1237    6.7155 H   0  0  0  0  0  0  0  0  0  0  0  0
    6.5101   -7.3244    5.4831 H   0  0  0  0  0  0  0  0  0  0  0  0
    5.4670   -3.6629    4.3591 H   0  0  0  0  0  0  0  0  0  0  0  0
    6.3164   -4.8408    3.3526 H   0  0  0  0  0  0  0  0  0  0  0  0
    2.1393   -2.8851   -0.6382 H   0  0  0  0  0  0  0  0  0  0  0  0
    3.8269   -2.4077   -0.5455 H   0  0  0  0  0  0  0  0  0  0  0  0
    2.6204   -1.6180    0.4891 H   0  0  0  0  0  0  0  0  0  0  0  0
    2.3807   -5.6060    2.2372 H   0  0  0  0  0  0  0  0  0  0  0  0
    0.8627   -6.3719    4.7832 H   0  0  0  0  0  0  0  0  0  0  0  0
   -1.5400   -6.3655    4.8129 H   0  0  0  0  0  0  0  0  0  0  0  0
   -2.8493   -7.8623    3.3028 H   0  0  0  0  0  0  0  0  0  0  0  0
   -1.6380   -9.4622    1.8188 H   0  0  0  0  0  0  0  0  0  0  0  0
    0.8356   -9.5654    1.8486 H   0  0  0  0  0  0  0  0  0  0  0  0
    5.2772   -6.8250    2.8722 H   0  0  0  0  0  0  0  0  0  0  0  0
    5.1321   -7.9644    4.0829 H   0  0  0  0  0  0  0  0  0  0  0  0
    5.9408   -8.2454    8.5399 H   0  0  0  0  0  0  0  0  0  0  0  0
    4.5842   -9.3712    8.3012 H   0  0  0  0  0  0  0  0  0  0  0  0
    4.5716   -8.2478    9.6492 H   0  0  0  0  0  0  0  0  0  0  0  0
    3.7348   -5.9774    9.2088 H   0  0  0  0  0  0  0  0  0  0  0  0
    5.3765   -5.8065    8.6282 H   0  0  0  0  0  0  0  0  0  0  0  0
    2.7896   -4.9694    7.5694 H   0  0  0  0  0  0  0  0  0  0  0  0
    5.2689   -2.2166    5.5457 H   0  0  0  0  0  0  0  0  0  0  0  0
    3.1650   -7.5451    7.8889 H   0  0  0  0  0  0  0  0  0  0  0  0
  1  2  1  0
  1 44  1  0
  1 45  1  0
  1 46  1  0
  3  2  1  1
  2 47  1  0
  2 48  1  0
  3 15  1  0
  3 43  1  0
  3  4  1  0
  4  5  1  0
  4  9  1  0
  4 49  1  1
  5  6  2  0
  5  7  1  0
  7  8  1  0
  8 50  1  0
  8 51  1  0
  8 52  1  0
  9 14  1  0
  9 10  1  0
  9 53  1  1
 10 11  1  0
 10 54  1  0
 10 55  1  0
 11 12  1  0
 11 56  1  0
 11 57  1  0
 12 13  1  0
 12 58  1  0
 12 59  1  0
 13 14  1  0
 13 60  1  0
 13 61  1  0
 14 15  1  0
 14 88  1  6
 15 16  1  0
 15 62  1  1
 16 17  2  0
 16 63  1  0
 18 17  1  6
 17 64  1  0
 18 22  1  0
 18 43  1  0
 18 19  1  0
 19 30  1  0
 19 20  1  0
 19 65  1  1
 20 21  1  0
 20 40  1  0
 20 66  1  6
 22 21  1  1
 21 67  1  0
 21 68  1  0
 22 39  1  0
 22 23  1  0
 23 24  1  0
 23 69  1  0
 23 70  1  0
 24 25  1  0
 24 29  2  0
 25 26  2  0
 25 27  1  0
 27 28  1  0
 28 71  1  0
 28 72  1  0
 28 73  1  0
 29 30  1  0
 29 74  1  0
 30 31  1  6
 30 39  1  0
 31 32  2  0
 31 33  1  0
 33 38  1  0
 33 34  2  0
 34 35  1  0
 34 75  1  0
 35 36  2  0
 35 76  1  0
 36 37  1  0
 36 77  1  0
 37 38  2  0
 37 78  1  0
 38 79  1  0
 39 80  1  0
 39 81  1  0
 40 41  1  0
 40 42  1  0
 40 89  1  6
 41 82  1  0
 41 83  1  0
 41 84  1  0
 42 43  1  0
 42 85  1  0
 42 86  1  0
 43 87  1  1
M  CHG  2  14   1  40   1
M  END
>  <i_m_ct_stereo_status>  (277) 
1

>  <s_m_source_file>  (277) 
/var/tmp/pbs.5076255.sched01/tmp0eyfkrct/966b1hsbd3.sdf

>  <i_m_source_file_index>  (277) 
30

>  <i_lp_mmshare_version>  (277) 
48012

>  <i_f3d_flags>  (277) 
0

>  <s_epik_input>  (277) 
W0NIM11PQyg9TylbQ0BIXTFbQ0BASF0oW0NIMl1bQ0gyXVtDSDJdW0NIMl0yKU4yW0NAQEhdKFtDSF09W0NIXTMpW0NAQF0xKFtDSDJdW0NIM10pW0NAQEhdNFtDSDJdTihbQ0gzXSlbQ0BIXShbQ0gyXVtDQEBdNTZbQ0BdMzQ3KVtDQEBIXTdbQ0BdKFtDSDJdNikoW0NIXT1DKFtDSDJdNSlDKD1PKU9bQ0gzXSlDKD1PKWM4W2NIXVtjSF1bY0hdW2NIXVtjSF04

>  <s_epik_cmdline>  (277) 
J2VwaWtfcHl0aG9uJywgJy1waHQnLCAnMi4wJywgJy1waCcsICc3LjAnLCAnLXRuJywgJzgnLCAnLW1hJywgJzIwMCcsICctaW1hZScsICc8aW5maWxlLm1hZT4nLCAnLW9tYWUnLCAnPG91dGZpbGUubWFlPic=

>  <r_epik_Ionization_Penalty>  (277) 
0.350131

>  <r_epik_Ionization_Penalty_Charging>  (277) 
0.350131

>  <r_epik_Ionization_Penalty_Neutral>  (277) 
0

>  <r_epik_State_Penalty>  (277) 
0.325116

>  <r_epik_Charging_Adjusted_Penalty>  (277) 
0.675247

>  <i_epik_Tot_Q>  (277) 
2

>  <i_epik_Tot_abs_Q>  (277) 
2

>  <s_epik_Chemistry_Notes>  (277) 
This compound has an ester and may undergo hydrolysis at high or low pH.

>  <s_lp_Force_Field>  (277) 
OPLS3e

>  <r_lp_Energy>  (277) 
232.005

>  <b_lp_Chiralities_Consistent>  (277) 
1

>  <s_lp_Variant>  (277) 
82:0-1

>  <s_i_glide_gridfile>  (277) 
pfpi4k_grid

>  <i_i_glide_lignum>  (277) 
30

>  <i_i_glide_rotatable_bonds>  (277) 
7

>  <r_i_docking_score>  (277) 
-1.86054

>  <r_i_glide_ligand_efficiency>  (277) 
-0.0432685

>  <r_i_glide_ligand_efficiency_sa>  (277) 
-0.151587

>  <r_i_glide_ligand_efficiency_ln>  (277) 
-0.390772

>  <r_i_glide_gscore>  (277) 
-1.86054

>  <r_i_glide_lipo>  (277) 
-0.394415

>  <r_i_glide_hbond>  (277) 
0

>  <r_i_glide_metal>  (277) 
-0

>  <r_i_glide_rewards>  (277) 
-0.0269854

>  <r_i_glide_evdw>  (277) 
-23.6543

>  <r_i_glide_ecoul>  (277) 
-2.60423

>  <r_i_glide_erotb>  (277) 
0.137698

>  <r_i_glide_esite>  (277) 
-0.00349293

>  <r_i_glide_emodel>  (277) 
-25.3622

>  <r_i_glide_energy>  (277) 
-26.2585

>  <r_i_glide_einternal>  (277) 
4.49302

>  <r_i_glide_intrahb_reward>  (277) 
-0

>  <i_i_glide_confnum>  (277) 
4

>  <i_i_glide_posenum>  (277) 
23

>  <r_i_glide_eff_state_penalty>  (277) 
0

>  <ligand_id>  (277) 
82

>  <original_smiles>  (277) 
CCC12C(C(=O)OC)C3CCCCN3C1C=CC13C4C(CC15CC(C(=O)OC)=CC4(C(=O)c1ccccc1)C5)N(C)CC23

>  <smiles>  (277) 
[H]C1=C(C(=O)OC([H])([H])[H])C([H])([H])C23C([H])([H])C1(C(=O)c1c([H])c([H])c([H])c([H])c1[H])C1([H])C24C([H])=C([H])C2([H])C(C([H])([H])C([H])([H])[H])(C([H])(C(=O)OC([H])([H])[H])C5([H])C([H])([H])C([H])([H])C([H])([H])C([H])([H])[N+]25[H])C4([H])C([H])([H])[N+]([H])(C([H])([H])[H])C1([H])C3([H])[H]

$$$$
82:1:0
     RDKit          3D

 88 95  0  0  1  0  0  0  0  0999 V2000
   -2.7218    2.7281    4.5605 C   0  0  0  0  0  0  0  0  0  0  0  0
   -1.6017    2.1863    3.6465 C   0  0  0  0  0  0  0  0  0  0  0  0
   -0.1830    1.9312    4.2929 C   0  0  2  0  0  0  0  0  0  0  0  0
    0.1222    3.1509    5.2765 C   0  0  1  0  0  0  0  0  0  0  0  0
    0.7992    2.9211    6.6021 C   0  0  0  0  0  0  0  0  0  0  0  0
    1.7609    2.1166    6.7296 O   0  0  0  0  0  0  0  0  0  0  0  0
    0.3687    3.6870    7.5718 O   0  0  0  0  0  0  0  0  0  0  0  0
    0.9468    3.6395    8.8545 C   0  0  0  0  0  0  0  0  0  0  0  0
    0.9751    4.1206    4.4118 C   0  0  1  0  0  0  0  0  0  0  0  0
    1.7639    5.2622    5.1153 C   0  0  0  0  0  0  0  0  0  0  0  0
    2.6640    6.0064    4.1251 C   0  0  0  0  0  0  0  0  0  0  0  0
    3.5415    5.0054    3.3809 C   0  0  0  0  0  0  0  0  0  0  0  0
    2.7171    3.9097    2.6728 C   0  0  0  0  0  0  0  0  0  0  0  0
    1.8515    3.2023    3.6640 N   0  0  2  0  0  0  0  0  0  0  0  0
    0.8917    2.1831    3.1660 C   0  0  1  0  0  0  0  0  0  0  0  0
    1.4996    0.9161    2.6311 C   0  0  0  0  0  0  0  0  0  0  0  0
    1.6174   -0.2309    3.2902 C   0  0  0  0  0  0  0  0  0  0  0  0
    1.2148   -0.4718    4.7580 C   0  0  1  0  0  0  0  0  0  0  0  0
    1.0516   -1.9448    5.0050 C   0  0  2  0  0  0  0  0  0  0  0  0
    0.4186   -1.7593    6.4963 C   0  0  1  0  0  0  0  0  0  0  0  0
    1.3513   -0.6615    7.1804 C   0  0  0  0  0  0  0  0  0  0  0  0
    2.2938   -0.5686    5.9674 C   0  0  2  0  0  0  0  0  0  0  0  0
    3.5919    0.2055    5.5429 C   0  0  0  0  0  0  0  0  0  0  0  0
    4.1987   -0.6642    4.3716 C   0  0  0  0  0  0  0  0  0  0  0  0
    5.2912   -0.1016    3.5534 C   0  0  0  0  0  0  0  0  0  0  0  0
    6.2433    0.5054    4.0857 O   0  0  0  0  0  0  0  0  0  0  0  0
    5.2001   -0.3617    2.1722 O   0  0  0  0  0  0  0  0  0  0  0  0
    4.0509   -0.8574    1.4980 C   0  0  0  0  0  0  0  0  0  0  0  0
    3.7434   -1.9166    4.1513 C   0  0  0  0  0  0  0  0  0  0  0  0
    2.5682   -2.5811    4.9637 C   0  0  2  0  0  0  0  0  0  0  0  0
    2.5714   -4.1367    4.8791 C   0  0  0  0  0  0  0  0  0  0  0  0
    2.8410   -4.8123    5.8768 O   0  0  0  0  0  0  0  0  0  0  0  0
    2.2813   -4.7686    3.5508 C   0  0  0  0  0  0  0  0  0  0  0  0
    3.1384   -4.5756    2.4414 C   0  0  0  0  0  0  0  0  0  0  0  0
    2.8798   -5.1860    1.2125 C   0  0  0  0  0  0  0  0  0  0  0  0
    1.7814   -6.0555    1.0691 C   0  0  0  0  0  0  0  0  0  0  0  0
    0.9441   -6.3019    2.1749 C   0  0  0  0  0  0  0  0  0  0  0  0
    1.1853   -5.6592    3.4121 C   0  0  0  0  0  0  0  0  0  0  0  0
    2.9616   -2.0058    6.2757 C   0  0  0  0  0  0  0  0  0  0  0  0
   -0.9734   -1.2910    6.4706 N   0  0  0  0  0  0  0  0  0  0  0  0
   -1.8991   -2.2251    5.8681 C   0  0  0  0  0  0  0  0  0  0  0  0
   -1.1185    0.0720    5.9811 C   0  0  0  0  0  0  0  0  0  0  0  0
   -0.1396    0.3946    4.8290 C   0  0  1  0  0  0  0  0  0  0  0  0
   -3.6826    2.6595    4.0519 H   0  0  0  0  0  0  0  0  0  0  0  0
   -2.5873    3.7828    4.7995 H   0  0  0  0  0  0  0  0  0  0  0  0
   -2.7821    2.1903    5.5048 H   0  0  0  0  0  0  0  0  0  0  0  0
   -1.9598    1.2754    3.1709 H   0  0  0  0  0  0  0  0  0  0  0  0
   -1.5368    2.8901    2.8159 H   0  0  0  0  0  0  0  0  0  0  0  0
   -0.7915    3.6876    5.5456 H   0  0  0  0  0  0  0  0  0  0  0  0
    0.6004    4.4620    9.4751 H   0  0  0  0  0  0  0  0  0  0  0  0
    2.0358    3.6817    8.8125 H   0  0  0  0  0  0  0  0  0  0  0  0
    0.6665    2.7028    9.3289 H   0  0  0  0  0  0  0  0  0  0  0  0
    0.3158    4.6008    3.6731 H   0  0  0  0  0  0  0  0  0  0  0  0
    1.0603    5.9603    5.5628 H   0  0  0  0  0  0  0  0  0  0  0  0
    2.3871    4.8803    5.9250 H   0  0  0  0  0  0  0  0  0  0  0  0
    2.0694    6.5733    3.4111 H   0  0  0  0  0  0  0  0  0  0  0  0
    3.2864    6.7189    4.6616 H   0  0  0  0  0  0  0  0  0  0  0  0
    4.1729    5.5264    2.6618 H   0  0  0  0  0  0  0  0  0  0  0  0
    4.1946    4.5200    4.1079 H   0  0  0  0  0  0  0  0  0  0  0  0
    2.1169    4.3671    1.8763 H   0  0  0  0  0  0  0  0  0  0  0  0
    3.3882    3.1840    2.2022 H   0  0  0  0  0  0  0  0  0  0  0  0
    0.4351    2.6356    2.2832 H   0  0  0  0  0  0  0  0  0  0  0  0
    1.7252    0.9720    1.5618 H   0  0  0  0  0  0  0  0  0  0  0  0
    1.8856   -1.1112    2.7092 H   0  0  0  0  0  0  0  0  0  0  0  0
    0.3793   -2.4422    4.2920 H   0  0  0  0  0  0  0  0  0  0  0  0
    0.4515   -2.7192    7.0312 H   0  0  0  0  0  0  0  0  0  0  0  0
    0.8585    0.2547    7.4589 H   0  0  0  0  0  0  0  0  0  0  0  0
    1.8456   -1.0107    8.0850 H   0  0  0  0  0  0  0  0  0  0  0  0
    3.3936    1.2127    5.1691 H   0  0  0  0  0  0  0  0  0  0  0  0
    4.3105    0.2943    6.3746 H   0  0  0  0  0  0  0  0  0  0  0  0
    4.1235   -0.8490    0.4163 H   0  0  0  0  0  0  0  0  0  0  0  0
    3.2979   -0.1601    1.7410 H   0  0  0  0  0  0  0  0  0  0  0  0
    3.7687   -1.8391    1.8390 H   0  0  0  0  0  0  0  0  0  0  0  0
    4.3206   -2.5326    3.4849 H   0  0  0  0  0  0  0  0  0  0  0  0
    4.0439   -4.0096    2.4963 H   0  0  0  0  0  0  0  0  0  0  0  0
    3.5514   -5.0107    0.3879 H   0  0  0  0  0  0  0  0  0  0  0  0
    1.6133   -6.5422    0.1183 H   0  0  0  0  0  0  0  0  0  0  0  0
    0.1237   -6.9964    2.0656 H   0  0  0  0  0  0  0  0  0  0  0  0
    0.5420   -5.8860    4.2543 H   0  0  0  0  0  0  0  0  0  0  0  0
    4.0388   -2.0209    6.4966 H   0  0  0  0  0  0  0  0  0  0  0  0
    2.6064   -2.6358    7.1092 H   0  0  0  0  0  0  0  0  0  0  0  0
   -2.9268   -1.9160    6.0620 H   0  0  0  0  0  0  0  0  0  0  0  0
   -1.7726   -3.2295    6.2764 H   0  0  0  0  0  0  0  0  0  0  0  0
   -1.7564   -2.2412    4.7928 H   0  0  0  0  0  0  0  0  0  0  0  0
   -2.1501    0.2148    5.6626 H   0  0  0  0  0  0  0  0  0  0  0  0
   -0.9752    0.7740    6.7991 H   0  0  0  0  0  0  0  0  0  0  0  0
   -0.6785   -0.1251    4.0373 H   0  0  0  0  0  0  0  0  0  0  0  0
    2.4630    2.7402    4.3392 H   0  0  0  0  0  0  0  0  0  0  0  0
  1  2  1  0
  1 44  1  0
  1 45  1  0
  1 46  1  0
  3  2  1  6
  2 47  1  0
  2 48  1  0
  3 15  1  0
  3 43  1  0
  3  4  1  0
  4  5  1  0
  4  9  1  0
  4 49  1  1
  5  6  2  0
  5  7  1  0
  7  8  1  0
  8 50  1  0
  8 51  1  0
  8 52  1  0
  9 14  1  0
  9 10  1  0
  9 53  1  6
 10 11  1  0
 10 54  1  0
 10 55  1  0
 11 12  1  0
 11 56  1  0
 11 57  1  0
 12 13  1  0
 12 58  1  0
 12 59  1  0
 13 14  1  0
 13 60  1  0
 13 61  1  0
 14 15  1  0
 14 88  1  1
 15 16  1  0
 15 62  1  6
 16 17  2  0
 16 63  1  0
 18 17  1  6
 17 64  1  0
 18 22  1  0
 18 43  1  0
 18 19  1  0
 19 30  1  0
 19 20  1  0
 19 65  1  6
 20 21  1  0
 20 40  1  0
 20 66  1  1
 22 21  1  1
 21 67  1  0
 21 68  1  0
 22 39  1  0
 22 23  1  0
 23 24  1  0
 23 69  1  0
 23 70  1  0
 24 25  1  0
 24 29  2  0
 25 26  2  0
 25 27  1  0
 27 28  1  0
 28 71  1  0
 28 72  1  0
 28 73  1  0
 29 30  1  0
 29 74  1  0
 30 31  1  1
 30 39  1  0
 31 32  2  0
 31 33  1  0
 33 38  1  0
 33 34  2  0
 34 35  1  0
 34 75  1  0
 35 36  2  0
 35 76  1  0
 36 37  1  0
 36 77  1  0
 37 38  2  0
 37 78  1  0
 38 79  1  0
 39 80  1  0
 39 81  1  0
 40 41  1  0
 40 42  1  0
 41 82  1  0
 41 83  1  0
 41 84  1  0
 42 43  1  0
 42 85  1  0
 42 86  1  0
 43 87  1  6
M  CHG  1  14   1
M  END
>  <i_m_ct_stereo_status>  (278) 
1

>  <s_m_source_file>  (278) 
/var/tmp/pbs.5076255.sched01/tmp0eyfkrct/966b1hsbd3.sdf

>  <i_m_source_file_index>  (278) 
31

>  <i_lp_mmshare_version>  (278) 
48012

>  <i_f3d_flags>  (278) 
0

>  <s_epik_input>  (278) 
W0NIM11PQyg9TylbQ0BIXTFbQ0BASF0oW0NIMl1bQ0gyXVtDSDJdW0NIMl0yKU4yW0NAQEhdKFtDSF09W0NIXTMpW0NAQF0xKFtDSDJdW0NIM10pW0NAQEhdNFtDSDJdTihbQ0gzXSlbQ0BIXShbQ0gyXVtDQEBdNTZbQ0BdMzQ3KVtDQEBIXTdbQ0BdKFtDSDJdNikoW0NIXT1DKFtDSDJdNSlDKD1PKU9bQ0gzXSlDKD1PKWM4W2NIXVtjSF1bY0hdW2NIXVtjSF04

>  <s_epik_cmdline>  (278) 
J2VwaWtfcHl0aG9uJywgJy1waHQnLCAnMi4wJywgJy1waCcsICc3LjAnLCAnLXRuJywgJzgnLCAnLW1hJywgJzIwMCcsICctaW1hZScsICc8aW5maWxlLm1hZT4nLCAnLW9tYWUnLCAnPG91dGZpbGUubWFlPic=

>  <r_epik_Ionization_Penalty>  (278) 
0.586807

>  <r_epik_Ionization_Penalty_Charging>  (278) 
0.00705643

>  <r_epik_Ionization_Penalty_Neutral>  (278) 
0.579751

>  <r_epik_State_Penalty>  (278) 
0.60682

>  <r_epik_Charging_Adjusted_Penalty>  (278) 
0.613877

>  <i_epik_Tot_Q>  (278) 
1

>  <i_epik_Tot_abs_Q>  (278) 
1

>  <s_epik_Chemistry_Notes>  (278) 
This compound has an ester and may undergo hydrolysis at high or low pH.

>  <s_lp_Force_Field>  (278) 
OPLS3e

>  <r_lp_Energy>  (278) 
227.984

>  <b_lp_Chiralities_Consistent>  (278) 
1

>  <s_lp_Variant>  (278) 
82:0-2

>  <s_i_glide_gridfile>  (278) 
pfpi4k_grid

>  <i_i_glide_lignum>  (278) 
31

>  <i_i_glide_rotatable_bonds>  (278) 
7

>  <r_i_docking_score>  (278) 
-1.94448

>  <r_i_glide_ligand_efficiency>  (278) 
-0.0452205

>  <r_i_glide_ligand_efficiency_sa>  (278) 
-0.158425

>  <r_i_glide_ligand_efficiency_ln>  (278) 
-0.408402

>  <r_i_glide_gscore>  (278) 
-1.94448

>  <r_i_glide_lipo>  (278) 
-0.106824

>  <r_i_glide_hbond>  (278) 
-0.108847

>  <r_i_glide_metal>  (278) 
-0

>  <r_i_glide_rewards>  (278) 
-0.150138

>  <r_i_glide_evdw>  (278) 
-23.307

>  <r_i_glide_ecoul>  (278) 
-6.23383

>  <r_i_glide_erotb>  (278) 
0.139367

>  <r_i_glide_esite>  (278) 
-0.0348257

>  <r_i_glide_emodel>  (278) 
-20.8481

>  <r_i_glide_energy>  (278) 
-29.5409

>  <r_i_glide_einternal>  (278) 
16.047

>  <r_i_glide_intrahb_reward>  (278) 
-0

>  <i_i_glide_confnum>  (278) 
5

>  <i_i_glide_posenum>  (278) 
26

>  <r_i_glide_eff_state_penalty>  (278) 
0

>  <ligand_id>  (278) 
82

>  <original_smiles>  (278) 
CCC12C(C(=O)OC)C3CCCCN3C1C=CC13C4C(CC15CC(C(=O)OC)=CC4(C(=O)c1ccccc1)C5)N(C)CC23

>  <smiles>  (278) 
[H]C1=C(C(=O)OC([H])([H])[H])C([H])([H])C23C([H])([H])C1(C(=O)c1c([H])c([H])c([H])c([H])c1[H])C1([H])C([H])(N(C([H])([H])[H])C([H])([H])C4([H])C12C([H])=C([H])C1([H])C4(C([H])([H])C([H])([H])[H])C([H])(C(=O)OC([H])([H])[H])C2([H])C([H])([H])C([H])([H])C([H])([H])C([H])([H])[N+]12[H])C3([H])[H]

$$$$
82:1:1
     RDKit          3D

 88 95  0  0  1  0  0  0  0  0999 V2000
    3.3428   -3.2902   10.2522 C   0  0  0  0  0  0  0  0  0  0  0  0
    2.8490   -2.8538    8.8343 C   0  0  0  0  0  0  0  0  0  0  0  0
    3.7437   -3.1926    7.5731 C   0  0  2  0  0  0  0  0  0  0  0  0
    5.1840   -2.5849    7.8722 C   0  0  1  0  0  0  0  0  0  0  0  0
    6.4259   -3.4138    7.4542 C   0  0  0  0  0  0  0  0  0  0  0  0
    6.5897   -3.8478    6.3570 O   0  0  0  0  0  0  0  0  0  0  0  0
    7.3439   -3.4103    8.4446 O   0  0  0  0  0  0  0  0  0  0  0  0
    8.5513   -4.1227    8.2430 C   0  0  0  0  0  0  0  0  0  0  0  0
    5.1842   -1.2215    7.1537 C   0  0  1  0  0  0  0  0  0  0  0  0
    6.5270   -0.4888    6.9011 C   0  0  0  0  0  0  0  0  0  0  0  0
    6.3228    0.7652    6.0385 C   0  0  0  0  0  0  0  0  0  0  0  0
    5.5541    0.4057    4.7558 C   0  0  0  0  0  0  0  0  0  0  0  0
    4.2130   -0.2812    5.0683 C   0  0  0  0  0  0  0  0  0  0  0  0
    4.4413   -1.4982    5.9083 N   0  0  2  0  0  0  0  0  0  0  0  0
    3.2592   -2.2611    6.3941 C   0  0  1  0  0  0  0  0  0  0  0  0
    2.4809   -2.9364    5.2971 C   0  0  0  0  0  0  0  0  0  0  0  0
    2.5670   -4.2378    5.0257 C   0  0  0  0  0  0  0  0  0  0  0  0
    3.5430   -5.2487    5.6791 C   0  0  1  0  0  0  0  0  0  0  0  0
    3.0750   -6.6759    5.5098 C   0  0  2  0  0  0  0  0  0  0  0  0
    4.1998   -7.3514    6.4444 C   0  0  1  0  0  0  0  0  0  0  0  0
    5.5532   -6.5862    6.0383 C   0  0  0  0  0  0  0  0  0  0  0  0
    4.8671   -5.7916    4.9067 C   0  0  2  0  0  0  0  0  0  0  0  0
    5.2743   -4.7639    3.8102 C   0  0  0  0  0  0  0  0  0  0  0  0
    4.1344   -4.8472    2.7271 C   0  0  0  0  0  0  0  0  0  0  0  0
    4.0603   -3.7372    1.7310 C   0  0  0  0  0  0  0  0  0  0  0  0
    4.8372   -2.7922    1.7144 O   0  0  0  0  0  0  0  0  0  0  0  0
    3.0201   -3.8895    0.8770 O   0  0  0  0  0  0  0  0  0  0  0  0
    2.8081   -2.9470   -0.1661 C   0  0  0  0  0  0  0  0  0  0  0  0
    3.1902   -5.8425    2.8003 C   0  0  0  0  0  0  0  0  0  0  0  0
    3.2409   -6.9715    3.9043 C   0  0  2  0  0  0  0  0  0  0  0  0
    2.5070   -8.2460    3.4142 C   0  0  0  0  0  0  0  0  0  0  0  0
    3.1624   -9.2180    3.0405 O   0  0  0  0  0  0  0  0  0  0  0  0
    1.0088   -8.1939    3.3538 C   0  0  0  0  0  0  0  0  0  0  0  0
    0.2701   -7.2042    4.0421 C   0  0  0  0  0  0  0  0  0  0  0  0
   -1.1349   -7.2020    4.0187 C   0  0  0  0  0  0  0  0  0  0  0  0
   -1.8260   -8.1551    3.2536 C   0  0  0  0  0  0  0  0  0  0  0  0
   -1.1057   -9.1313    2.5371 C   0  0  0  0  0  0  0  0  0  0  0  0
    0.3030   -9.1704    2.5994 C   0  0  0  0  0  0  0  0  0  0  0  0
    4.7076   -7.0742    3.9553 C   0  0  0  0  0  0  0  0  0  0  0  0
    3.9395   -7.1662    7.8761 N   0  0  0  0  0  0  0  0  0  0  0  0
    2.6970   -7.7828    8.3418 C   0  0  0  0  0  0  0  0  0  0  0  0
    4.0300   -5.7658    8.2974 C   0  0  0  0  0  0  0  0  0  0  0  0
    3.5411   -4.7560    7.2144 C   0  0  1  0  0  0  0  0  0  0  0  0
    2.5347   -3.0918   10.9774 H   0  0  0  0  0  0  0  0  0  0  0  0
    4.1668   -2.6412   10.5999 H   0  0  0  0  0  0  0  0  0  0  0  0
    3.6461   -4.2848   10.3532 H   0  0  0  0  0  0  0  0  0  0  0  0
    1.8390   -3.2385    8.6748 H   0  0  0  0  0  0  0  0  0  0  0  0
    2.6987   -1.7778    8.8856 H   0  0  0  0  0  0  0  0  0  0  0  0
    5.3096   -2.3835    8.9284 H   0  0  0  0  0  0  0  0  0  0  0  0
    9.2523   -3.9081    9.0480 H   0  0  0  0  0  0  0  0  0  0  0  0
    9.0334   -3.8666    7.3002 H   0  0  0  0  0  0  0  0  0  0  0  0
    8.3422   -5.1893    8.2378 H   0  0  0  0  0  0  0  0  0  0  0  0
    4.5701   -0.5354    7.7446 H   0  0  0  0  0  0  0  0  0  0  0  0
    6.9655   -0.2080    7.8536 H   0  0  0  0  0  0  0  0  0  0  0  0
    7.2560   -1.1315    6.4053 H   0  0  0  0  0  0  0  0  0  0  0  0
    5.7770    1.5269    6.5957 H   0  0  0  0  0  0  0  0  0  0  0  0
    7.2912    1.2049    5.7867 H   0  0  0  0  0  0  0  0  0  0  0  0
    5.3640    1.3081    4.1802 H   0  0  0  0  0  0  0  0  0  0  0  0
    6.1770   -0.2351    4.1235 H   0  0  0  0  0  0  0  0  0  0  0  0
    3.5576    0.4098    5.5990 H   0  0  0  0  0  0  0  0  0  0  0  0
    3.7190   -0.5652    4.1454 H   0  0  0  0  0  0  0  0  0  0  0  0
    2.5638   -1.5045    6.7716 H   0  0  0  0  0  0  0  0  0  0  0  0
    1.7242   -2.3340    4.8003 H   0  0  0  0  0  0  0  0  0  0  0  0
    1.8198   -4.6066    4.3363 H   0  0  0  0  0  0  0  0  0  0  0  0
    2.0793   -6.8662    5.8990 H   0  0  0  0  0  0  0  0  0  0  0  0
    4.2441   -8.4308    6.2602 H   0  0  0  0  0  0  0  0  0  0  0  0
    6.0248   -5.9768    6.7910 H   0  0  0  0  0  0  0  0  0  0  0  0
    6.3272   -7.2892    5.6931 H   0  0  0  0  0  0  0  0  0  0  0  0
    5.3259   -3.7518    4.2041 H   0  0  0  0  0  0  0  0  0  0  0  0
    6.2425   -5.0028    3.3636 H   0  0  0  0  0  0  0  0  0  0  0  0
    1.9361   -3.2429   -0.7491 H   0  0  0  0  0  0  0  0  0  0  0  0
    3.6621   -2.9137   -0.8424 H   0  0  0  0  0  0  0  0  0  0  0  0
    2.6247   -1.9445    0.2229 H   0  0  0  0  0  0  0  0  0  0  0  0
    2.3679   -5.9100    2.1016 H   0  0  0  0  0  0  0  0  0  0  0  0
    0.7303   -6.4333    4.6295 H   0  0  0  0  0  0  0  0  0  0  0  0
   -1.6685   -6.4608    4.5857 H   0  0  0  0  0  0  0  0  0  0  0  0
   -2.9035   -8.1226    3.2147 H   0  0  0  0  0  0  0  0  0  0  0  0
   -1.6364   -9.8591    1.9362 H   0  0  0  0  0  0  0  0  0  0  0  0
    0.8365   -9.9381    2.0613 H   0  0  0  0  0  0  0  0  0  0  0  0
    5.2339   -7.0399    2.9959 H   0  0  0  0  0  0  0  0  0  0  0  0
    5.0178   -8.0657    4.2964 H   0  0  0  0  0  0  0  0  0  0  0  0
    2.6647   -7.7521    9.4314 H   0  0  0  0  0  0  0  0  0  0  0  0
    2.6269   -8.8289    8.0512 H   0  0  0  0  0  0  0  0  0  0  0  0
    1.8006   -7.2620    7.9993 H   0  0  0  0  0  0  0  0  0  0  0  0
    3.4406   -5.6913    9.1626 H   0  0  0  0  0  0  0  0  0  0  0  0
    5.0713   -5.5434    8.5769 H   0  0  0  0  0  0  0  0  0  0  0  0
    2.4672   -4.8687    7.3946 H   0  0  0  0  0  0  0  0  0  0  0  0
    5.0140   -2.1520    5.3602 H   0  0  0  0  0  0  0  0  0  0  0  0
  1  2  1  0
  1 44  1  0
  1 45  1  0
  1 46  1  0
  3  2  1  1
  2 47  1  0
  2 48  1  0
  3 15  1  0
  3 43  1  0
  3  4  1  0
  4  5  1  0
  4  9  1  0
  4 49  1  1
  5  6  2  0
  5  7  1  0
  7  8  1  0
  8 50  1  0
  8 51  1  0
  8 52  1  0
  9 14  1  0
  9 10  1  0
  9 53  1  1
 10 11  1  0
 10 54  1  0
 10 55  1  0
 11 12  1  0
 11 56  1  0
 11 57  1  0
 12 13  1  0
 12 58  1  0
 12 59  1  0
 13 14  1  0
 13 60  1  0
 13 61  1  0
 14 15  1  0
 14 88  1  6
 15 16  1  0
 15 62  1  1
 16 17  2  0
 16 63  1  0
 18 17  1  6
 17 64  1  0
 18 22  1  0
 18 43  1  0
 18 19  1  0
 19 30  1  0
 19 20  1  0
 19 65  1  1
 20 21  1  0
 20 40  1  0
 20 66  1  1
 22 21  1  1
 21 67  1  0
 21 68  1  0
 22 39  1  0
 22 23  1  0
 23 24  1  0
 23 69  1  0
 23 70  1  0
 24 25  1  0
 24 29  2  0
 25 26  2  0
 25 27  1  0
 27 28  1  0
 28 71  1  0
 28 72  1  0
 28 73  1  0
 29 30  1  0
 29 74  1  0
 30 31  1  6
 30 39  1  0
 31 32  2  0
 31 33  1  0
 33 38  1  0
 33 34  2  0
 34 35  1  0
 34 75  1  0
 35 36  2  0
 35 76  1  0
 36 37  1  0
 36 77  1  0
 37 38  2  0
 37 78  1  0
 38 79  1  0
 39 80  1  0
 39 81  1  0
 40 41  1  0
 40 42  1  0
 41 82  1  0
 41 83  1  0
 41 84  1  0
 42 43  1  0
 42 85  1  0
 42 86  1  0
 43 87  1  1
M  CHG  1  14   1
M  END
>  <i_m_ct_stereo_status>  (279) 
1

>  <s_m_source_file>  (279) 
/var/tmp/pbs.5076255.sched01/tmp0eyfkrct/966b1hsbd3.sdf

>  <i_m_source_file_index>  (279) 
31

>  <i_lp_mmshare_version>  (279) 
48012

>  <i_f3d_flags>  (279) 
0

>  <s_epik_input>  (279) 
W0NIM11PQyg9TylbQ0BIXTFbQ0BASF0oW0NIMl1bQ0gyXVtDSDJdW0NIMl0yKU4yW0NAQEhdKFtDSF09W0NIXTMpW0NAQF0xKFtDSDJdW0NIM10pW0NAQEhdNFtDSDJdTihbQ0gzXSlbQ0BIXShbQ0gyXVtDQEBdNTZbQ0BdMzQ3KVtDQEBIXTdbQ0BdKFtDSDJdNikoW0NIXT1DKFtDSDJdNSlDKD1PKU9bQ0gzXSlDKD1PKWM4W2NIXVtjSF1bY0hdW2NIXVtjSF04

>  <s_epik_cmdline>  (279) 
J2VwaWtfcHl0aG9uJywgJy1waHQnLCAnMi4wJywgJy1waCcsICc3LjAnLCAnLXRuJywgJzgnLCAnLW1hJywgJzIwMCcsICctaW1hZScsICc8aW5maWxlLm1hZT4nLCAnLW9tYWUnLCAnPG91dGZpbGUubWFlPic=

>  <r_epik_Ionization_Penalty>  (279) 
0.586807

>  <r_epik_Ionization_Penalty_Charging>  (279) 
0.00705643

>  <r_epik_Ionization_Penalty_Neutral>  (279) 
0.579751

>  <r_epik_State_Penalty>  (279) 
0.60682

>  <r_epik_Charging_Adjusted_Penalty>  (279) 
0.613877

>  <i_epik_Tot_Q>  (279) 
1

>  <i_epik_Tot_abs_Q>  (279) 
1

>  <s_epik_Chemistry_Notes>  (279) 
This compound has an ester and may undergo hydrolysis at high or low pH.

>  <s_lp_Force_Field>  (279) 
OPLS3e

>  <r_lp_Energy>  (279) 
227.984

>  <b_lp_Chiralities_Consistent>  (279) 
1

>  <s_lp_Variant>  (279) 
82:0-2

>  <s_i_glide_gridfile>  (279) 
pfpi4k_grid

>  <i_i_glide_lignum>  (279) 
31

>  <i_i_glide_rotatable_bonds>  (279) 
7

>  <r_i_docking_score>  (279) 
-1.70481

>  <r_i_glide_ligand_efficiency>  (279) 
-0.0396467

>  <r_i_glide_ligand_efficiency_sa>  (279) 
-0.138898

>  <r_i_glide_ligand_efficiency_ln>  (279) 
-0.358062

>  <r_i_glide_gscore>  (279) 
-1.70481

>  <r_i_glide_lipo>  (279) 
-0.429895

>  <r_i_glide_hbond>  (279) 
0

>  <r_i_glide_metal>  (279) 
-0

>  <r_i_glide_rewards>  (279) 
-0.0234735

>  <r_i_glide_evdw>  (279) 
-24.1881

>  <r_i_glide_ecoul>  (279) 
-1.18463

>  <r_i_glide_erotb>  (279) 
0.139367

>  <r_i_glide_esite>  (279) 
-0.00370597

>  <r_i_glide_emodel>  (279) 
-25.1338

>  <r_i_glide_energy>  (279) 
-25.3727

>  <r_i_glide_einternal>  (279) 
4.05772

>  <r_i_glide_intrahb_reward>  (279) 
-0

>  <i_i_glide_confnum>  (279) 
4

>  <i_i_glide_posenum>  (279) 
36

>  <r_i_glide_eff_state_penalty>  (279) 
0

>  <ligand_id>  (279) 
82

>  <original_smiles>  (279) 
CCC12C(C(=O)OC)C3CCCCN3C1C=CC13C4C(CC15CC(C(=O)OC)=CC4(C(=O)c1ccccc1)C5)N(C)CC23

>  <smiles>  (279) 
[H]C1=C(C(=O)OC([H])([H])[H])C([H])([H])C23C([H])([H])C1(C(=O)c1c([H])c([H])c([H])c([H])c1[H])C1([H])C([H])(N(C([H])([H])[H])C([H])([H])C4([H])C12C([H])=C([H])C1([H])C4(C([H])([H])C([H])([H])[H])C([H])(C(=O)OC([H])([H])[H])C2([H])C([H])([H])C([H])([H])C([H])([H])C([H])([H])[N+]12[H])C3([H])[H]

$$$$
82:2:0
     RDKit          3D

 88 95  0  0  1  0  0  0  0  0999 V2000
   -1.8426   -7.9467    3.5602 C   0  0  0  0  0  0  0  0  0  0  0  0
   -0.4628   -8.6372    3.6551 C   0  0  0  0  0  0  0  0  0  0  0  0
    0.6756   -7.9275    4.4859 C   0  0  2  0  0  0  0  0  0  0  0  0
    0.1175   -7.6711    5.9265 C   0  0  1  0  0  0  0  0  0  0  0  0
    0.9682   -8.0897    7.1308 C   0  0  0  0  0  0  0  0  0  0  0  0
    1.9201   -7.4349    7.5452 O   0  0  0  0  0  0  0  0  0  0  0  0
    0.4986   -9.2100    7.6970 O   0  0  0  0  0  0  0  0  0  0  0  0
    1.1726   -9.7715    8.8119 C   0  0  0  0  0  0  0  0  0  0  0  0
   -0.2762   -6.1621    5.8880 C   0  0  1  0  0  0  0  0  0  0  0  0
   -0.4682   -5.4140    7.2216 C   0  0  0  0  0  0  0  0  0  0  0  0
   -0.7795   -3.9394    6.9461 C   0  0  0  0  0  0  0  0  0  0  0  0
    0.3130   -3.3413    6.0376 C   0  0  0  0  0  0  0  0  0  0  0  0
    0.5278   -4.1828    4.7620 C   0  0  0  0  0  0  0  0  0  0  0  0
    0.8164   -5.5797    5.1218 N   0  0  0  0  0  0  0  0  0  0  0  0
    0.8730   -6.4704    3.9558 C   0  0  1  0  0  0  0  0  0  0  0  0
    2.0802   -6.2313    3.0937 C   0  0  0  0  0  0  0  0  0  0  0  0
    3.1857   -6.9657    3.1800 C   0  0  0  0  0  0  0  0  0  0  0  0
    3.4311   -8.0805    4.2127 C   0  0  1  0  0  0  0  0  0  0  0  0
    4.5556   -8.9398    3.7445 C   0  0  2  0  0  0  0  0  0  0  0  0
    4.3688  -10.0883    4.8672 C   0  0  1  0  0  0  0  0  0  0  0  0
    4.1619   -9.2426    6.2007 C   0  0  0  0  0  0  0  0  0  0  0  0
    4.3716   -7.8867    5.5224 C   0  0  2  0  0  0  0  0  0  0  0  0
    4.3816   -6.3878    5.9091 C   0  0  0  0  0  0  0  0  0  0  0  0
    5.1804   -5.6774    4.7734 C   0  0  0  0  0  0  0  0  0  0  0  0
    5.0228   -4.2064    4.6454 C   0  0  0  0  0  0  0  0  0  0  0  0
    4.6398   -3.4818    5.5717 O   0  0  0  0  0  0  0  0  0  0  0  0
    5.3346   -3.7473    3.4132 O   0  0  0  0  0  0  0  0  0  0  0  0
    5.1851   -2.3723    3.1004 C   0  0  0  0  0  0  0  0  0  0  0  0
    5.8324   -6.4483    3.8125 C   0  0  0  0  0  0  0  0  0  0  0  0
    5.9018   -8.0216    3.9097 C   0  0  2  0  0  0  0  0  0  0  0  0
    7.1401   -8.5854    3.1822 C   0  0  0  0  0  0  0  0  0  0  0  0
    7.8886   -7.8429    2.5588 O   0  0  0  0  0  0  0  0  0  0  0  0
    7.3781  -10.0403    3.2708 C   0  0  0  0  0  0  0  0  0  0  0  0
    6.6464  -10.9183    2.4292 C   0  0  0  0  0  0  0  0  0  0  0  0
    6.8642  -12.3092    2.4786 C   0  0  0  0  0  0  0  0  0  0  0  0
    7.8615  -12.8375    3.3188 C   0  0  0  0  0  0  0  0  0  0  0  0
    8.6482  -11.9665    4.1125 C   0  0  0  0  0  0  0  0  0  0  0  0
    8.4092  -10.5670    4.0828 C   0  0  0  0  0  0  0  0  0  0  0  0
    5.9431   -8.1102    5.3638 C   0  0  0  0  0  0  0  0  0  0  0  0
    3.2548  -10.9775    4.5643 N   0  0  1  0  0  0  0  0  0  0  0  0
    3.3211  -12.2606    5.2404 C   0  0  0  0  0  0  0  0  0  0  0  0
    1.9725  -10.3163    4.7248 C   0  0  0  0  0  0  0  0  0  0  0  0
    2.0023   -8.8216    4.2451 C   0  0  1  0  0  0  0  0  0  0  0  0
   -2.5787   -8.6296    3.1476 H   0  0  0  0  0  0  0  0  0  0  0  0
   -1.8496   -7.0608    2.9294 H   0  0  0  0  0  0  0  0  0  0  0  0
   -2.2083   -7.6695    4.5375 H   0  0  0  0  0  0  0  0  0  0  0  0
   -0.6440   -9.6166    4.0937 H   0  0  0  0  0  0  0  0  0  0  0  0
   -0.1497   -8.8367    2.6285 H   0  0  0  0  0  0  0  0  0  0  0  0
   -0.7661   -8.2958    6.0277 H   0  0  0  0  0  0  0  0  0  0  0  0
    0.6240  -10.6393    9.1788 H   0  0  0  0  0  0  0  0  0  0  0  0
    1.2596   -9.0537    9.6268 H   0  0  0  0  0  0  0  0  0  0  0  0
    2.1695  -10.1079    8.5275 H   0  0  0  0  0  0  0  0  0  0  0  0
   -1.1931   -6.0162    5.3369 H   0  0  0  0  0  0  0  0  0  0  0  0
   -1.2896   -5.8527    7.7872 H   0  0  0  0  0  0  0  0  0  0  0  0
    0.4157   -5.4653    7.8565 H   0  0  0  0  0  0  0  0  0  0  0  0
   -1.7612   -3.8392    6.4801 H   0  0  0  0  0  0  0  0  0  0  0  0
   -0.8261   -3.3852    7.8839 H   0  0  0  0  0  0  0  0  0  0  0  0
    0.0498   -2.3174    5.7697 H   0  0  0  0  0  0  0  0  0  0  0  0
    1.2537   -3.2967    6.5924 H   0  0  0  0  0  0  0  0  0  0  0  0
   -0.3542   -4.1070    4.1425 H   0  0  0  0  0  0  0  0  0  0  0  0
    1.3517   -3.7638    4.1807 H   0  0  0  0  0  0  0  0  0  0  0  0
    0.0619   -6.2148    3.2889 H   0  0  0  0  0  0  0  0  0  0  0  0
    1.9732   -5.4952    2.3156 H   0  0  0  0  0  0  0  0  0  0  0  0
    3.9280   -6.8189    2.4076 H   0  0  0  0  0  0  0  0  0  0  0  0
    4.3953   -9.2887    2.7294 H   0  0  0  0  0  0  0  0  0  0  0  0
    5.2795  -10.6853    4.9476 H   0  0  0  0  0  0  0  0  0  0  0  0
    3.1960   -9.3598    6.6686 H   0  0  0  0  0  0  0  0  0  0  0  0
    4.8737   -9.4779    7.0018 H   0  0  0  0  0  0  0  0  0  0  0  0
    3.3608   -5.9964    5.9478 H   0  0  0  0  0  0  0  0  0  0  0  0
    4.8460   -6.2083    6.8806 H   0  0  0  0  0  0  0  0  0  0  0  0
    5.4781   -2.1982    2.0650 H   0  0  0  0  0  0  0  0  0  0  0  0
    5.8108   -1.7417    3.7296 H   0  0  0  0  0  0  0  0  0  0  0  0
    4.1479   -2.0533    3.2081 H   0  0  0  0  0  0  0  0  0  0  0  0
    6.3557   -5.9786    2.9922 H   0  0  0  0  0  0  0  0  0  0  0  0
    5.9233  -10.5394    1.7292 H   0  0  0  0  0  0  0  0  0  0  0  0
    6.2663  -12.9555    1.8491 H   0  0  0  0  0  0  0  0  0  0  0  0
    8.0416  -13.9033    3.3348 H   0  0  0  0  0  0  0  0  0  0  0  0
    9.4322  -12.3731    4.7333 H   0  0  0  0  0  0  0  0  0  0  0  0
    9.0249   -9.9057    4.6775 H   0  0  0  0  0  0  0  0  0  0  0  0
    6.5832   -7.3776    5.8672 H   0  0  0  0  0  0  0  0  0  0  0  0
    6.4255   -9.0325    5.6866 H   0  0  0  0  0  0  0  0  0  0  0  0
    3.2784  -12.1764    6.3273 H   0  0  0  0  0  0  0  0  0  0  0  0
    4.2243  -12.8347    5.0020 H   0  0  0  0  0  0  0  0  0  0  0  0
    2.4811  -12.8959    4.9359 H   0  0  0  0  0  0  0  0  0  0  0  0
    1.2216  -10.8659    4.1477 H   0  0  0  0  0  0  0  0  0  0  0  0
    1.6118  -10.3866    5.7482 H   0  0  0  0  0  0  0  0  0  0  0  0
    1.9133   -9.0319    3.1751 H   0  0  0  0  0  0  0  0  0  0  0  0
    3.3459  -11.2011    3.5952 H   0  0  0  0  0  0  0  0  0  0  0  0
  1  2  1  0
  1 44  1  0
  1 45  1  0
  1 46  1  0
  3  2  1  6
  2 47  1  0
  2 48  1  0
  3 15  1  0
  3 43  1  0
  3  4  1  0
  4  5  1  0
  4  9  1  0
  4 49  1  6
  5  6  2  0
  5  7  1  0
  7  8  1  0
  8 50  1  0
  8 51  1  0
  8 52  1  0
  9 14  1  0
  9 10  1  0
  9 53  1  6
 10 11  1  0
 10 54  1  0
 10 55  1  0
 11 12  1  0
 11 56  1  0
 11 57  1  0
 12 13  1  0
 12 58  1  0
 12 59  1  0
 13 14  1  0
 13 60  1  0
 13 61  1  0
 14 15  1  0
 15 16  1  0
 15 62  1  6
 16 17  2  0
 16 63  1  0
 18 17  1  6
 17 64  1  0
 18 22  1  0
 18 43  1  0
 18 19  1  0
 19 30  1  0
 19 20  1  0
 19 65  1  6
 20 21  1  0
 20 40  1  0
 20 66  1  1
 22 21  1  1
 21 67  1  0
 21 68  1  0
 22 39  1  0
 22 23  1  0
 23 24  1  0
 23 69  1  0
 23 70  1  0
 24 25  1  0
 24 29  2  0
 25 26  2  0
 25 27  1  0
 27 28  1  0
 28 71  1  0
 28 72  1  0
 28 73  1  0
 29 30  1  0
 29 74  1  0
 30 31  1  6
 30 39  1  0
 31 32  2  0
 31 33  1  0
 33 38  1  0
 33 34  2  0
 34 35  1  0
 34 75  1  0
 35 36  2  0
 35 76  1  0
 36 37  1  0
 36 77  1  0
 37 38  2  0
 37 78  1  0
 38 79  1  0
 39 80  1  0
 39 81  1  0
 40 41  1  0
 40 42  1  0
 40 88  1  6
 41 82  1  0
 41 83  1  0
 41 84  1  0
 42 43  1  0
 42 85  1  0
 42 86  1  0
 43 87  1  6
M  CHG  1  40   1
M  END
>  <i_m_ct_stereo_status>  (280) 
1

>  <s_m_source_file>  (280) 
/var/tmp/pbs.5076255.sched01/tmp0eyfkrct/966b1hsbd3.sdf

>  <i_m_source_file_index>  (280) 
32

>  <i_lp_mmshare_version>  (280) 
48012

>  <i_f3d_flags>  (280) 
0

>  <s_epik_input>  (280) 
W0NIM11PQyg9TylbQ0BIXTFbQ0BASF0oW0NIMl1bQ0gyXVtDSDJdW0NIMl0yKU4yW0NAQEhdKFtDSF09W0NIXTMpW0NAQF0xKFtDSDJdW0NIM10pW0NAQEhdNFtDSDJdTihbQ0gzXSlbQ0BIXShbQ0gyXVtDQEBdNTZbQ0BdMzQ3KVtDQEBIXTdbQ0BdKFtDSDJdNikoW0NIXT1DKFtDSDJdNSlDKD1PKU9bQ0gzXSlDKD1PKWM4W2NIXVtjSF1bY0hdW2NIXVtjSF04

>  <s_epik_cmdline>  (280) 
J2VwaWtfcHl0aG9uJywgJy1waHQnLCAnMi4wJywgJy1waCcsICc3LjAnLCAnLXRuJywgJzgnLCAnLW1hJywgJzIwMCcsICctaW1hZScsICc8aW5maWxlLm1hZT4nLCAnLW9tYWUnLCAnPG91dGZpbGUubWFlPic=

>  <r_epik_Ionization_Penalty>  (280) 
1.33507

>  <r_epik_Ionization_Penalty_Charging>  (280) 
0.0415657

>  <r_epik_Ionization_Penalty_Neutral>  (280) 
1.29351

>  <r_epik_State_Penalty>  (280) 
1.66871

>  <r_epik_Charging_Adjusted_Penalty>  (280) 
1.71027

>  <i_epik_Tot_Q>  (280) 
1

>  <i_epik_Tot_abs_Q>  (280) 
1

>  <s_epik_Chemistry_Notes>  (280) 
This compound has an ester and may undergo hydrolysis at high or low pH.

>  <s_lp_Force_Field>  (280) 
OPLS3e

>  <r_lp_Energy>  (280) 
219.691

>  <b_lp_Chiralities_Consistent>  (280) 
1

>  <s_lp_Variant>  (280) 
82:0-3

>  <s_i_glide_gridfile>  (280) 
pfpi4k_grid

>  <i_i_glide_lignum>  (280) 
32

>  <i_i_glide_rotatable_bonds>  (280) 
7

>  <r_i_docking_score>  (280) 
-2.12563

>  <r_i_glide_ligand_efficiency>  (280) 
-0.0494332

>  <r_i_glide_ligand_efficiency_sa>  (280) 
-0.173184

>  <r_i_glide_ligand_efficiency_ln>  (280) 
-0.446448

>  <r_i_glide_gscore>  (280) 
-2.12563

>  <r_i_glide_lipo>  (280) 
-0.202046

>  <r_i_glide_hbond>  (280) 
0

>  <r_i_glide_metal>  (280) 
-0

>  <r_i_glide_rewards>  (280) 
-0.0639004

>  <r_i_glide_evdw>  (280) 
-27.4102

>  <r_i_glide_ecoul>  (280) 
-3.88498

>  <r_i_glide_erotb>  (280) 
0.139367

>  <r_i_glide_esite>  (280) 
-0.0457893

>  <r_i_glide_emodel>  (280) 
-29.8255

>  <r_i_glide_energy>  (280) 
-31.2952

>  <r_i_glide_einternal>  (280) 
12.6558

>  <r_i_glide_intrahb_reward>  (280) 
-0

>  <i_i_glide_confnum>  (280) 
3

>  <i_i_glide_posenum>  (280) 
9

>  <r_i_glide_eff_state_penalty>  (280) 
0

>  <ligand_id>  (280) 
82

>  <original_smiles>  (280) 
CCC12C(C(=O)OC)C3CCCCN3C1C=CC13C4C(CC15CC(C(=O)OC)=CC4(C(=O)c1ccccc1)C5)N(C)CC23

>  <smiles>  (280) 
[H]C1=C([H])C23C([H])(C4(C([H])([H])C([H])([H])[H])C1([H])N1C([H])([H])C([H])([H])C([H])([H])C([H])([H])C1([H])C4([H])C(=O)OC([H])([H])[H])C([H])([H])[N+]([H])(C([H])([H])[H])C1([H])C([H])([H])C24C([H])([H])C(C(=O)OC([H])([H])[H])=C([H])C(C(=O)c2c([H])c([H])c([H])c([H])c2[H])(C4([H])[H])C31[H]

$$$$
84:0:0
     RDKit          3D

 82 86  0  0  1  0  0  0  0  0999 V2000
    4.6453  -12.8086    6.9065 C   0  0  0  0  0  0  0  0  0  0  0  0
    4.0919  -11.9799    5.7394 C   0  0  0  0  0  0  0  0  0  0  0  0
    4.1226  -12.4513    4.5989 O   0  0  0  0  0  0  0  0  0  0  0  0
    3.5863  -10.5359    6.0251 C   0  0  1  0  0  0  0  0  0  0  0  0
    3.8100  -10.2165    7.3805 O   0  0  0  0  0  0  0  0  0  0  0  0
    4.3406   -9.5268    5.1791 C   0  0  0  0  0  0  0  0  0  0  0  0
    3.5679   -8.5397    4.7316 C   0  0  0  0  0  0  0  0  0  0  0  0
    4.0070   -7.3944    3.7952 C   0  0  2  0  0  0  0  0  0  0  0  0
    4.1608   -6.0689    4.5575 C   0  0  1  0  0  0  0  0  0  0  0  0
    5.1342   -6.1899    5.5828 O   0  0  0  0  0  0  0  0  0  0  0  0
    4.5831   -4.9257    3.6437 C   0  0  0  0  0  0  0  0  0  0  0  0
    3.5885   -4.6352    2.4776 C   0  0  1  0  0  0  0  0  0  0  0  0
    4.0371   -3.3320    1.6673 C   0  0  2  0  0  0  0  0  0  0  0  0
    4.2118   -2.2110    2.7321 C   0  0  0  0  0  0  0  0  0  0  0  0
    2.9828   -2.7690    0.6668 C   0  0  0  0  0  0  0  0  0  0  0  0
    3.4707   -1.5851   -0.1932 C   0  0  0  0  0  0  0  0  0  0  0  0
    4.7551   -1.9034   -0.9578 C   0  0  1  0  0  0  0  0  0  0  0  0
    5.1589   -0.7471   -1.6700 O   0  0  0  0  0  0  0  0  0  0  0  0
    5.8864   -2.4321   -0.0407 C   0  0  0  0  0  0  0  0  0  0  0  0
    7.0524   -2.9097   -0.9412 C   0  0  0  0  0  0  0  0  0  0  0  0
    6.4762   -1.2923    0.8179 C   0  0  0  0  0  0  0  0  0  0  0  0
    5.3512   -3.6266    0.8513 C   0  0  2  0  0  0  0  0  0  0  0  0
    5.1537   -4.9386    0.0395 C   0  0  0  0  0  0  0  0  0  0  0  0
    4.6774   -6.1698    0.8362 C   0  0  0  0  0  0  0  0  0  0  0  0
    3.3709   -5.9709    1.6516 C   0  0  2  0  0  0  0  0  0  0  0  0
    2.1896   -5.8283    0.6588 C   0  0  0  0  0  0  0  0  0  0  0  0
    3.0286   -7.2442    2.5809 C   0  0  1  0  0  0  0  0  0  0  0  0
    3.1473   -8.5597    1.7526 C   0  0  0  0  0  0  0  0  0  0  0  0
    1.5796   -7.1392    3.1795 C   0  0  0  0  0  0  0  0  0  0  0  0
    1.1465   -8.3500    4.0235 C   0  0  0  0  0  0  0  0  0  0  0  0
    2.1244   -8.6876    5.1852 C   0  0  2  0  0  0  0  0  0  0  0  0
    1.8327   -7.7585    6.3788 C   0  0  0  0  0  0  0  0  0  0  0  0
    2.0890  -10.1763    5.7045 C   0  0  1  0  0  0  0  0  0  0  0  0
    1.3603  -11.1679    4.7712 C   0  0  0  0  0  0  0  0  0  0  0  0
    3.9810  -12.7552    7.7674 H   0  0  0  0  0  0  0  0  0  0  0  0
    5.6258  -12.4518    7.1959 H   0  0  0  0  0  0  0  0  0  0  0  0
    4.7149  -13.8568    6.6303 H   0  0  0  0  0  0  0  0  0  0  0  0
    3.2519  -10.7864    7.8958 H   0  0  0  0  0  0  0  0  0  0  0  0
    5.3864   -9.6439    4.9725 H   0  0  0  0  0  0  0  0  0  0  0  0
    4.9899   -7.6852    3.4229 H   0  0  0  0  0  0  0  0  0  0  0  0
    3.2314   -5.7657    5.0232 H   0  0  0  0  0  0  0  0  0  0  0  0
    5.9371   -6.4889    5.1988 H   0  0  0  0  0  0  0  0  0  0  0  0
    4.6998   -4.0626    4.3025 H   0  0  0  0  0  0  0  0  0  0  0  0
    5.5820   -5.1408    3.2613 H   0  0  0  0  0  0  0  0  0  0  0  0
    2.6325   -4.3855    2.9398 H   0  0  0  0  0  0  0  0  0  0  0  0
    4.0654   -1.2033    2.3578 H   0  0  0  0  0  0  0  0  0  0  0  0
    5.1983   -2.2342    3.1927 H   0  0  0  0  0  0  0  0  0  0  0  0
    3.4660   -2.3056    3.5261 H   0  0  0  0  0  0  0  0  0  0  0  0
    2.7042   -3.4986   -0.0763 H   0  0  0  0  0  0  0  0  0  0  0  0
    2.0603   -2.4998    1.1887 H   0  0  0  0  0  0  0  0  0  0  0  0
    2.7286   -1.3827   -0.9550 H   0  0  0  0  0  0  0  0  0  0  0  0
    3.5524   -0.6698    0.3875 H   0  0  0  0  0  0  0  0  0  0  0  0
    4.5149   -2.6621   -1.7046 H   0  0  0  0  0  0  0  0  0  0  0  0
    5.0124    0.0114   -1.1228 H   0  0  0  0  0  0  0  0  0  0  0  0
    7.8079   -3.4450   -0.3570 H   0  0  0  0  0  0  0  0  0  0  0  0
    7.5590   -2.0810   -1.4382 H   0  0  0  0  0  0  0  0  0  0  0  0
    6.7009   -3.5573   -1.7410 H   0  0  0  0  0  0  0  0  0  0  0  0
    7.0198   -1.6958    1.6738 H   0  0  0  0  0  0  0  0  0  0  0  0
    5.7282   -0.6073    1.1930 H   0  0  0  0  0  0  0  0  0  0  0  0
    7.1801   -0.6711    0.2657 H   0  0  0  0  0  0  0  0  0  0  0  0
    6.1545   -3.8387    1.5546 H   0  0  0  0  0  0  0  0  0  0  0  0
    4.4914   -4.7647   -0.8081 H   0  0  0  0  0  0  0  0  0  0  0  0
    6.1063   -5.2341   -0.3822 H   0  0  0  0  0  0  0  0  0  0  0  0
    4.5530   -6.9759    0.1072 H   0  0  0  0  0  0  0  0  0  0  0  0
    5.4915   -6.4848    1.4850 H   0  0  0  0  0  0  0  0  0  0  0  0
    1.6430   -6.7465    0.4789 H   0  0  0  0  0  0  0  0  0  0  0  0
    2.5127   -5.5257   -0.3303 H   0  0  0  0  0  0  0  0  0  0  0  0
    1.4583   -5.1126    1.0179 H   0  0  0  0  0  0  0  0  0  0  0  0
    2.4676   -8.6108    0.9005 H   0  0  0  0  0  0  0  0  0  0  0  0
    2.9333   -9.4483    2.3452 H   0  0  0  0  0  0  0  0  0  0  0  0
    4.1564   -8.7198    1.3764 H   0  0  0  0  0  0  0  0  0  0  0  0
    1.4795   -6.2443    3.7740 H   0  0  0  0  0  0  0  0  0  0  0  0
    0.8191   -7.0410    2.4061 H   0  0  0  0  0  0  0  0  0  0  0  0
    0.1537   -8.1909    4.4457 H   0  0  0  0  0  0  0  0  0  0  0  0
    1.0281   -9.1786    3.3365 H   0  0  0  0  0  0  0  0  0  0  0  0
    0.9245   -8.0689    6.8952 H   0  0  0  0  0  0  0  0  0  0  0  0
    1.6814   -6.7242    6.0866 H   0  0  0  0  0  0  0  0  0  0  0  0
    2.6486   -7.7821    7.1091 H   0  0  0  0  0  0  0  0  0  0  0  0
    1.5106  -10.2186    6.6381 H   0  0  0  0  0  0  0  0  0  0  0  0
    1.8467  -11.2344    3.7953 H   0  0  0  0  0  0  0  0  0  0  0  0
    0.3130  -10.8898    4.6139 H   0  0  0  0  0  0  0  0  0  0  0  0
    1.3396  -12.1702    5.1961 H   0  0  0  0  0  0  0  0  0  0  0  0
  1  2  1  0
  1 35  1  0
  1 36  1  0
  1 37  1  0
  2  3  2  0
  2  4  1  0
  4 33  1  0
  4  5  1  1
  4  6  1  0
  5 38  1  0
  6  7  2  0
  6 39  1  0
  7 31  1  0
  7  8  1  0
  8 27  1  0
  8  9  1  0
  8 40  1  6
  9 10  1  0
  9 11  1  0
  9 41  1  1
 10 42  1  0
 11 12  1  0
 11 43  1  0
 11 44  1  0
 12 25  1  0
 12 13  1  0
 12 45  1  1
 13 22  1  0
 13 14  1  1
 13 15  1  0
 14 46  1  0
 14 47  1  0
 14 48  1  0
 15 16  1  0
 15 49  1  0
 15 50  1  0
 16 17  1  0
 16 51  1  0
 16 52  1  0
 17 18  1  0
 17 19  1  0
 17 53  1  6
 18 54  1  0
 19 20  1  0
 19 21  1  0
 19 22  1  0
 20 55  1  0
 20 56  1  0
 20 57  1  0
 21 58  1  0
 21 59  1  0
 21 60  1  0
 22 23  1  0
 22 61  1  1
 23 24  1  0
 23 62  1  0
 23 63  1  0
 24 25  1  0
 24 64  1  0
 24 65  1  0
 25 26  1  6
 25 27  1  0
 26 66  1  0
 26 67  1  0
 26 68  1  0
 27 28  1  6
 27 29  1  0
 28 69  1  0
 28 70  1  0
 28 71  1  0
 29 30  1  0
 29 72  1  0
 29 73  1  0
 30 31  1  0
 30 74  1  0
 30 75  1  0
 31 32  1  1
 31 33  1  0
 32 76  1  0
 32 77  1  0
 32 78  1  0
 33 34  1  0
 33 79  1  1
 34 80  1  0
 34 81  1  0
 34 82  1  0
M  END
>  <i_m_ct_stereo_status>  (281) 
1

>  <s_m_source_file>  (281) 
/var/tmp/pbs.5076255.sched01/tmp0eyfkrct/966b1hsbd3.sdf

>  <i_m_source_file_index>  (281) 
34

>  <i_lp_mmshare_version>  (281) 
48012

>  <i_f3d_flags>  (281) 
0

>  <s_epik_input>  (281) 
W0NIM11DKD1PKVtDQEBdKFtPSF0pKFtDSF09MSlbQ0BIXShbQ0gzXSlbQ0BdKFtDSDNdKShbQ0gyXVtDSDJdMilDMVtDQEhdKFtDQEBIXShbT0hdKVtDSDJdMylbQ0BdMihbQ0gzXSlbQ0BAXShbQ0gzXSkoW0NAQEhdM1tDQF00NVtDSDNdKVtDSDJdW0NIMl1bQ0BIXTVDKFtDSDNdKShbQ0gzXSlbQ0BIXShbT0hdKVtDSDJdW0NIMl00

>  <s_epik_cmdline>  (281) 
J2VwaWtfcHl0aG9uJywgJy1waHQnLCAnMi4wJywgJy1waCcsICc3LjAnLCAnLXRuJywgJzgnLCAnLW1hJywgJzIwMCcsICctaW1hZScsICc8aW5maWxlLm1hZT4nLCAnLW9tYWUnLCAnPG91dGZpbGUubWFlPic=

>  <r_lp_tautomer_probability>  (281) 
1

>  <r_epik_Ionization_Penalty>  (281) 
4.1037e-06

>  <r_epik_Ionization_Penalty_Charging>  (281) 
0

>  <r_epik_Ionization_Penalty_Neutral>  (281) 
4.1037e-06

>  <r_epik_State_Penalty>  (281) 
-0

>  <r_epik_Charging_Adjusted_Penalty>  (281) 
0

>  <i_epik_Tot_Q>  (281) 
0

>  <i_epik_Tot_abs_Q>  (281) 
0

>  <s_lp_Force_Field>  (281) 
OPLS3e

>  <r_lp_Energy>  (281) 
95.9845

>  <b_lp_Chiralities_Consistent>  (281) 
1

>  <s_lp_Variant>  (281) 
84:0-1

>  <s_i_glide_gridfile>  (281) 
pfpi4k_grid

>  <i_i_glide_lignum>  (281) 
34

>  <i_i_glide_rotatable_bonds>  (281) 
4

>  <r_i_docking_score>  (281) 
-2.94931

>  <r_i_glide_ligand_efficiency>  (281) 
-0.0867444

>  <r_i_glide_ligand_efficiency_sa>  (281) 
-0.281018

>  <r_i_glide_ligand_efficiency_ln>  (281) 
-0.651585

>  <r_i_glide_gscore>  (281) 
-2.94931

>  <r_i_glide_lipo>  (281) 
-0.304688

>  <r_i_glide_hbond>  (281) 
-0.233878

>  <r_i_glide_metal>  (281) 
-0

>  <r_i_glide_rewards>  (281) 
-0.186138

>  <r_i_glide_evdw>  (281) 
-29.3113

>  <r_i_glide_ecoul>  (281) 
-4.64184

>  <r_i_glide_erotb>  (281) 
0

>  <r_i_glide_esite>  (281) 
-0.0627652

>  <r_i_glide_emodel>  (281) 
-38.2158

>  <r_i_glide_energy>  (281) 
-33.9531

>  <r_i_glide_einternal>  (281) 
2.80266

>  <r_i_glide_intrahb_reward>  (281) 
-0

>  <i_i_glide_confnum>  (281) 
2

>  <i_i_glide_posenum>  (281) 
6

>  <r_i_glide_eff_state_penalty>  (281) 
0

>  <ligand_id>  (281) 
84

>  <original_smiles>  (281) 
CC(=O)C1(O)C=C2C3C(O)CC4C5(C)CCC(O)C(C)(C)C5CCC4(C)C3(C)CCC2(C)C1C

>  <smiles>  (281) 
[H]OC1(C(=O)C([H])([H])[H])C([H])=C2C3([H])C([H])(O[H])C([H])([H])C4([H])C5(C([H])([H])[H])C([H])([H])C([H])([H])C([H])(O[H])C(C([H])([H])[H])(C([H])([H])[H])C5([H])C([H])([H])C([H])([H])C4(C([H])([H])[H])C3(C([H])([H])[H])C([H])([H])C([H])([H])C2(C([H])([H])[H])C1([H])C([H])([H])[H]

$$$$
84:0:1
     RDKit          3D

 82 86  0  0  1  0  0  0  0  0999 V2000
    1.7265  -11.2067    4.5137 C   0  0  0  0  0  0  0  0  0  0  0  0
    3.1833  -11.5123    4.8378 C   0  0  0  0  0  0  0  0  0  0  0  0
    3.5221  -12.6332    5.1854 O   0  0  0  0  0  0  0  0  0  0  0  0
    4.2725  -10.4143    4.7323 C   0  0  1  0  0  0  0  0  0  0  0  0
    5.5470  -11.0281    4.7551 O   0  0  0  0  0  0  0  0  0  0  0  0
    4.1709   -9.6475    3.4474 C   0  0  0  0  0  0  0  0  0  0  0  0
    4.4190   -8.3415    3.6035 C   0  0  0  0  0  0  0  0  0  0  0  0
    4.3335   -7.2650    2.5274 C   0  0  2  0  0  0  0  0  0  0  0  0
    5.7291   -6.8405    2.0376 C   0  0  1  0  0  0  0  0  0  0  0  0
    6.4078   -7.9556    1.5089 O   0  0  0  0  0  0  0  0  0  0  0  0
    5.6578   -5.7646    0.9598 C   0  0  0  0  0  0  0  0  0  0  0  0
    4.9324   -4.4526    1.4119 C   0  0  1  0  0  0  0  0  0  0  0  0
    5.0415   -3.3315    0.2788 C   0  0  2  0  0  0  0  0  0  0  0  0
    6.5609   -3.2158   -0.0546 C   0  0  0  0  0  0  0  0  0  0  0  0
    4.6203   -1.8936    0.7113 C   0  0  0  0  0  0  0  0  0  0  0  0
    4.6296   -0.8431   -0.4223 C   0  0  0  0  0  0  0  0  0  0  0  0
    3.7877   -1.2829   -1.6409 C   0  0  1  0  0  0  0  0  0  0  0  0
    3.8953   -0.3659   -2.7192 O   0  0  0  0  0  0  0  0  0  0  0  0
    4.1196   -2.7062   -2.1433 C   0  0  0  0  0  0  0  0  0  0  0  0
    3.0645   -3.0787   -3.2222 C   0  0  0  0  0  0  0  0  0  0  0  0
    5.4512   -2.6907   -2.8999 C   0  0  0  0  0  0  0  0  0  0  0  0
    4.1468   -3.7399   -0.9519 C   0  0  2  0  0  0  0  0  0  0  0  0
    2.7177   -4.0902   -0.4469 C   0  0  0  0  0  0  0  0  0  0  0  0
    2.6596   -5.1580    0.6638 C   0  0  0  0  0  0  0  0  0  0  0  0
    3.4824   -4.8201    1.9356 C   0  0  2  0  0  0  0  0  0  0  0  0
    2.8002   -3.6107    2.6408 C   0  0  0  0  0  0  0  0  0  0  0  0
    3.4869   -6.0336    2.9925 C   0  0  1  0  0  0  0  0  0  0  0  0
    2.0367   -6.5623    3.2148 C   0  0  0  0  0  0  0  0  0  0  0  0
    4.0899   -5.5875    4.3741 C   0  0  0  0  0  0  0  0  0  0  0  0
    4.0656   -6.6711    5.4685 C   0  0  0  0  0  0  0  0  0  0  0  0
    4.7562   -8.0000    5.0532 C   0  0  2  0  0  0  0  0  0  0  0  0
    6.2810   -7.8627    5.2344 C   0  0  0  0  0  0  0  0  0  0  0  0
    4.3018   -9.2939    5.8296 C   0  0  1  0  0  0  0  0  0  0  0  0
    3.0051   -9.1201    6.6529 C   0  0  0  0  0  0  0  0  0  0  0  0
    1.6173  -10.6988    3.5625 H   0  0  0  0  0  0  0  0  0  0  0  0
    1.2515  -10.6054    5.2794 H   0  0  0  0  0  0  0  0  0  0  0  0
    1.1480  -12.1254    4.4684 H   0  0  0  0  0  0  0  0  0  0  0  0
    5.5714  -11.6024    5.5153 H   0  0  0  0  0  0  0  0  0  0  0  0
    3.9035  -10.1237    2.5126 H   0  0  0  0  0  0  0  0  0  0  0  0
    3.8302   -7.7328    1.6717 H   0  0  0  0  0  0  0  0  0  0  0  0
    6.3311   -6.4383    2.8507 H   0  0  0  0  0  0  0  0  0  0  0  0
    6.4950   -8.6063    2.2029 H   0  0  0  0  0  0  0  0  0  0  0  0
    6.6931   -5.5871    0.6740 H   0  0  0  0  0  0  0  0  0  0  0  0
    5.1857   -6.2003    0.0811 H   0  0  0  0  0  0  0  0  0  0  0  0
    5.4935   -4.0747    2.2702 H   0  0  0  0  0  0  0  0  0  0  0  0
    6.8727   -2.2495   -0.4336 H   0  0  0  0  0  0  0  0  0  0  0  0
    6.8737   -3.9519   -0.7901 H   0  0  0  0  0  0  0  0  0  0  0  0
    7.1739   -3.3514    0.8378 H   0  0  0  0  0  0  0  0  0  0  0  0
    3.6004   -1.8631    1.0596 H   0  0  0  0  0  0  0  0  0  0  0  0
    5.2290   -1.5493    1.5516 H   0  0  0  0  0  0  0  0  0  0  0  0
    4.2219    0.0874   -0.0265 H   0  0  0  0  0  0  0  0  0  0  0  0
    5.6401   -0.5796   -0.7258 H   0  0  0  0  0  0  0  0  0  0  0  0
    2.7464   -1.2935   -1.3336 H   0  0  0  0  0  0  0  0  0  0  0  0
    3.2710    0.3313   -2.5848 H   0  0  0  0  0  0  0  0  0  0  0  0
    3.1945   -4.1112   -3.5548 H   0  0  0  0  0  0  0  0  0  0  0  0
    3.1408   -2.4572   -4.1198 H   0  0  0  0  0  0  0  0  0  0  0  0
    2.0420   -2.9500   -2.8602 H   0  0  0  0  0  0  0  0  0  0  0  0
    5.8796   -3.6974   -3.0193 H   0  0  0  0  0  0  0  0  0  0  0  0
    6.1838   -2.0664   -2.4171 H   0  0  0  0  0  0  0  0  0  0  0  0
    5.3038   -2.2819   -3.8942 H   0  0  0  0  0  0  0  0  0  0  0  0
    4.5523   -4.6585   -1.3785 H   0  0  0  0  0  0  0  0  0  0  0  0
    2.1959   -3.1842   -0.1506 H   0  0  0  0  0  0  0  0  0  0  0  0
    2.1220   -4.4898   -1.2635 H   0  0  0  0  0  0  0  0  0  0  0  0
    1.6091   -5.2913    0.9170 H   0  0  0  0  0  0  0  0  0  0  0  0
    2.9749   -6.1101    0.2377 H   0  0  0  0  0  0  0  0  0  0  0  0
    2.1149   -3.8826    3.4398 H   0  0  0  0  0  0  0  0  0  0  0  0
    2.1636   -3.0246    1.9836 H   0  0  0  0  0  0  0  0  0  0  0  0
    3.5324   -2.9458    3.0954 H   0  0  0  0  0  0  0  0  0  0  0  0
    1.3515   -5.8095    3.5977 H   0  0  0  0  0  0  0  0  0  0  0  0
    1.9860   -7.3878    3.9245 H   0  0  0  0  0  0  0  0  0  0  0  0
    1.6024   -6.9684    2.3016 H   0  0  0  0  0  0  0  0  0  0  0  0
    5.1126   -5.2412    4.2501 H   0  0  0  0  0  0  0  0  0  0  0  0
    3.5626   -4.7375    4.7946 H   0  0  0  0  0  0  0  0  0  0  0  0
    4.5426   -6.3037    6.3822 H   0  0  0  0  0  0  0  0  0  0  0  0
    3.0290   -6.8125    5.7372 H   0  0  0  0  0  0  0  0  0  0  0  0
    6.5523   -7.9126    6.2944 H   0  0  0  0  0  0  0  0  0  0  0  0
    6.6712   -6.9168    4.8724 H   0  0  0  0  0  0  0  0  0  0  0  0
    6.8235   -8.6651    4.7290 H   0  0  0  0  0  0  0  0  0  0  0  0
    5.0521   -9.5579    6.5872 H   0  0  0  0  0  0  0  0  0  0  0  0
    2.1744   -8.7978    6.0204 H   0  0  0  0  0  0  0  0  0  0  0  0
    3.1178   -8.3764    7.4409 H   0  0  0  0  0  0  0  0  0  0  0  0
    2.7013  -10.0420    7.1486 H   0  0  0  0  0  0  0  0  0  0  0  0
  1  2  1  0
  1 35  1  0
  1 36  1  0
  1 37  1  0
  2  3  2  0
  2  4  1  0
  4 33  1  0
  4  5  1  6
  4  6  1  0
  5 38  1  0
  6  7  2  0
  6 39  1  0
  7 31  1  0
  7  8  1  0
  8 27  1  0
  8  9  1  0
  8 40  1  6
  9 10  1  0
  9 11  1  0
  9 41  1  1
 10 42  1  0
 11 12  1  0
 11 43  1  0
 11 44  1  0
 12 25  1  0
 12 13  1  0
 12 45  1  1
 13 22  1  0
 13 14  1  6
 13 15  1  0
 14 46  1  0
 14 47  1  0
 14 48  1  0
 15 16  1  0
 15 49  1  0
 15 50  1  0
 16 17  1  0
 16 51  1  0
 16 52  1  0
 17 18  1  0
 17 19  1  0
 17 53  1  1
 18 54  1  0
 19 20  1  0
 19 21  1  0
 19 22  1  0
 20 55  1  0
 20 56  1  0
 20 57  1  0
 21 58  1  0
 21 59  1  0
 21 60  1  0
 22 23  1  0
 22 61  1  6
 23 24  1  0
 23 62  1  0
 23 63  1  0
 24 25  1  0
 24 64  1  0
 24 65  1  0
 25 26  1  1
 25 27  1  0
 26 66  1  0
 26 67  1  0
 26 68  1  0
 27 28  1  1
 27 29  1  0
 28 69  1  0
 28 70  1  0
 28 71  1  0
 29 30  1  0
 29 72  1  0
 29 73  1  0
 30 31  1  0
 30 74  1  0
 30 75  1  0
 31 32  1  6
 31 33  1  0
 32 76  1  0
 32 77  1  0
 32 78  1  0
 33 34  1  0
 33 79  1  1
 34 80  1  0
 34 81  1  0
 34 82  1  0
M  END
>  <i_m_ct_stereo_status>  (282) 
1

>  <s_m_source_file>  (282) 
/var/tmp/pbs.5076255.sched01/tmp0eyfkrct/966b1hsbd3.sdf

>  <i_m_source_file_index>  (282) 
34

>  <i_lp_mmshare_version>  (282) 
48012

>  <i_f3d_flags>  (282) 
0

>  <s_epik_input>  (282) 
W0NIM11DKD1PKVtDQEBdKFtPSF0pKFtDSF09MSlbQ0BIXShbQ0gzXSlbQ0BdKFtDSDNdKShbQ0gyXVtDSDJdMilDMVtDQEhdKFtDQEBIXShbT0hdKVtDSDJdMylbQ0BdMihbQ0gzXSlbQ0BAXShbQ0gzXSkoW0NAQEhdM1tDQF00NVtDSDNdKVtDSDJdW0NIMl1bQ0BIXTVDKFtDSDNdKShbQ0gzXSlbQ0BIXShbT0hdKVtDSDJdW0NIMl00

>  <s_epik_cmdline>  (282) 
J2VwaWtfcHl0aG9uJywgJy1waHQnLCAnMi4wJywgJy1waCcsICc3LjAnLCAnLXRuJywgJzgnLCAnLW1hJywgJzIwMCcsICctaW1hZScsICc8aW5maWxlLm1hZT4nLCAnLW9tYWUnLCAnPG91dGZpbGUubWFlPic=

>  <r_lp_tautomer_probability>  (282) 
1

>  <r_epik_Ionization_Penalty>  (282) 
4.1037e-06

>  <r_epik_Ionization_Penalty_Charging>  (282) 
0

>  <r_epik_Ionization_Penalty_Neutral>  (282) 
4.1037e-06

>  <r_epik_State_Penalty>  (282) 
-0

>  <r_epik_Charging_Adjusted_Penalty>  (282) 
0

>  <i_epik_Tot_Q>  (282) 
0

>  <i_epik_Tot_abs_Q>  (282) 
0

>  <s_lp_Force_Field>  (282) 
OPLS3e

>  <r_lp_Energy>  (282) 
95.9845

>  <b_lp_Chiralities_Consistent>  (282) 
1

>  <s_lp_Variant>  (282) 
84:0-1

>  <s_i_glide_gridfile>  (282) 
pfpi4k_grid

>  <i_i_glide_lignum>  (282) 
34

>  <i_i_glide_rotatable_bonds>  (282) 
4

>  <r_i_docking_score>  (282) 
-2.72213

>  <r_i_glide_ligand_efficiency>  (282) 
-0.0800627

>  <r_i_glide_ligand_efficiency_sa>  (282) 
-0.259372

>  <r_i_glide_ligand_efficiency_ln>  (282) 
-0.601395

>  <r_i_glide_gscore>  (282) 
-2.72213

>  <r_i_glide_lipo>  (282) 
-0.504808

>  <r_i_glide_hbond>  (282) 
-0.0661889

>  <r_i_glide_metal>  (282) 
-0

>  <r_i_glide_rewards>  (282) 
-0.186138

>  <r_i_glide_evdw>  (282) 
-31.332

>  <r_i_glide_ecoul>  (282) 
-2.36094

>  <r_i_glide_erotb>  (282) 
0

>  <r_i_glide_esite>  (282) 
-0.0442536

>  <r_i_glide_emodel>  (282) 
-36.9118

>  <r_i_glide_energy>  (282) 
-33.693

>  <r_i_glide_einternal>  (282) 
3.24849

>  <r_i_glide_intrahb_reward>  (282) 
-0

>  <i_i_glide_confnum>  (282) 
2

>  <i_i_glide_posenum>  (282) 
2

>  <r_i_glide_eff_state_penalty>  (282) 
0

>  <ligand_id>  (282) 
84

>  <original_smiles>  (282) 
CC(=O)C1(O)C=C2C3C(O)CC4C5(C)CCC(O)C(C)(C)C5CCC4(C)C3(C)CCC2(C)C1C

>  <smiles>  (282) 
[H]OC1(C(=O)C([H])([H])[H])C([H])=C2C3([H])C([H])(O[H])C([H])([H])C4([H])C5(C([H])([H])[H])C([H])([H])C([H])([H])C([H])(O[H])C(C([H])([H])[H])(C([H])([H])[H])C5([H])C([H])([H])C([H])([H])C4(C([H])([H])[H])C3(C([H])([H])[H])C([H])([H])C([H])([H])C2(C([H])([H])[H])C1([H])C([H])([H])[H]

$$$$
84:0:2
     RDKit          3D

 82 86  0  0  1  0  0  0  0  0999 V2000
    1.7072  -11.2263    4.4637 C   0  0  0  0  0  0  0  0  0  0  0  0
    3.1695  -11.5615    4.7842 C   0  0  0  0  0  0  0  0  0  0  0  0
    3.4652  -12.7069    5.1045 O   0  0  0  0  0  0  0  0  0  0  0  0
    4.2771  -10.4814    4.6746 C   0  0  1  0  0  0  0  0  0  0  0  0
    5.5433  -11.1289    4.6737 O   0  0  0  0  0  0  0  0  0  0  0  0
    4.1604   -9.6957    3.3931 C   0  0  0  0  0  0  0  0  0  0  0  0
    4.4142   -8.3963    3.5630 C   0  0  0  0  0  0  0  0  0  0  0  0
    4.3347   -7.2969    2.4926 C   0  0  2  0  0  0  0  0  0  0  0  0
    5.7310   -6.8775    2.0041 C   0  0  1  0  0  0  0  0  0  0  0  0
    6.4054   -7.9921    1.4632 O   0  0  0  0  0  0  0  0  0  0  0  0
    5.6566   -5.7964    0.9351 C   0  0  0  0  0  0  0  0  0  0  0  0
    4.9366   -4.4841    1.4002 C   0  0  1  0  0  0  0  0  0  0  0  0
    5.0481   -3.3492    0.2743 C   0  0  2  0  0  0  0  0  0  0  0  0
    6.5665   -3.2375   -0.0644 C   0  0  0  0  0  0  0  0  0  0  0  0
    4.6254   -1.9127    0.7202 C   0  0  0  0  0  0  0  0  0  0  0  0
    4.6345   -0.8528   -0.4049 C   0  0  0  0  0  0  0  0  0  0  0  0
    3.7927   -1.2896   -1.6255 C   0  0  1  0  0  0  0  0  0  0  0  0
    3.8952   -0.3585   -2.6966 O   0  0  0  0  0  0  0  0  0  0  0  0
    4.1238   -2.7070   -2.1493 C   0  0  0  0  0  0  0  0  0  0  0  0
    3.0575   -3.0680   -3.2196 C   0  0  0  0  0  0  0  0  0  0  0  0
    5.4674   -2.6937   -2.8985 C   0  0  0  0  0  0  0  0  0  0  0  0
    4.1452   -3.7485   -0.9583 C   0  0  2  0  0  0  0  0  0  0  0  0
    2.7159   -4.0981   -0.4526 C   0  0  0  0  0  0  0  0  0  0  0  0
    2.6566   -5.1750    0.6496 C   0  0  0  0  0  0  0  0  0  0  0  0
    3.4853   -4.8472    1.9272 C   0  0  2  0  0  0  0  0  0  0  0  0
    2.8077   -3.6387    2.6438 C   0  0  0  0  0  0  0  0  0  0  0  0
    3.4914   -6.0726    2.9799 C   0  0  1  0  0  0  0  0  0  0  0  0
    2.0348   -6.5977    3.1994 C   0  0  0  0  0  0  0  0  0  0  0  0
    4.1044   -5.6381    4.3606 C   0  0  0  0  0  0  0  0  0  0  0  0
    4.0775   -6.7336    5.4443 C   0  0  0  0  0  0  0  0  0  0  0  0
    4.7623   -8.0640    5.0143 C   0  0  2  0  0  0  0  0  0  0  0  0
    6.2923   -7.9272    5.1959 C   0  0  0  0  0  0  0  0  0  0  0  0
    4.3044   -9.3636    5.7791 C   0  0  1  0  0  0  0  0  0  0  0  0
    3.0015   -9.1924    6.6033 C   0  0  0  0  0  0  0  0  0  0  0  0
    1.6166  -10.7264    3.5031 H   0  0  0  0  0  0  0  0  0  0  0  0
    1.2635  -10.6084    5.2358 H   0  0  0  0  0  0  0  0  0  0  0  0
    1.1286  -12.1486    4.4143 H   0  0  0  0  0  0  0  0  0  0  0  0
    6.2183  -10.4756    4.5714 H   0  0  0  0  0  0  0  0  0  0  0  0
    3.8917  -10.1583    2.4574 H   0  0  0  0  0  0  0  0  0  0  0  0
    3.8273   -7.7529    1.6415 H   0  0  0  0  0  0  0  0  0  0  0  0
    6.3342   -6.4852    2.8158 H   0  0  0  0  0  0  0  0  0  0  0  0
    6.5059   -8.6371    2.1530 H   0  0  0  0  0  0  0  0  0  0  0  0
    6.6877   -5.6172    0.6439 H   0  0  0  0  0  0  0  0  0  0  0  0
    5.1800   -6.2205    0.0514 H   0  0  0  0  0  0  0  0  0  0  0  0
    5.5001   -4.1146    2.2586 H   0  0  0  0  0  0  0  0  0  0  0  0
    6.8777   -2.2667   -0.4335 H   0  0  0  0  0  0  0  0  0  0  0  0
    6.8731   -3.9700   -0.8079 H   0  0  0  0  0  0  0  0  0  0  0  0
    7.1807   -3.3841    0.8260 H   0  0  0  0  0  0  0  0  0  0  0  0
    3.6069   -1.8893    1.0745 H   0  0  0  0  0  0  0  0  0  0  0  0
    5.2376   -1.5809    1.5599 H   0  0  0  0  0  0  0  0  0  0  0  0
    4.2207    0.0716   -0.0014 H   0  0  0  0  0  0  0  0  0  0  0  0
    5.6453   -0.5898   -0.7077 H   0  0  0  0  0  0  0  0  0  0  0  0
    2.7523   -1.2957   -1.3153 H   0  0  0  0  0  0  0  0  0  0  0  0
    3.2288    0.3092   -2.5797 H   0  0  0  0  0  0  0  0  0  0  0  0
    3.1802   -4.1012   -3.5434 H   0  0  0  0  0  0  0  0  0  0  0  0
    3.1398   -2.4439   -4.1113 H   0  0  0  0  0  0  0  0  0  0  0  0
    2.0395   -2.9329   -2.8478 H   0  0  0  0  0  0  0  0  0  0  0  0
    5.8885   -3.6925   -3.0177 H   0  0  0  0  0  0  0  0  0  0  0  0
    6.1970   -2.0599   -2.4023 H   0  0  0  0  0  0  0  0  0  0  0  0
    5.3491   -2.2675   -3.8926 H   0  0  0  0  0  0  0  0  0  0  0  0
    4.5510   -4.6641   -1.3887 H   0  0  0  0  0  0  0  0  0  0  0  0
    2.1966   -3.1952   -0.1447 H   0  0  0  0  0  0  0  0  0  0  0  0
    2.1191   -4.4912   -1.2688 H   0  0  0  0  0  0  0  0  0  0  0  0
    1.6095   -5.3090    0.9087 H   0  0  0  0  0  0  0  0  0  0  0  0
    2.9721   -6.1256    0.2198 H   0  0  0  0  0  0  0  0  0  0  0  0
    2.1273   -3.9174    3.4405 H   0  0  0  0  0  0  0  0  0  0  0  0
    2.1704   -3.0489    1.9918 H   0  0  0  0  0  0  0  0  0  0  0  0
    3.5465   -2.9813    3.0998 H   0  0  0  0  0  0  0  0  0  0  0  0
    1.3573   -5.8415    3.5884 H   0  0  0  0  0  0  0  0  0  0  0  0
    1.9878   -7.4263    3.9030 H   0  0  0  0  0  0  0  0  0  0  0  0
    1.5990   -6.9958    2.2831 H   0  0  0  0  0  0  0  0  0  0  0  0
    5.1254   -5.2925    4.2320 H   0  0  0  0  0  0  0  0  0  0  0  0
    3.5798   -4.7888    4.7855 H   0  0  0  0  0  0  0  0  0  0  0  0
    4.5526   -6.3689    6.3554 H   0  0  0  0  0  0  0  0  0  0  0  0
    3.0352   -6.8716    5.7134 H   0  0  0  0  0  0  0  0  0  0  0  0
    6.5586   -7.9833    6.2532 H   0  0  0  0  0  0  0  0  0  0  0  0
    6.6746   -6.9748    4.8390 H   0  0  0  0  0  0  0  0  0  0  0  0
    6.8310   -8.7224    4.6778 H   0  0  0  0  0  0  0  0  0  0  0  0
    5.0504   -9.6406    6.5279 H   0  0  0  0  0  0  0  0  0  0  0  0
    2.1682   -8.8878    5.9699 H   0  0  0  0  0  0  0  0  0  0  0  0
    3.1170   -8.4460    7.3908 H   0  0  0  0  0  0  0  0  0  0  0  0
    2.7107  -10.1139    7.1041 H   0  0  0  0  0  0  0  0  0  0  0  0
  1  2  1  0
  1 35  1  0
  1 36  1  0
  1 37  1  0
  2  3  2  0
  2  4  1  0
  4 33  1  0
  4  5  1  6
  4  6  1  0
  5 38  1  0
  6  7  2  0
  6 39  1  0
  7 31  1  0
  7  8  1  0
  8 27  1  0
  8  9  1  0
  8 40  1  6
  9 10  1  0
  9 11  1  0
  9 41  1  1
 10 42  1  0
 11 12  1  0
 11 43  1  0
 11 44  1  0
 12 25  1  0
 12 13  1  0
 12 45  1  1
 13 22  1  0
 13 14  1  6
 13 15  1  0
 14 46  1  0
 14 47  1  0
 14 48  1  0
 15 16  1  0
 15 49  1  0
 15 50  1  0
 16 17  1  0
 16 51  1  0
 16 52  1  0
 17 18  1  0
 17 19  1  0
 17 53  1  1
 18 54  1  0
 19 20  1  0
 19 21  1  0
 19 22  1  0
 20 55  1  0
 20 56  1  0
 20 57  1  0
 21 58  1  0
 21 59  1  0
 21 60  1  0
 22 23  1  0
 22 61  1  6
 23 24  1  0
 23 62  1  0
 23 63  1  0
 24 25  1  0
 24 64  1  0
 24 65  1  0
 25 26  1  1
 25 27  1  0
 26 66  1  0
 26 67  1  0
 26 68  1  0
 27 28  1  1
 27 29  1  0
 28 69  1  0
 28 70  1  0
 28 71  1  0
 29 30  1  0
 29 72  1  0
 29 73  1  0
 30 31  1  0
 30 74  1  0
 30 75  1  0
 31 32  1  6
 31 33  1  0
 32 76  1  0
 32 77  1  0
 32 78  1  0
 33 34  1  0
 33 79  1  1
 34 80  1  0
 34 81  1  0
 34 82  1  0
M  END
>  <i_m_ct_stereo_status>  (283) 
1

>  <s_m_source_file>  (283) 
/var/tmp/pbs.5076255.sched01/tmp0eyfkrct/966b1hsbd3.sdf

>  <i_m_source_file_index>  (283) 
34

>  <i_lp_mmshare_version>  (283) 
48012

>  <i_f3d_flags>  (283) 
0

>  <s_epik_input>  (283) 
W0NIM11DKD1PKVtDQEBdKFtPSF0pKFtDSF09MSlbQ0BIXShbQ0gzXSlbQ0BdKFtDSDNdKShbQ0gyXVtDSDJdMilDMVtDQEhdKFtDQEBIXShbT0hdKVtDSDJdMylbQ0BdMihbQ0gzXSlbQ0BAXShbQ0gzXSkoW0NAQEhdM1tDQF00NVtDSDNdKVtDSDJdW0NIMl1bQ0BIXTVDKFtDSDNdKShbQ0gzXSlbQ0BIXShbT0hdKVtDSDJdW0NIMl00

>  <s_epik_cmdline>  (283) 
J2VwaWtfcHl0aG9uJywgJy1waHQnLCAnMi4wJywgJy1waCcsICc3LjAnLCAnLXRuJywgJzgnLCAnLW1hJywgJzIwMCcsICctaW1hZScsICc8aW5maWxlLm1hZT4nLCAnLW9tYWUnLCAnPG91dGZpbGUubWFlPic=

>  <r_lp_tautomer_probability>  (283) 
1

>  <r_epik_Ionization_Penalty>  (283) 
4.1037e-06

>  <r_epik_Ionization_Penalty_Charging>  (283) 
0

>  <r_epik_Ionization_Penalty_Neutral>  (283) 
4.1037e-06

>  <r_epik_State_Penalty>  (283) 
-0

>  <r_epik_Charging_Adjusted_Penalty>  (283) 
0

>  <i_epik_Tot_Q>  (283) 
0

>  <i_epik_Tot_abs_Q>  (283) 
0

>  <s_lp_Force_Field>  (283) 
OPLS3e

>  <r_lp_Energy>  (283) 
95.9845

>  <b_lp_Chiralities_Consistent>  (283) 
1

>  <s_lp_Variant>  (283) 
84:0-1

>  <s_i_glide_gridfile>  (283) 
pfpi4k_grid

>  <i_i_glide_lignum>  (283) 
34

>  <i_i_glide_rotatable_bonds>  (283) 
4

>  <r_i_docking_score>  (283) 
-2.64255

>  <r_i_glide_ligand_efficiency>  (283) 
-0.077722

>  <r_i_glide_ligand_efficiency_sa>  (283) 
-0.251789

>  <r_i_glide_ligand_efficiency_ln>  (283) 
-0.583813

>  <r_i_glide_gscore>  (283) 
-2.64255

>  <r_i_glide_lipo>  (283) 
-0.512216

>  <r_i_glide_hbond>  (283) 
-0.0661492

>  <r_i_glide_metal>  (283) 
-0

>  <r_i_glide_rewards>  (283) 
-0.186138

>  <r_i_glide_evdw>  (283) 
-30.9438

>  <r_i_glide_ecoul>  (283) 
-1.9218

>  <r_i_glide_erotb>  (283) 
0

>  <r_i_glide_esite>  (283) 
-0.0425813

>  <r_i_glide_emodel>  (283) 
-36.9149

>  <r_i_glide_energy>  (283) 
-32.8656

>  <r_i_glide_einternal>  (283) 
1.61256

>  <r_i_glide_intrahb_reward>  (283) 
-0

>  <i_i_glide_confnum>  (283) 
1

>  <i_i_glide_posenum>  (283) 
7

>  <r_i_glide_eff_state_penalty>  (283) 
0

>  <ligand_id>  (283) 
84

>  <original_smiles>  (283) 
CC(=O)C1(O)C=C2C3C(O)CC4C5(C)CCC(O)C(C)(C)C5CCC4(C)C3(C)CCC2(C)C1C

>  <smiles>  (283) 
[H]OC1(C(=O)C([H])([H])[H])C([H])=C2C3([H])C([H])(O[H])C([H])([H])C4([H])C5(C([H])([H])[H])C([H])([H])C([H])([H])C([H])(O[H])C(C([H])([H])[H])(C([H])([H])[H])C5([H])C([H])([H])C([H])([H])C4(C([H])([H])[H])C3(C([H])([H])[H])C([H])([H])C([H])([H])C2(C([H])([H])[H])C1([H])C([H])([H])[H]

$$$$
85:0:0
     RDKit          3D

 40 42  0  0  1  0  0  0  0  0999 V2000
    2.5916   -3.3140    1.3204 C   0  0  0  0  0  0  0  0  0  0  0  0
    3.2108   -4.0697    0.1163 C   0  0  0  0  0  0  0  0  0  0  0  0
    4.2841   -5.1284    0.4618 C   0  0  0  0  0  0  0  0  0  0  0  0
    3.7339   -6.4573    0.9907 C   0  0  0  0  0  0  0  0  0  0  0  0
    4.2226   -7.5257    0.6449 O   0  0  0  0  0  0  0  0  0  0  0  0
    2.7014   -6.2462    1.8650 O   0  0  0  0  0  0  0  0  0  0  0  0
    2.0084   -7.2835    2.5199 C   0  0  1  0  0  0  0  0  0  0  0  0
    2.7206   -8.5272    2.5683 O   0  0  0  0  0  0  0  0  0  0  0  0
    2.7184   -9.1582    3.8760 C   0  0  2  0  0  0  0  0  0  0  0  0
    3.3953   -8.8580    5.2154 C   0  0  0  0  0  0  0  0  0  0  0  0
    3.1289   -7.7122    4.3811 C   0  0  2  0  0  0  0  0  0  0  0  0
    1.9286   -6.9075    4.0379 C   0  0  1  0  0  0  0  0  0  0  0  0
    2.0538   -5.4078    4.3794 C   0  0  0  0  0  0  0  0  0  0  0  0
    1.1252   -9.9413    4.3381 S   0  0  0  0  0  0  0  0  0  0  0  0
    1.5772  -11.6790    4.6613 C   0  0  0  0  0  0  0  0  0  0  0  0
    0.3040   -9.9336    2.7160 C   0  0  0  0  0  0  0  0  0  0  0  0
   -0.2768   -8.5417    2.5022 C   0  0  0  0  0  0  0  0  0  0  0  0
   -1.4333   -8.3282    2.8635 O   0  0  0  0  0  0  0  0  0  0  0  0
    0.6066   -7.4513    1.8158 C   0  0  1  0  0  0  0  0  0  0  0  0
   -0.0407   -6.2958    1.8339 O   0  0  0  0  0  0  0  0  0  0  0  0
    1.9082   -2.5301    0.9775 H   0  0  0  0  0  0  0  0  0  0  0  0
    3.3727   -2.8212    1.9038 H   0  0  0  0  0  0  0  0  0  0  0  0
    2.0274   -3.9583    1.9879 H   0  0  0  0  0  0  0  0  0  0  0  0
    2.4255   -4.5298   -0.4886 H   0  0  0  0  0  0  0  0  0  0  0  0
    3.6777   -3.3405   -0.5396 H   0  0  0  0  0  0  0  0  0  0  0  0
    4.8613   -5.3681   -0.4373 H   0  0  0  0  0  0  0  0  0  0  0  0
    4.9925   -4.7251    1.1864 H   0  0  0  0  0  0  0  0  0  0  0  0
    2.8302   -8.9015    6.1313 H   0  0  0  0  0  0  0  0  0  0  0  0
    4.4478   -9.0773    5.3290 H   0  0  0  0  0  0  0  0  0  0  0  0
    4.0529   -7.2690    4.0115 H   0  0  0  0  0  0  0  0  0  0  0  0
    1.0374   -7.2836    4.5382 H   0  0  0  0  0  0  0  0  0  0  0  0
    2.9554   -4.9300    4.0109 H   0  0  0  0  0  0  0  0  0  0  0  0
    2.0472   -5.2822    5.4627 H   0  0  0  0  0  0  0  0  0  0  0  0
    1.1912   -4.8552    4.0052 H   0  0  0  0  0  0  0  0  0  0  0  0
    0.6476  -12.2254    4.8179 H   0  0  0  0  0  0  0  0  0  0  0  0
    2.1716  -11.7174    5.5782 H   0  0  0  0  0  0  0  0  0  0  0  0
    2.1458  -12.1153    3.8345 H   0  0  0  0  0  0  0  0  0  0  0  0
    1.0052  -10.2188    1.9300 H   0  0  0  0  0  0  0  0  0  0  0  0
   -0.4913  -10.6586    2.7238 H   0  0  0  0  0  0  0  0  0  0  0  0
    0.8636   -7.9254    0.8719 H   0  0  0  0  0  0  0  0  0  0  0  0
  1  2  1  0
  1 21  1  0
  1 22  1  0
  1 23  1  0
  2  3  1  0
  2 24  1  0
  2 25  1  0
  3  4  1  0
  3 26  1  0
  3 27  1  0
  4  5  2  0
  4  6  1  0
  7  6  1  6
  7 12  1  0
  7 19  1  0
  7  8  1  0
  8  9  1  0
  9 11  1  0
  9 10  1  6
  9 14  1  0
 10 11  1  0
 10 28  1  0
 10 29  1  0
 11 12  1  0
 11 30  1  6
 12 13  1  0
 12 31  1  1
 13 32  1  0
 13 33  1  0
 13 34  1  0
 14 15  1  6
 14 16  1  0
 15 35  1  0
 15 36  1  0
 15 37  1  0
 16 17  1  0
 16 38  1  0
 16 39  1  0
 17 18  2  0
 17 19  1  0
 19 20  1  0
 19 40  1  6
M  CHG  2  14   1  20  -1
M  END
>  <i_m_ct_stereo_status>  (284) 
1

>  <s_m_source_file>  (284) 
/var/tmp/pbs.5076255.sched01/tmp0eyfkrct/966b1hsbd3.sdf

>  <i_m_source_file_index>  (284) 
35

>  <i_lp_mmshare_version>  (284) 
48012

>  <i_f3d_flags>  (284) 
0

>  <s_epik_input>  (284) 
W0NIM11bQ0gyXVtDSDJdQyg9TylPW0NAQF0oTzEpKFtDQEhdKFtDSDNdKVtDQEhdKFtDQEBdMTIzKVtDSDJdMilbQ0BIXShbT0hdKUMoPU8pW0NIMl1bUytdM1tDSDNd

>  <s_epik_cmdline>  (284) 
J2VwaWtfcHl0aG9uJywgJy1waHQnLCAnMi4wJywgJy1waCcsICc3LjAnLCAnLXRuJywgJzgnLCAnLW1hJywgJzIwMCcsICctaW1hZScsICc8aW5maWxlLm1hZT4nLCAnLW9tYWUnLCAnPG91dGZpbGUubWFlPic=

>  <r_epik_Ionization_Penalty>  (284) 
0.110822

>  <r_epik_Ionization_Penalty_Charging>  (284) 
0.110822

>  <r_epik_Ionization_Penalty_Neutral>  (284) 
7.10765e-10

>  <r_epik_State_Penalty>  (284) 
0.10056

>  <r_epik_Charging_Adjusted_Penalty>  (284) 
0.211382

>  <i_epik_Tot_Q>  (284) 
0

>  <i_epik_Tot_abs_Q>  (284) 
2

>  <s_epik_Chemistry_Notes>  (284) 
This compound has an ester and may undergo hydrolysis at high or low pH.

>  <s_lp_Force_Field>  (284) 
OPLS3e

>  <r_lp_Energy>  (284) 
72.6379

>  <b_lp_Chiralities_Consistent>  (284) 
1

>  <s_lp_Variant>  (284) 
85:0-1

>  <s_i_glide_gridfile>  (284) 
pfpi4k_grid

>  <i_i_glide_lignum>  (284) 
35

>  <i_i_glide_rotatable_bonds>  (284) 
4

>  <r_i_docking_score>  (284) 
-3.95972

>  <r_i_glide_ligand_efficiency>  (284) 
-0.197986

>  <r_i_glide_ligand_efficiency_sa>  (284) 
-0.537417

>  <r_i_glide_ligand_efficiency_ln>  (284) 
-0.990988

>  <r_i_glide_gscore>  (284) 
-3.95972

>  <r_i_glide_lipo>  (284) 
-0.0952613

>  <r_i_glide_hbond>  (284) 
-0.358779

>  <r_i_glide_metal>  (284) 
-0

>  <r_i_glide_rewards>  (284) 
-1.75407

>  <r_i_glide_evdw>  (284) 
-20.0043

>  <r_i_glide_ecoul>  (284) 
-8.58358

>  <r_i_glide_erotb>  (284) 
0.611174

>  <r_i_glide_esite>  (284) 
-0.0750403

>  <r_i_glide_emodel>  (284) 
-40.8873

>  <r_i_glide_energy>  (284) 
-28.5878

>  <r_i_glide_einternal>  (284) 
0.983321

>  <r_i_glide_intrahb_reward>  (284) 
-0

>  <i_i_glide_confnum>  (284) 
6

>  <i_i_glide_posenum>  (284) 
15

>  <r_i_glide_eff_state_penalty>  (284) 
0

>  <ligand_id>  (284) 
85

>  <original_smiles>  (284) 
CCCC(=O)OC12OC3(CC3C1C)[S+](C)CC(=O)C2O

>  <smiles>  (284) 
[H]C([H])([H])[S+]1C([H])([H])C(=O)C([H])([O-])C2(OC(=O)C([H])([H])C([H])([H])C([H])([H])[H])OC13C([H])([H])C3([H])C2([H])C([H])([H])[H]

$$$$
85:0:1
     RDKit          3D

 40 42  0  0  1  0  0  0  0  0999 V2000
    3.4736   -3.1180   -1.0571 C   0  0  0  0  0  0  0  0  0  0  0  0
    3.0043   -4.2620   -0.1575 C   0  0  0  0  0  0  0  0  0  0  0  0
    4.1609   -5.1412    0.3374 C   0  0  0  0  0  0  0  0  0  0  0  0
    3.6870   -6.4456    0.9905 C   0  0  0  0  0  0  0  0  0  0  0  0
    4.2072   -7.4993    0.6965 O   0  0  0  0  0  0  0  0  0  0  0  0
    2.6706   -6.2132    1.8967 O   0  0  0  0  0  0  0  0  0  0  0  0
    1.9870   -7.2723    2.5513 C   0  0  1  0  0  0  0  0  0  0  0  0
    2.6994   -8.5201    2.5832 O   0  0  0  0  0  0  0  0  0  0  0  0
    2.6918   -9.1737    3.8761 C   0  0  2  0  0  0  0  0  0  0  0  0
    3.3654   -8.9134    5.2241 C   0  0  0  0  0  0  0  0  0  0  0  0
    3.0992   -7.7514    4.4156 C   0  0  2  0  0  0  0  0  0  0  0  0
    1.9242   -6.9209    4.0659 C   0  0  1  0  0  0  0  0  0  0  0  0
    2.0578   -5.4267    4.4260 C   0  0  0  0  0  0  0  0  0  0  0  0
    1.0868   -9.9440    4.3316 S   0  0  0  0  0  0  0  0  0  0  0  0
    1.5290  -11.6831    4.6369 C   0  0  0  0  0  0  0  0  0  0  0  0
    0.2891   -9.9349    2.7088 C   0  0  0  0  0  0  0  0  0  0  0  0
   -0.2952   -8.5373    2.4950 C   0  0  0  0  0  0  0  0  0  0  0  0
   -1.4450   -8.3275    2.8554 O   0  0  0  0  0  0  0  0  0  0  0  0
    0.6006   -7.4512    1.8356 C   0  0  1  0  0  0  0  0  0  0  0  0
   -0.0475   -6.2992    1.8692 O   0  0  0  0  0  0  0  0  0  0  0  0
    2.6250   -2.5123   -1.3779 H   0  0  0  0  0  0  0  0  0  0  0  0
    3.9670   -3.5027   -1.9511 H   0  0  0  0  0  0  0  0  0  0  0  0
    4.1728   -2.4645   -0.5332 H   0  0  0  0  0  0  0  0  0  0  0  0
    2.4737   -3.8444    0.7008 H   0  0  0  0  0  0  0  0  0  0  0  0
    2.2786   -4.8677   -0.7066 H   0  0  0  0  0  0  0  0  0  0  0  0
    4.7887   -5.4362   -0.5086 H   0  0  0  0  0  0  0  0  0  0  0  0
    4.7956   -4.5959    1.0360 H   0  0  0  0  0  0  0  0  0  0  0  0
    2.7865   -8.9655    6.1388 H   0  0  0  0  0  0  0  0  0  0  0  0
    4.4159   -9.1406    5.3435 H   0  0  0  0  0  0  0  0  0  0  0  0
    4.0354   -7.3146    4.0520 H   0  0  0  0  0  0  0  0  0  0  0  0
    1.0224   -7.2938    4.5546 H   0  0  0  0  0  0  0  0  0  0  0  0
    2.9706   -4.9571    4.0614 H   0  0  0  0  0  0  0  0  0  0  0  0
    2.0479   -5.3167    5.5117 H   0  0  0  0  0  0  0  0  0  0  0  0
    1.2059   -4.8646    4.0428 H   0  0  0  0  0  0  0  0  0  0  0  0
    0.6059  -12.2384    4.7987 H   0  0  0  0  0  0  0  0  0  0  0  0
    2.1174  -11.7577    5.5523 H   0  0  0  0  0  0  0  0  0  0  0  0
    2.0974  -12.1281    3.8192 H   0  0  0  0  0  0  0  0  0  0  0  0
    0.9868  -10.2250    1.9255 H   0  0  0  0  0  0  0  0  0  0  0  0
   -0.5261  -10.6433    2.7093 H   0  0  0  0  0  0  0  0  0  0  0  0
    0.8795   -7.9302    0.8913 H   0  0  0  0  0  0  0  0  0  0  0  0
  1  2  1  0
  1 21  1  0
  1 22  1  0
  1 23  1  0
  2  3  1  0
  2 24  1  0
  2 25  1  0
  3  4  1  0
  3 26  1  0
  3 27  1  0
  4  5  2  0
  4  6  1  0
  7  6  1  6
  7 12  1  0
  7 19  1  0
  7  8  1  0
  8  9  1  0
  9 11  1  0
  9 10  1  6
  9 14  1  0
 10 11  1  0
 10 28  1  0
 10 29  1  0
 11 12  1  0
 11 30  1  6
 12 13  1  0
 12 31  1  1
 13 32  1  0
 13 33  1  0
 13 34  1  0
 14 15  1  6
 14 16  1  0
 15 35  1  0
 15 36  1  0
 15 37  1  0
 16 17  1  0
 16 38  1  0
 16 39  1  0
 17 18  2  0
 17 19  1  0
 19 20  1  0
 19 40  1  6
M  CHG  2  14   1  20  -1
M  END
>  <i_m_ct_stereo_status>  (285) 
1

>  <s_m_source_file>  (285) 
/var/tmp/pbs.5076255.sched01/tmp0eyfkrct/966b1hsbd3.sdf

>  <i_m_source_file_index>  (285) 
35

>  <i_lp_mmshare_version>  (285) 
48012

>  <i_f3d_flags>  (285) 
0

>  <s_epik_input>  (285) 
W0NIM11bQ0gyXVtDSDJdQyg9TylPW0NAQF0oTzEpKFtDQEhdKFtDSDNdKVtDQEhdKFtDQEBdMTIzKVtDSDJdMilbQ0BIXShbT0hdKUMoPU8pW0NIMl1bUytdM1tDSDNd

>  <s_epik_cmdline>  (285) 
J2VwaWtfcHl0aG9uJywgJy1waHQnLCAnMi4wJywgJy1waCcsICc3LjAnLCAnLXRuJywgJzgnLCAnLW1hJywgJzIwMCcsICctaW1hZScsICc8aW5maWxlLm1hZT4nLCAnLW9tYWUnLCAnPG91dGZpbGUubWFlPic=

>  <r_epik_Ionization_Penalty>  (285) 
0.110822

>  <r_epik_Ionization_Penalty_Charging>  (285) 
0.110822

>  <r_epik_Ionization_Penalty_Neutral>  (285) 
7.10765e-10

>  <r_epik_State_Penalty>  (285) 
0.10056

>  <r_epik_Charging_Adjusted_Penalty>  (285) 
0.211382

>  <i_epik_Tot_Q>  (285) 
0

>  <i_epik_Tot_abs_Q>  (285) 
2

>  <s_epik_Chemistry_Notes>  (285) 
This compound has an ester and may undergo hydrolysis at high or low pH.

>  <s_lp_Force_Field>  (285) 
OPLS3e

>  <r_lp_Energy>  (285) 
72.6379

>  <b_lp_Chiralities_Consistent>  (285) 
1

>  <s_lp_Variant>  (285) 
85:0-1

>  <s_i_glide_gridfile>  (285) 
pfpi4k_grid

>  <i_i_glide_lignum>  (285) 
35

>  <i_i_glide_rotatable_bonds>  (285) 
4

>  <r_i_docking_score>  (285) 
-3.94757

>  <r_i_glide_ligand_efficiency>  (285) 
-0.197378

>  <r_i_glide_ligand_efficiency_sa>  (285) 
-0.535767

>  <r_i_glide_ligand_efficiency_ln>  (285) 
-0.987946

>  <r_i_glide_gscore>  (285) 
-3.94757

>  <r_i_glide_lipo>  (285) 
-0.087386

>  <r_i_glide_hbond>  (285) 
-0.35764

>  <r_i_glide_metal>  (285) 
-0

>  <r_i_glide_rewards>  (285) 
-1.74793

>  <r_i_glide_evdw>  (285) 
-20.5585

>  <r_i_glide_ecoul>  (285) 
-8.40843

>  <r_i_glide_erotb>  (285) 
0.611174

>  <r_i_glide_esite>  (285) 
-0.0765937

>  <r_i_glide_emodel>  (285) 
-40.8951

>  <r_i_glide_energy>  (285) 
-28.9669

>  <r_i_glide_einternal>  (285) 
2.04307

>  <r_i_glide_intrahb_reward>  (285) 
-0

>  <i_i_glide_confnum>  (285) 
2

>  <i_i_glide_posenum>  (285) 
6

>  <r_i_glide_eff_state_penalty>  (285) 
0

>  <ligand_id>  (285) 
85

>  <original_smiles>  (285) 
CCCC(=O)OC12OC3(CC3C1C)[S+](C)CC(=O)C2O

>  <smiles>  (285) 
[H]C([H])([H])[S+]1C([H])([H])C(=O)C([H])([O-])C2(OC(=O)C([H])([H])C([H])([H])C([H])([H])[H])OC13C([H])([H])C3([H])C2([H])C([H])([H])[H]

$$$$
85:0:2
     RDKit          3D

 40 42  0  0  1  0  0  0  0  0999 V2000
   -1.3285   -9.8199    2.4686 C   0  0  0  0  0  0  0  0  0  0  0  0
   -0.8301   -8.4034    2.2349 C   0  0  0  0  0  0  0  0  0  0  0  0
    0.7062   -8.3137    2.2393 C   0  0  0  0  0  0  0  0  0  0  0  0
    1.2279   -7.0100    1.6092 C   0  0  0  0  0  0  0  0  0  0  0  0
    0.4869   -6.3261    0.9349 O   0  0  0  0  0  0  0  0  0  0  0  0
    2.5559   -6.7926    1.9062 O   0  0  0  0  0  0  0  0  0  0  0  0
    3.2388   -5.6028    1.4819 C   0  0  1  0  0  0  0  0  0  0  0  0
    2.4578   -4.7091    0.6605 O   0  0  0  0  0  0  0  0  0  0  0  0
    2.6198   -3.3072    1.0103 C   0  0  2  0  0  0  0  0  0  0  0  0
    2.1760   -2.4113    2.1636 C   0  0  0  0  0  0  0  0  0  0  0  0
    2.3913   -3.7923    2.4906 C   0  0  2  0  0  0  0  0  0  0  0  0
    3.5323   -4.7120    2.7176 C   0  0  1  0  0  0  0  0  0  0  0  0
    3.5509   -5.3937    4.1019 C   0  0  0  0  0  0  0  0  0  0  0  0
    4.2306   -2.5746    0.4934 S   0  0  0  0  0  0  0  0  0  0  0  0
    3.7289   -1.1663   -0.5492 C   0  0  0  0  0  0  0  0  0  0  0  0
    4.7680   -3.8404   -0.6707 C   0  0  0  0  0  0  0  0  0  0  0  0
    5.3893   -4.9429    0.1733 C   0  0  0  0  0  0  0  0  0  0  0  0
    6.5869   -4.8529    0.4422 O   0  0  0  0  0  0  0  0  0  0  0  0
    4.4861   -6.0878    0.6684 C   0  0  1  0  0  0  0  0  0  0  0  0
    5.2065   -6.8094    1.5045 O   0  0  0  0  0  0  0  0  0  0  0  0
   -2.4169   -9.8494    2.4776 H   0  0  0  0  0  0  0  0  0  0  0  0
   -0.9590  -10.1998    3.4160 H   0  0  0  0  0  0  0  0  0  0  0  0
   -0.9851  -10.4916    1.6816 H   0  0  0  0  0  0  0  0  0  0  0  0
   -1.2536   -8.0824    1.2775 H   0  0  0  0  0  0  0  0  0  0  0  0
   -1.2384   -7.7326    2.9924 H   0  0  0  0  0  0  0  0  0  0  0  0
    1.1081   -8.4231    3.2642 H   0  0  0  0  0  0  0  0  0  0  0  0
    1.1325   -9.1160    1.6305 H   0  0  0  0  0  0  0  0  0  0  0  0
    2.8744   -1.7360    2.6456 H   0  0  0  0  0  0  0  0  0  0  0  0
    1.1396   -2.0985    2.2221 H   0  0  0  0  0  0  0  0  0  0  0  0
    1.4391   -4.2747    2.7329 H   0  0  0  0  0  0  0  0  0  0  0  0
    4.4736   -4.1508    2.6374 H   0  0  0  0  0  0  0  0  0  0  0  0
    2.6289   -5.9153    4.3520 H   0  0  0  0  0  0  0  0  0  0  0  0
    3.7281   -4.6479    4.8809 H   0  0  0  0  0  0  0  0  0  0  0  0
    4.3756   -6.0999    4.1596 H   0  0  0  0  0  0  0  0  0  0  0  0
    4.6271   -0.7543   -0.9903 H   0  0  0  0  0  0  0  0  0  0  0  0
    3.3019   -0.3944    0.0851 H   0  0  0  0  0  0  0  0  0  0  0  0
    3.0210   -1.4071   -1.3505 H   0  0  0  0  0  0  0  0  0  0  0  0
    3.9531   -4.2120   -1.2905 H   0  0  0  0  0  0  0  0  0  0  0  0
    5.5273   -3.4289   -1.3244 H   0  0  0  0  0  0  0  0  0  0  0  0
    4.0485   -6.4945   -0.2450 H   0  0  0  0  0  0  0  0  0  0  0  0
  1  2  1  0
  1 21  1  0
  1 22  1  0
  1 23  1  0
  2  3  1  0
  2 24  1  0
  2 25  1  0
  3  4  1  0
  3 26  1  0
  3 27  1  0
  4  5  2  0
  4  6  1  0
  7  6  1  1
  7 12  1  0
  7 19  1  0
  7  8  1  0
  8  9  1  0
  9 11  1  0
  9 10  1  6
  9 14  1  0
 10 11  1  0
 10 28  1  0
 10 29  1  0
 11 12  1  0
 11 30  1  6
 12 13  1  0
 12 31  1  6
 13 32  1  0
 13 33  1  0
 13 34  1  0
 14 15  1  6
 14 16  1  0
 15 35  1  0
 15 36  1  0
 15 37  1  0
 16 17  1  0
 16 38  1  0
 16 39  1  0
 17 18  2  0
 17 19  1  0
 19 20  1  0
 19 40  1  6
M  CHG  2  14   1  20  -1
M  END
>  <i_m_ct_stereo_status>  (286) 
1

>  <s_m_source_file>  (286) 
/var/tmp/pbs.5076255.sched01/tmp0eyfkrct/966b1hsbd3.sdf

>  <i_m_source_file_index>  (286) 
35

>  <i_lp_mmshare_version>  (286) 
48012

>  <i_f3d_flags>  (286) 
0

>  <s_epik_input>  (286) 
W0NIM11bQ0gyXVtDSDJdQyg9TylPW0NAQF0oTzEpKFtDQEhdKFtDSDNdKVtDQEhdKFtDQEBdMTIzKVtDSDJdMilbQ0BIXShbT0hdKUMoPU8pW0NIMl1bUytdM1tDSDNd

>  <s_epik_cmdline>  (286) 
J2VwaWtfcHl0aG9uJywgJy1waHQnLCAnMi4wJywgJy1waCcsICc3LjAnLCAnLXRuJywgJzgnLCAnLW1hJywgJzIwMCcsICctaW1hZScsICc8aW5maWxlLm1hZT4nLCAnLW9tYWUnLCAnPG91dGZpbGUubWFlPic=

>  <r_epik_Ionization_Penalty>  (286) 
0.110822

>  <r_epik_Ionization_Penalty_Charging>  (286) 
0.110822

>  <r_epik_Ionization_Penalty_Neutral>  (286) 
7.10765e-10

>  <r_epik_State_Penalty>  (286) 
0.10056

>  <r_epik_Charging_Adjusted_Penalty>  (286) 
0.211382

>  <i_epik_Tot_Q>  (286) 
0

>  <i_epik_Tot_abs_Q>  (286) 
2

>  <s_epik_Chemistry_Notes>  (286) 
This compound has an ester and may undergo hydrolysis at high or low pH.

>  <s_lp_Force_Field>  (286) 
OPLS3e

>  <r_lp_Energy>  (286) 
72.6379

>  <b_lp_Chiralities_Consistent>  (286) 
1

>  <s_lp_Variant>  (286) 
85:0-1

>  <s_i_glide_gridfile>  (286) 
pfpi4k_grid

>  <i_i_glide_lignum>  (286) 
35

>  <i_i_glide_rotatable_bonds>  (286) 
4

>  <r_i_docking_score>  (286) 
-3.5269

>  <r_i_glide_ligand_efficiency>  (286) 
-0.176345

>  <r_i_glide_ligand_efficiency_sa>  (286) 
-0.478673

>  <r_i_glide_ligand_efficiency_ln>  (286) 
-0.882666

>  <r_i_glide_gscore>  (286) 
-3.5269

>  <r_i_glide_lipo>  (286) 
-0.26282

>  <r_i_glide_hbond>  (286) 
-0.16

>  <r_i_glide_metal>  (286) 
-0

>  <r_i_glide_rewards>  (286) 
-1.47678

>  <r_i_glide_evdw>  (286) 
-21.0332

>  <r_i_glide_ecoul>  (286) 
-7.54108

>  <r_i_glide_erotb>  (286) 
0.611174

>  <r_i_glide_esite>  (286) 
-0.0556486

>  <r_i_glide_emodel>  (286) 
-38.7333

>  <r_i_glide_energy>  (286) 
-28.5743

>  <r_i_glide_einternal>  (286) 
2.3811

>  <r_i_glide_intrahb_reward>  (286) 
-0

>  <i_i_glide_confnum>  (286) 
2

>  <i_i_glide_posenum>  (286) 
31

>  <r_i_glide_eff_state_penalty>  (286) 
0

>  <ligand_id>  (286) 
85

>  <original_smiles>  (286) 
CCCC(=O)OC12OC3(CC3C1C)[S+](C)CC(=O)C2O

>  <smiles>  (286) 
[H]C([H])([H])[S+]1C([H])([H])C(=O)C([H])([O-])C2(OC(=O)C([H])([H])C([H])([H])C([H])([H])[H])OC13C([H])([H])C3([H])C2([H])C([H])([H])[H]

$$$$
85:1:0
     RDKit          3D

 41 43  0  0  1  0  0  0  0  0999 V2000
    0.0289   -9.9862    2.9008 C   0  0  0  0  0  0  0  0  0  0  0  0
    0.1912   -8.5323    2.4437 C   0  0  0  0  0  0  0  0  0  0  0  0
    1.5962   -8.2387    1.8923 C   0  0  0  0  0  0  0  0  0  0  0  0
    1.7553   -6.7819    1.4295 C   0  0  0  0  0  0  0  0  0  0  0  0
    0.9264   -6.2529    0.7013 O   0  0  0  0  0  0  0  0  0  0  0  0
    2.8882   -6.2241    1.9351 O   0  0  0  0  0  0  0  0  0  0  0  0
    3.2561   -4.9048    1.5549 C   0  0  1  0  0  0  0  0  0  0  0  0
    2.2068   -3.9925    1.8869 O   0  0  0  0  0  0  0  0  0  0  0  0
    2.6744   -2.7766    2.5397 C   0  0  2  0  0  0  0  0  0  0  0  0
    3.2165   -2.4234    3.9157 C   0  0  0  0  0  0  0  0  0  0  0  0
    3.4894   -3.7562    3.4582 C   0  0  2  0  0  0  0  0  0  0  0  0
    4.3916   -4.4478    2.4901 C   0  0  1  0  0  0  0  0  0  0  0  0
    5.2774   -5.5603    3.0818 C   0  0  0  0  0  0  0  0  0  0  0  0
    3.5723   -1.6266    1.4190 S   0  0  0  0  0  0  0  0  0  0  0  0
    2.6075   -0.0944    1.5912 C   0  0  0  0  0  0  0  0  0  0  0  0
    3.0378   -2.2631   -0.1772 C   0  0  0  0  0  0  0  0  0  0  0  0
    3.9503   -3.4245   -0.4927 C   0  0  0  0  0  0  0  0  0  0  0  0
    4.9830   -3.2226   -1.1371 O   0  0  0  0  0  0  0  0  0  0  0  0
    3.5620   -4.8257    0.0247 C   0  0  1  0  0  0  0  0  0  0  0  0
    4.5967   -5.7275   -0.3226 O   0  0  0  0  0  0  0  0  0  0  0  0
   -0.9830  -10.1556    3.2784 H   0  0  0  0  0  0  0  0  0  0  0  0
    0.7268  -10.2355    3.6996 H   0  0  0  0  0  0  0  0  0  0  0  0
    0.1964  -10.6842    2.0806 H   0  0  0  0  0  0  0  0  0  0  0  0
   -0.5597   -8.3260    1.6797 H   0  0  0  0  0  0  0  0  0  0  0  0
   -0.0143   -7.8609    3.2810 H   0  0  0  0  0  0  0  0  0  0  0  0
    2.3364   -8.4704    2.6568 H   0  0  0  0  0  0  0  0  0  0  0  0
    1.8180   -8.8867    1.0428 H   0  0  0  0  0  0  0  0  0  0  0  0
    4.1107   -1.8060    4.0083 H   0  0  0  0  0  0  0  0  0  0  0  0
    2.5389   -2.3880    4.7649 H   0  0  0  0  0  0  0  0  0  0  0  0
    2.9358   -4.4756    4.0397 H   0  0  0  0  0  0  0  0  0  0  0  0
    5.0460   -3.7288    2.0107 H   0  0  0  0  0  0  0  0  0  0  0  0
    4.7290   -6.3123    3.6490 H   0  0  0  0  0  0  0  0  0  0  0  0
    6.0186   -5.1193    3.7485 H   0  0  0  0  0  0  0  0  0  0  0  0
    5.8235   -6.0646    2.2896 H   0  0  0  0  0  0  0  0  0  0  0  0
    2.9899    0.6239    0.8716 H   0  0  0  0  0  0  0  0  0  0  0  0
    2.7797    0.3586    2.5696 H   0  0  0  0  0  0  0  0  0  0  0  0
    1.5201   -0.1773    1.4323 H   0  0  0  0  0  0  0  0  0  0  0  0
    2.0196   -2.6538   -0.1579 H   0  0  0  0  0  0  0  0  0  0  0  0
    3.1212   -1.4820   -0.9400 H   0  0  0  0  0  0  0  0  0  0  0  0
    2.6778   -5.1283   -0.5341 H   0  0  0  0  0  0  0  0  0  0  0  0
    4.5258   -5.8811   -1.2444 H   0  0  0  0  0  0  0  0  0  0  0  0
  1  2  1  0
  1 21  1  0
  1 22  1  0
  1 23  1  0
  2  3  1  0
  2 24  1  0
  2 25  1  0
  3  4  1  0
  3 26  1  0
  3 27  1  0
  4  5  2  0
  4  6  1  0
  7  6  1  1
  7 12  1  0
  7 19  1  0
  7  8  1  0
  8  9  1  0
  9 11  1  0
  9 10  1  1
  9 14  1  0
 10 11  1  0
 10 28  1  0
 10 29  1  0
 11 12  1  0
 11 30  1  1
 12 13  1  0
 12 31  1  6
 13 32  1  0
 13 33  1  0
 13 34  1  0
 14 15  1  1
 14 16  1  0
 15 35  1  0
 15 36  1  0
 15 37  1  0
 16 17  1  0
 16 38  1  0
 16 39  1  0
 17 18  2  0
 17 19  1  0
 19 20  1  0
 19 40  1  6
 20 41  1  0
M  CHG  1  14   1
M  END
>  <i_m_ct_stereo_status>  (287) 
1

>  <s_m_source_file>  (287) 
/var/tmp/pbs.5076255.sched01/tmp0eyfkrct/966b1hsbd3.sdf

>  <i_m_source_file_index>  (287) 
36

>  <i_lp_mmshare_version>  (287) 
48012

>  <i_f3d_flags>  (287) 
0

>  <s_epik_input>  (287) 
W0NIM11bQ0gyXVtDSDJdQyg9TylPW0NAQF0oTzEpKFtDQEhdKFtDSDNdKVtDQEhdKFtDQEBdMTIzKVtDSDJdMilbQ0BIXShbT0hdKUMoPU8pW0NIMl1bUytdM1tDSDNd

>  <s_epik_cmdline>  (287) 
J2VwaWtfcHl0aG9uJywgJy1waHQnLCAnMi4wJywgJy1waCcsICc3LjAnLCAnLXRuJywgJzgnLCAnLW1hJywgJzIwMCcsICctaW1hZScsICc8aW5maWxlLm1hZT4nLCAnLW9tYWUnLCAnPG91dGZpbGUubWFlPic=

>  <r_epik_Ionization_Penalty>  (287) 
1.04779

>  <r_epik_Ionization_Penalty_Charging>  (287) 
0

>  <r_epik_Ionization_Penalty_Neutral>  (287) 
1.04779

>  <r_epik_State_Penalty>  (287) 
1.10038

>  <r_epik_Charging_Adjusted_Penalty>  (287) 
1.10038

>  <i_epik_Tot_Q>  (287) 
1

>  <i_epik_Tot_abs_Q>  (287) 
1

>  <s_epik_Chemistry_Notes>  (287) 
This compound has an ester and may undergo hydrolysis at high or low pH.

>  <s_lp_Force_Field>  (287) 
OPLS3e

>  <r_lp_Energy>  (287) 
62.0096

>  <b_lp_Chiralities_Consistent>  (287) 
1

>  <s_lp_Variant>  (287) 
85:0-2

>  <s_i_glide_gridfile>  (287) 
pfpi4k_grid

>  <i_i_glide_lignum>  (287) 
36

>  <i_i_glide_rotatable_bonds>  (287) 
5

>  <r_i_docking_score>  (287) 
-3.46278

>  <r_i_glide_ligand_efficiency>  (287) 
-0.173139

>  <r_i_glide_ligand_efficiency_sa>  (287) 
-0.469972

>  <r_i_glide_ligand_efficiency_ln>  (287) 
-0.866621

>  <r_i_glide_gscore>  (287) 
-3.46278

>  <r_i_glide_lipo>  (287) 
-0.00864423

>  <r_i_glide_hbond>  (287) 
-0.16

>  <r_i_glide_metal>  (287) 
-0

>  <r_i_glide_rewards>  (287) 
-1.41364

>  <r_i_glide_evdw>  (287) 
-18.1719

>  <r_i_glide_ecoul>  (287) 
-10.1568

>  <r_i_glide_erotb>  (287) 
0.607601

>  <r_i_glide_esite>  (287) 
-0.0559864

>  <r_i_glide_emodel>  (287) 
-33.3252

>  <r_i_glide_energy>  (287) 
-28.3287

>  <r_i_glide_einternal>  (287) 
3.64172

>  <r_i_glide_intrahb_reward>  (287) 
-0

>  <i_i_glide_confnum>  (287) 
5

>  <i_i_glide_posenum>  (287) 
17

>  <r_i_glide_eff_state_penalty>  (287) 
0

>  <ligand_id>  (287) 
85

>  <original_smiles>  (287) 
CCCC(=O)OC12OC3(CC3C1C)[S+](C)CC(=O)C2O

>  <smiles>  (287) 
[H]OC1([H])C(=O)C([H])([H])[S+](C([H])([H])[H])C23OC1(OC(=O)C([H])([H])C([H])([H])C([H])([H])[H])C([H])(C([H])([H])[H])C2([H])C3([H])[H]

$$$$
85:1:1
     RDKit          3D

 41 43  0  0  1  0  0  0  0  0999 V2000
   -1.0842   -7.7327    3.3502 C   0  0  0  0  0  0  0  0  0  0  0  0
   -0.3260   -8.4948    2.2552 C   0  0  0  0  0  0  0  0  0  0  0  0
    1.1844   -8.1848    2.2322 C   0  0  0  0  0  0  0  0  0  0  0  0
    1.5294   -6.8042    1.6715 C   0  0  0  0  0  0  0  0  0  0  0  0
    0.8090   -6.2593    0.8255 O   0  0  0  0  0  0  0  0  0  0  0  0
    2.6679   -6.3013    2.2046 O   0  0  0  0  0  0  0  0  0  0  0  0
    3.1758   -5.0593    1.7358 C   0  0  1  0  0  0  0  0  0  0  0  0
    2.2173   -4.0294    1.9181 O   0  0  0  0  0  0  0  0  0  0  0  0
    2.7664   -2.8028    2.4695 C   0  0  2  0  0  0  0  0  0  0  0  0
    3.2677   -2.3641    3.8365 C   0  0  0  0  0  0  0  0  0  0  0  0
    3.4193   -3.7593    3.5286 C   0  0  2  0  0  0  0  0  0  0  0  0
    4.3044   -4.6195    2.6912 C   0  0  1  0  0  0  0  0  0  0  0  0
    5.0334   -5.7447    3.4429 C   0  0  0  0  0  0  0  0  0  0  0  0
    3.8017   -1.8489    1.2950 S   0  0  0  0  0  0  0  0  0  0  0  0
    3.0232   -0.2141    1.2824 C   0  0  0  0  0  0  0  0  0  0  0  0
    3.2955   -2.5883   -0.2564 C   0  0  0  0  0  0  0  0  0  0  0  0
    4.1078   -3.8617   -0.4000 C   0  0  0  0  0  0  0  0  0  0  0  0
    5.1880   -3.8122   -0.9842 O   0  0  0  0  0  0  0  0  0  0  0  0
    3.5725   -5.1663    0.2289 C   0  0  1  0  0  0  0  0  0  0  0  0
    4.5496   -6.1782    0.0436 O   0  0  0  0  0  0  0  0  0  0  0  0
   -2.1476   -7.9767    3.3318 H   0  0  0  0  0  0  0  0  0  0  0  0
   -0.9842   -6.6552    3.2285 H   0  0  0  0  0  0  0  0  0  0  0  0
   -0.7019   -7.9876    4.3388 H   0  0  0  0  0  0  0  0  0  0  0  0
   -0.4527   -9.5666    2.4151 H   0  0  0  0  0  0  0  0  0  0  0  0
   -0.7762   -8.2858    1.2826 H   0  0  0  0  0  0  0  0  0  0  0  0
    1.5931   -8.2967    3.2362 H   0  0  0  0  0  0  0  0  0  0  0  0
    1.6992   -8.9174    1.6111 H   0  0  0  0  0  0  0  0  0  0  0  0
    4.2107   -1.8269    3.9277 H   0  0  0  0  0  0  0  0  0  0  0  0
    2.5568   -2.1662    4.6394 H   0  0  0  0  0  0  0  0  0  0  0  0
    2.7595   -4.3603    4.1522 H   0  0  0  0  0  0  0  0  0  0  0  0
    5.0539   -4.0183    2.1856 H   0  0  0  0  0  0  0  0  0  0  0  0
    4.3840   -6.3817    4.0445 H   0  0  0  0  0  0  0  0  0  0  0  0
    5.7832   -5.3171    4.1102 H   0  0  0  0  0  0  0  0  0  0  0  0
    5.5678   -6.3835    2.7389 H   0  0  0  0  0  0  0  0  0  0  0  0
    3.5378    0.3641    0.5284 H   0  0  0  0  0  0  0  0  0  0  0  0
    3.1965    0.3040    2.2226 H   0  0  0  0  0  0  0  0  0  0  0  0
    1.9541   -0.2088    1.0630 H   0  0  0  0  0  0  0  0  0  0  0  0
    2.2280   -2.7740   -0.2827 H   0  0  0  0  0  0  0  0  0  0  0  0
    3.5209   -1.9084   -1.0724 H   0  0  0  0  0  0  0  0  0  0  0  0
    2.6987   -5.4522   -0.3511 H   0  0  0  0  0  0  0  0  0  0  0  0
    4.6073   -6.3507   -0.8782 H   0  0  0  0  0  0  0  0  0  0  0  0
  1  2  1  0
  1 21  1  0
  1 22  1  0
  1 23  1  0
  2  3  1  0
  2 24  1  0
  2 25  1  0
  3  4  1  0
  3 26  1  0
  3 27  1  0
  4  5  2  0
  4  6  1  0
  7  6  1  1
  7 12  1  0
  7 19  1  0
  7  8  1  0
  8  9  1  0
  9 11  1  0
  9 10  1  1
  9 14  1  0
 10 11  1  0
 10 28  1  0
 10 29  1  0
 11 12  1  0
 11 30  1  1
 12 13  1  0
 12 31  1  6
 13 32  1  0
 13 33  1  0
 13 34  1  0
 14 15  1  6
 14 16  1  0
 15 35  1  0
 15 36  1  0
 15 37  1  0
 16 17  1  0
 16 38  1  0
 16 39  1  0
 17 18  2  0
 17 19  1  0
 19 20  1  0
 19 40  1  6
 20 41  1  0
M  CHG  1  14   1
M  END
>  <i_m_ct_stereo_status>  (288) 
1

>  <s_m_source_file>  (288) 
/var/tmp/pbs.5076255.sched01/tmp0eyfkrct/966b1hsbd3.sdf

>  <i_m_source_file_index>  (288) 
36

>  <i_lp_mmshare_version>  (288) 
48012

>  <i_f3d_flags>  (288) 
0

>  <s_epik_input>  (288) 
W0NIM11bQ0gyXVtDSDJdQyg9TylPW0NAQF0oTzEpKFtDQEhdKFtDSDNdKVtDQEhdKFtDQEBdMTIzKVtDSDJdMilbQ0BIXShbT0hdKUMoPU8pW0NIMl1bUytdM1tDSDNd

>  <s_epik_cmdline>  (288) 
J2VwaWtfcHl0aG9uJywgJy1waHQnLCAnMi4wJywgJy1waCcsICc3LjAnLCAnLXRuJywgJzgnLCAnLW1hJywgJzIwMCcsICctaW1hZScsICc8aW5maWxlLm1hZT4nLCAnLW9tYWUnLCAnPG91dGZpbGUubWFlPic=

>  <r_epik_Ionization_Penalty>  (288) 
1.04779

>  <r_epik_Ionization_Penalty_Charging>  (288) 
0

>  <r_epik_Ionization_Penalty_Neutral>  (288) 
1.04779

>  <r_epik_State_Penalty>  (288) 
1.10038

>  <r_epik_Charging_Adjusted_Penalty>  (288) 
1.10038

>  <i_epik_Tot_Q>  (288) 
1

>  <i_epik_Tot_abs_Q>  (288) 
1

>  <s_epik_Chemistry_Notes>  (288) 
This compound has an ester and may undergo hydrolysis at high or low pH.

>  <s_lp_Force_Field>  (288) 
OPLS3e

>  <r_lp_Energy>  (288) 
62.0096

>  <b_lp_Chiralities_Consistent>  (288) 
1

>  <s_lp_Variant>  (288) 
85:0-2

>  <s_i_glide_gridfile>  (288) 
pfpi4k_grid

>  <i_i_glide_lignum>  (288) 
36

>  <i_i_glide_rotatable_bonds>  (288) 
5

>  <r_i_docking_score>  (288) 
-3.22042

>  <r_i_glide_ligand_efficiency>  (288) 
-0.161021

>  <r_i_glide_ligand_efficiency_sa>  (288) 
-0.437079

>  <r_i_glide_ligand_efficiency_ln>  (288) 
-0.805966

>  <r_i_glide_gscore>  (288) 
-3.22042

>  <r_i_glide_lipo>  (288) 
-0.00317343

>  <r_i_glide_hbond>  (288) 
-0.16

>  <r_i_glide_metal>  (288) 
-0

>  <r_i_glide_rewards>  (288) 
-1.35728

>  <r_i_glide_evdw>  (288) 
-18.5292

>  <r_i_glide_ecoul>  (288) 
-8.80306

>  <r_i_glide_erotb>  (288) 
0.607601

>  <r_i_glide_esite>  (288) 
-0.0606541

>  <r_i_glide_emodel>  (288) 
-32.5542

>  <r_i_glide_energy>  (288) 
-27.3323

>  <r_i_glide_einternal>  (288) 
2.18616

>  <r_i_glide_intrahb_reward>  (288) 
-0

>  <i_i_glide_confnum>  (288) 
5

>  <i_i_glide_posenum>  (288) 
4

>  <r_i_glide_eff_state_penalty>  (288) 
0

>  <ligand_id>  (288) 
85

>  <original_smiles>  (288) 
CCCC(=O)OC12OC3(CC3C1C)[S+](C)CC(=O)C2O

>  <smiles>  (288) 
[H]OC1([H])C(=O)C([H])([H])[S+](C([H])([H])[H])C23OC1(OC(=O)C([H])([H])C([H])([H])C([H])([H])[H])C([H])(C([H])([H])[H])C2([H])C3([H])[H]

$$$$
85:1:2
     RDKit          3D

 41 43  0  0  1  0  0  0  0  0999 V2000
   -0.9712   -9.7565    2.6848 C   0  0  0  0  0  0  0  0  0  0  0  0
   -0.5633   -8.3712    2.1784 C   0  0  0  0  0  0  0  0  0  0  0  0
    0.9637   -8.1934    2.1354 C   0  0  0  0  0  0  0  0  0  0  0  0
    1.3987   -6.8209    1.5978 C   0  0  0  0  0  0  0  0  0  0  0  0
    0.7699   -6.2557    0.7175 O   0  0  0  0  0  0  0  0  0  0  0  0
    2.5281   -6.3832    2.2132 O   0  0  0  0  0  0  0  0  0  0  0  0
    3.1406   -5.1824    1.7710 C   0  0  1  0  0  0  0  0  0  0  0  0
    2.2182   -4.1015    1.8051 O   0  0  0  0  0  0  0  0  0  0  0  0
    2.7596   -2.8773    2.3722 C   0  0  2  0  0  0  0  0  0  0  0  0
    3.1275   -2.4036    3.7720 C   0  0  0  0  0  0  0  0  0  0  0  0
    3.2421   -3.8162    3.5337 C   0  0  2  0  0  0  0  0  0  0  0  0
    4.1726   -4.7532    2.8362 C   0  0  1  0  0  0  0  0  0  0  0  0
    4.7524   -5.8776    3.7080 C   0  0  0  0  0  0  0  0  0  0  0  0
    3.9730   -2.0228    1.2922 S   0  0  0  0  0  0  0  0  0  0  0  0
    3.2836   -0.3540    1.1317 C   0  0  0  0  0  0  0  0  0  0  0  0
    3.5985   -2.8044   -0.2801 C   0  0  0  0  0  0  0  0  0  0  0  0
    4.3602   -4.1183   -0.2819 C   0  0  0  0  0  0  0  0  0  0  0  0
    5.5098   -4.1251   -0.7174 O   0  0  0  0  0  0  0  0  0  0  0  0
    3.6880   -5.3684    0.3206 C   0  0  1  0  0  0  0  0  0  0  0  0
    4.6150   -6.4463    0.2853 O   0  0  0  0  0  0  0  0  0  0  0  0
   -2.0580   -9.8575    2.7044 H   0  0  0  0  0  0  0  0  0  0  0  0
   -0.5985   -9.9299    3.6937 H   0  0  0  0  0  0  0  0  0  0  0  0
   -0.5743  -10.5482    2.0485 H   0  0  0  0  0  0  0  0  0  0  0  0
   -0.9913   -8.2364    1.1850 H   0  0  0  0  0  0  0  0  0  0  0  0
   -1.0012   -7.6072    2.8242 H   0  0  0  0  0  0  0  0  0  0  0  0
    1.3688   -8.3474    3.1335 H   0  0  0  0  0  0  0  0  0  0  0  0
    1.4118   -8.9590    1.5016 H   0  0  0  0  0  0  0  0  0  0  0  0
    4.0810   -1.9047    3.9507 H   0  0  0  0  0  0  0  0  0  0  0  0
    2.3408   -2.1364    4.4761 H   0  0  0  0  0  0  0  0  0  0  0  0
    2.4844   -4.3575    4.0981 H   0  0  0  0  0  0  0  0  0  0  0  0
    5.0014   -4.2069    2.3979 H   0  0  0  0  0  0  0  0  0  0  0  0
    4.0053   -6.4550    4.2531 H   0  0  0  0  0  0  0  0  0  0  0  0
    5.4387   -5.4536    4.4403 H   0  0  0  0  0  0  0  0  0  0  0  0
    5.3320   -6.5665    3.0962 H   0  0  0  0  0  0  0  0  0  0  0  0
    3.9031    0.1750    0.4191 H   0  0  0  0  0  0  0  0  0  0  0  0
    3.3785    0.1924    2.0677 H   0  0  0  0  0  0  0  0  0  0  0  0
    2.2409   -0.3122    0.8039 H   0  0  0  0  0  0  0  0  0  0  0  0
    2.5325   -2.9419   -0.4270 H   0  0  0  0  0  0  0  0  0  0  0  0
    3.9615   -2.1762   -1.0896 H   0  0  0  0  0  0  0  0  0  0  0  0
    2.8584   -5.6381   -0.3232 H   0  0  0  0  0  0  0  0  0  0  0  0
    4.1985   -7.2172    0.6154 H   0  0  0  0  0  0  0  0  0  0  0  0
  1  2  1  0
  1 21  1  0
  1 22  1  0
  1 23  1  0
  2  3  1  0
  2 24  1  0
  2 25  1  0
  3  4  1  0
  3 26  1  0
  3 27  1  0
  4  5  2  0
  4  6  1  0
  7  6  1  1
  7 12  1  0
  7 19  1  0
  7  8  1  0
  8  9  1  0
  9 11  1  0
  9 10  1  1
  9 14  1  0
 10 11  1  0
 10 28  1  0
 10 29  1  0
 11 12  1  0
 11 30  1  1
 12 13  1  0
 12 31  1  6
 13 32  1  0
 13 33  1  0
 13 34  1  0
 14 15  1  6
 14 16  1  0
 15 35  1  0
 15 36  1  0
 15 37  1  0
 16 17  1  0
 16 38  1  0
 16 39  1  0
 17 18  2  0
 17 19  1  0
 19 20  1  0
 19 40  1  6
 20 41  1  0
M  CHG  1  14   1
M  END
>  <i_m_ct_stereo_status>  (289) 
1

>  <s_m_source_file>  (289) 
/var/tmp/pbs.5076255.sched01/tmp0eyfkrct/966b1hsbd3.sdf

>  <i_m_source_file_index>  (289) 
36

>  <i_lp_mmshare_version>  (289) 
48012

>  <i_f3d_flags>  (289) 
0

>  <s_epik_input>  (289) 
W0NIM11bQ0gyXVtDSDJdQyg9TylPW0NAQF0oTzEpKFtDQEhdKFtDSDNdKVtDQEhdKFtDQEBdMTIzKVtDSDJdMilbQ0BIXShbT0hdKUMoPU8pW0NIMl1bUytdM1tDSDNd

>  <s_epik_cmdline>  (289) 
J2VwaWtfcHl0aG9uJywgJy1waHQnLCAnMi4wJywgJy1waCcsICc3LjAnLCAnLXRuJywgJzgnLCAnLW1hJywgJzIwMCcsICctaW1hZScsICc8aW5maWxlLm1hZT4nLCAnLW9tYWUnLCAnPG91dGZpbGUubWFlPic=

>  <r_epik_Ionization_Penalty>  (289) 
1.04779

>  <r_epik_Ionization_Penalty_Charging>  (289) 
0

>  <r_epik_Ionization_Penalty_Neutral>  (289) 
1.04779

>  <r_epik_State_Penalty>  (289) 
1.10038

>  <r_epik_Charging_Adjusted_Penalty>  (289) 
1.10038

>  <i_epik_Tot_Q>  (289) 
1

>  <i_epik_Tot_abs_Q>  (289) 
1

>  <s_epik_Chemistry_Notes>  (289) 
This compound has an ester and may undergo hydrolysis at high or low pH.

>  <s_lp_Force_Field>  (289) 
OPLS3e

>  <r_lp_Energy>  (289) 
62.0096

>  <b_lp_Chiralities_Consistent>  (289) 
1

>  <s_lp_Variant>  (289) 
85:0-2

>  <s_i_glide_gridfile>  (289) 
pfpi4k_grid

>  <i_i_glide_lignum>  (289) 
36

>  <i_i_glide_rotatable_bonds>  (289) 
5

>  <r_i_docking_score>  (289) 
-3.03054

>  <r_i_glide_ligand_efficiency>  (289) 
-0.151527

>  <r_i_glide_ligand_efficiency_sa>  (289) 
-0.411307

>  <r_i_glide_ligand_efficiency_ln>  (289) 
-0.758443

>  <r_i_glide_gscore>  (289) 
-3.03054

>  <r_i_glide_lipo>  (289) 
-0.0241472

>  <r_i_glide_hbond>  (289) 
-0.16

>  <r_i_glide_metal>  (289) 
-0

>  <r_i_glide_rewards>  (289) 
-1.35674

>  <r_i_glide_evdw>  (289) 
-19.2087

>  <r_i_glide_ecoul>  (289) 
-7.17918

>  <r_i_glide_erotb>  (289) 
0.607601

>  <r_i_glide_esite>  (289) 
-0.0599437

>  <r_i_glide_emodel>  (289) 
-31.5177

>  <r_i_glide_energy>  (289) 
-26.3878

>  <r_i_glide_einternal>  (289) 
1.68432

>  <r_i_glide_intrahb_reward>  (289) 
-0

>  <i_i_glide_confnum>  (289) 
5

>  <i_i_glide_posenum>  (289) 
27

>  <r_i_glide_eff_state_penalty>  (289) 
0

>  <ligand_id>  (289) 
85

>  <original_smiles>  (289) 
CCCC(=O)OC12OC3(CC3C1C)[S+](C)CC(=O)C2O

>  <smiles>  (289) 
[H]OC1([H])C(=O)C([H])([H])[S+](C([H])([H])[H])C23OC1(OC(=O)C([H])([H])C([H])([H])C([H])([H])[H])C([H])(C([H])([H])[H])C2([H])C3([H])[H]

$$$$
86:0:0
     RDKit          3D

 24 25  0  0  1  0  0  0  0  0999 V2000
   -6.5858   -4.7857   -3.8948 C   0  0  0  0  0  0  0  0  0  0  0  0
   -7.2799   -5.1894   -5.1811 C   0  0  0  0  0  0  0  0  0  0  0  0
   -8.2591   -4.4334   -5.7148 C   0  0  0  0  0  0  0  0  0  0  0  0
   -8.9382   -4.7890   -6.9778 C   0  0  0  0  0  0  0  0  0  0  0  0
   -9.8185   -4.0855   -7.4703 O   0  0  0  0  0  0  0  0  0  0  0  0
   -8.5158   -5.9448   -7.5746 O   0  0  0  0  0  0  0  0  0  0  0  0
   -7.5171   -6.7533   -7.0666 C   0  0  0  0  0  0  0  0  0  0  0  0
   -7.1574   -7.9265   -7.7731 C   0  0  0  0  0  0  0  0  0  0  0  0
   -7.8837   -8.2589   -9.0696 C   0  0  0  0  0  0  0  0  0  0  0  0
   -6.1343   -8.7630   -7.2661 C   0  0  0  0  0  0  0  0  0  0  0  0
   -5.7634   -9.9058   -7.9162 O   0  0  0  0  0  0  0  0  0  0  0  0
   -5.4742   -8.4274   -6.0697 C   0  0  0  0  0  0  0  0  0  0  0  0
   -5.8309   -7.2600   -5.3680 C   0  0  0  0  0  0  0  0  0  0  0  0
   -6.8561   -6.4228   -5.8616 C   0  0  0  0  0  0  0  0  0  0  0  0
   -6.9905   -3.8579   -3.4884 H   0  0  0  0  0  0  0  0  0  0  0  0
   -5.5274   -4.6218   -4.0850 H   0  0  0  0  0  0  0  0  0  0  0  0
   -6.6974   -5.5502   -3.1285 H   0  0  0  0  0  0  0  0  0  0  0  0
   -8.5829   -3.5220   -5.2325 H   0  0  0  0  0  0  0  0  0  0  0  0
   -7.5407   -9.1786   -9.5395 H   0  0  0  0  0  0  0  0  0  0  0  0
   -7.7491   -7.4541   -9.7921 H   0  0  0  0  0  0  0  0  0  0  0  0
   -8.9522   -8.3631   -8.8808 H   0  0  0  0  0  0  0  0  0  0  0  0
   -6.2715  -10.0581   -8.6952 H   0  0  0  0  0  0  0  0  0  0  0  0
   -4.6933   -9.0687   -5.6811 H   0  0  0  0  0  0  0  0  0  0  0  0
   -5.3155   -7.0281   -4.4485 H   0  0  0  0  0  0  0  0  0  0  0  0
  1  2  1  0
  1 15  1  0
  1 16  1  0
  1 17  1  0
  2 14  1  0
  2  3  2  0
  3  4  1  0
  3 18  1  0
  4  5  2  0
  4  6  1  0
  6  7  1  0
  7 14  2  0
  7  8  1  0
  8  9  1  0
  8 10  2  0
  9 19  1  0
  9 20  1  0
  9 21  1  0
 10 11  1  0
 10 12  1  0
 11 22  1  0
 12 13  2  0
 12 23  1  0
 13 14  1  0
 13 24  1  0
M  END
>  <i_m_ct_stereo_status>  (290) 
1

>  <s_m_source_file>  (290) 
/var/tmp/pbs.5076255.sched01/tmp0eyfkrct/966b1hsbd3.sdf

>  <i_m_source_file_index>  (290) 
37

>  <i_lp_mmshare_version>  (290) 
48012

>  <i_f3d_flags>  (290) 
0

>  <s_epik_input>  (290) 
Tz1jKG8xKVtjSF1jKFtDSDNdKWMoYzEyKVtjSF1bY0hdYyhbT0hdKWMyW0NIM10=

>  <s_epik_cmdline>  (290) 
J2VwaWtfcHl0aG9uJywgJy1waHQnLCAnMi4wJywgJy1waCcsICc3LjAnLCAnLXRuJywgJzgnLCAnLW1hJywgJzIwMCcsICctaW1hZScsICc8aW5maWxlLm1hZT4nLCAnLW9tYWUnLCAnPG91dGZpbGUubWFlPic=

>  <r_epik_Ionization_Penalty>  (290) 
0.00402679

>  <r_epik_Ionization_Penalty_Charging>  (290) 
0

>  <r_epik_Ionization_Penalty_Neutral>  (290) 
0.00402679

>  <r_epik_State_Penalty>  (290) 
0.00288447

>  <r_epik_Charging_Adjusted_Penalty>  (290) 
0.00288447

>  <i_epik_Tot_Q>  (290) 
0

>  <i_epik_Tot_abs_Q>  (290) 
0

>  <s_lp_Force_Field>  (290) 
OPLS3e

>  <r_lp_Energy>  (290) 
19.4864

>  <b_lp_Chiralities_Consistent>  (290) 
1

>  <s_lp_Variant>  (290) 
86:0-1

>  <s_i_glide_gridfile>  (290) 
pfpi4k_grid

>  <i_i_glide_lignum>  (290) 
37

>  <i_i_glide_rotatable_bonds>  (290) 
1

>  <r_i_docking_score>  (290) 
-6.88715

>  <r_i_glide_ligand_efficiency>  (290) 
-0.491939

>  <r_i_glide_ligand_efficiency_sa>  (290) 
-1.18564

>  <r_i_glide_ligand_efficiency_ln>  (290) 
-1.89256

>  <r_i_glide_gscore>  (290) 
-6.88715

>  <r_i_glide_lipo>  (290) 
-2.78629

>  <r_i_glide_hbond>  (290) 
0

>  <r_i_glide_metal>  (290) 
-0

>  <r_i_glide_rewards>  (290) 
-2.632

>  <r_i_glide_evdw>  (290) 
-24.771

>  <r_i_glide_ecoul>  (290) 
-1.53542

>  <r_i_glide_erotb>  (290) 
0

>  <r_i_glide_esite>  (290) 
0

>  <r_i_glide_emodel>  (290) 
-37.9709

>  <r_i_glide_energy>  (290) 
-26.3064

>  <r_i_glide_einternal>  (290) 
0.0048782

>  <r_i_glide_intrahb_reward>  (290) 
-0

>  <i_i_glide_confnum>  (290) 
2

>  <i_i_glide_posenum>  (290) 
31

>  <r_i_glide_eff_state_penalty>  (290) 
0

>  <ligand_id>  (290) 
86

>  <original_smiles>  (290) 
Cc1cc(=O)oc2c(C)c(O)ccc12

>  <smiles>  (290) 
[H]Oc1c([H])c([H])c2c(C([H])([H])[H])c([H])c(=O)oc2c1C([H])([H])[H]

$$$$
86:0:1
     RDKit          3D

 24 25  0  0  1  0  0  0  0  0999 V2000
   -6.4594   -4.4252   -4.1799 C   0  0  0  0  0  0  0  0  0  0  0  0
   -7.0277   -5.2072   -5.3537 C   0  0  0  0  0  0  0  0  0  0  0  0
   -8.0219   -4.7092   -6.1140 C   0  0  0  0  0  0  0  0  0  0  0  0
   -8.5873   -5.4441   -7.2665 C   0  0  0  0  0  0  0  0  0  0  0  0
   -9.4905   -4.9774   -7.9607 O   0  0  0  0  0  0  0  0  0  0  0  0
   -8.0390   -6.6710   -7.5205 O   0  0  0  0  0  0  0  0  0  0  0  0
   -7.0200   -7.2249   -6.7675 C   0  0  0  0  0  0  0  0  0  0  0  0
   -6.5245   -8.5010   -7.1249 C   0  0  0  0  0  0  0  0  0  0  0  0
   -7.1353   -9.2231   -8.3187 C   0  0  0  0  0  0  0  0  0  0  0  0
   -5.4799   -9.0836   -6.3675 C   0  0  0  0  0  0  0  0  0  0  0  0
   -4.9854  -10.3174   -6.6751 O   0  0  0  0  0  0  0  0  0  0  0  0
   -4.9335   -8.3899   -5.2708 C   0  0  0  0  0  0  0  0  0  0  0  0
   -5.4232   -7.1190   -4.9210 C   0  0  0  0  0  0  0  0  0  0  0  0
   -6.4711   -6.5335   -5.6633 C   0  0  0  0  0  0  0  0  0  0  0  0
   -6.9578   -3.4639   -4.0682 H   0  0  0  0  0  0  0  0  0  0  0  0
   -5.3973   -4.2275   -4.3218 H   0  0  0  0  0  0  0  0  0  0  0  0
   -6.5912   -4.9788   -3.2511 H   0  0  0  0  0  0  0  0  0  0  0  0
   -8.4424   -3.7360   -5.9021 H   0  0  0  0  0  0  0  0  0  0  0  0
   -6.6877  -10.1979   -8.5010 H   0  0  0  0  0  0  0  0  0  0  0  0
   -7.0105   -8.6271   -9.2236 H   0  0  0  0  0  0  0  0  0  0  0  0
   -8.2037   -9.3732   -8.1576 H   0  0  0  0  0  0  0  0  0  0  0  0
   -4.3442  -10.6170   -6.0480 H   0  0  0  0  0  0  0  0  0  0  0  0
   -4.1390   -8.8332   -4.6862 H   0  0  0  0  0  0  0  0  0  0  0  0
   -4.9924   -6.6088   -4.0730 H   0  0  0  0  0  0  0  0  0  0  0  0
  1  2  1  0
  1 15  1  0
  1 16  1  0
  1 17  1  0
  2 14  1  0
  2  3  2  0
  3  4  1  0
  3 18  1  0
  4  5  2  0
  4  6  1  0
  6  7  1  0
  7 14  2  0
  7  8  1  0
  8  9  1  0
  8 10  2  0
  9 19  1  0
  9 20  1  0
  9 21  1  0
 10 11  1  0
 10 12  1  0
 11 22  1  0
 12 13  2  0
 12 23  1  0
 13 14  1  0
 13 24  1  0
M  END
>  <i_m_ct_stereo_status>  (291) 
1

>  <s_m_source_file>  (291) 
/var/tmp/pbs.5076255.sched01/tmp0eyfkrct/966b1hsbd3.sdf

>  <i_m_source_file_index>  (291) 
37

>  <i_lp_mmshare_version>  (291) 
48012

>  <i_f3d_flags>  (291) 
0

>  <s_epik_input>  (291) 
Tz1jKG8xKVtjSF1jKFtDSDNdKWMoYzEyKVtjSF1bY0hdYyhbT0hdKWMyW0NIM10=

>  <s_epik_cmdline>  (291) 
J2VwaWtfcHl0aG9uJywgJy1waHQnLCAnMi4wJywgJy1waCcsICc3LjAnLCAnLXRuJywgJzgnLCAnLW1hJywgJzIwMCcsICctaW1hZScsICc8aW5maWxlLm1hZT4nLCAnLW9tYWUnLCAnPG91dGZpbGUubWFlPic=

>  <r_epik_Ionization_Penalty>  (291) 
0.00402679

>  <r_epik_Ionization_Penalty_Charging>  (291) 
0

>  <r_epik_Ionization_Penalty_Neutral>  (291) 
0.00402679

>  <r_epik_State_Penalty>  (291) 
0.00288447

>  <r_epik_Charging_Adjusted_Penalty>  (291) 
0.00288447

>  <i_epik_Tot_Q>  (291) 
0

>  <i_epik_Tot_abs_Q>  (291) 
0

>  <s_lp_Force_Field>  (291) 
OPLS3e

>  <r_lp_Energy>  (291) 
19.4864

>  <b_lp_Chiralities_Consistent>  (291) 
1

>  <s_lp_Variant>  (291) 
86:0-1

>  <s_i_glide_gridfile>  (291) 
pfpi4k_grid

>  <i_i_glide_lignum>  (291) 
37

>  <i_i_glide_rotatable_bonds>  (291) 
1

>  <r_i_docking_score>  (291) 
-6.52639

>  <r_i_glide_ligand_efficiency>  (291) 
-0.466171

>  <r_i_glide_ligand_efficiency_sa>  (291) 
-1.12354

>  <r_i_glide_ligand_efficiency_ln>  (291) 
-1.79343

>  <r_i_glide_gscore>  (291) 
-6.52639

>  <r_i_glide_lipo>  (291) 
-2.82996

>  <r_i_glide_hbond>  (291) 
0

>  <r_i_glide_metal>  (291) 
-0

>  <r_i_glide_rewards>  (291) 
-2.1123

>  <r_i_glide_evdw>  (291) 
-25.3905

>  <r_i_glide_ecoul>  (291) 
-2.09729

>  <r_i_glide_erotb>  (291) 
0

>  <r_i_glide_esite>  (291) 
0

>  <r_i_glide_emodel>  (291) 
-38.5285

>  <r_i_glide_energy>  (291) 
-27.4878

>  <r_i_glide_einternal>  (291) 
0.0301648

>  <r_i_glide_intrahb_reward>  (291) 
-0

>  <i_i_glide_confnum>  (291) 
2

>  <i_i_glide_posenum>  (291) 
28

>  <r_i_glide_eff_state_penalty>  (291) 
0

>  <ligand_id>  (291) 
86

>  <original_smiles>  (291) 
Cc1cc(=O)oc2c(C)c(O)ccc12

>  <smiles>  (291) 
[H]Oc1c([H])c([H])c2c(C([H])([H])[H])c([H])c(=O)oc2c1C([H])([H])[H]

$$$$
86:0:2
     RDKit          3D

 24 25  0  0  1  0  0  0  0  0999 V2000
   -6.8535   -9.2059   -8.6067 C   0  0  0  0  0  0  0  0  0  0  0  0
   -7.6501   -7.9212   -8.4365 C   0  0  0  0  0  0  0  0  0  0  0  0
   -8.5483   -7.5223   -9.3575 C   0  0  0  0  0  0  0  0  0  0  0  0
   -9.3354   -6.2750   -9.2171 C   0  0  0  0  0  0  0  0  0  0  0  0
  -10.1473   -5.9095  -10.0650 O   0  0  0  0  0  0  0  0  0  0  0  0
   -9.1001   -5.5436   -8.0899 O   0  0  0  0  0  0  0  0  0  0  0  0
   -8.1906   -5.9107   -7.1184 C   0  0  0  0  0  0  0  0  0  0  0  0
   -8.0308   -5.0730   -5.9892 C   0  0  0  0  0  0  0  0  0  0  0  0
   -8.8704   -3.8061   -5.8866 C   0  0  0  0  0  0  0  0  0  0  0  0
   -7.1015   -5.4306   -4.9853 C   0  0  0  0  0  0  0  0  0  0  0  0
   -6.9217   -4.6571   -3.8770 O   0  0  0  0  0  0  0  0  0  0  0  0
   -6.3449   -6.6098   -5.1077 C   0  0  0  0  0  0  0  0  0  0  0  0
   -6.5072   -7.4452   -6.2267 C   0  0  0  0  0  0  0  0  0  0  0  0
   -7.4307   -7.0985   -7.2367 C   0  0  0  0  0  0  0  0  0  0  0  0
   -7.1087   -9.7183   -9.5343 H   0  0  0  0  0  0  0  0  0  0  0  0
   -7.0513   -9.8911   -7.7830 H   0  0  0  0  0  0  0  0  0  0  0  0
   -5.7862   -8.9910   -8.6300 H   0  0  0  0  0  0  0  0  0  0  0  0
   -8.7221   -8.1131  -10.2453 H   0  0  0  0  0  0  0  0  0  0  0  0
   -8.6715   -3.2323   -4.9862 H   0  0  0  0  0  0  0  0  0  0  0  0
   -9.9335   -4.0525   -5.8888 H   0  0  0  0  0  0  0  0  0  0  0  0
   -8.6695   -3.1544   -6.7374 H   0  0  0  0  0  0  0  0  0  0  0  0
   -7.4710   -3.8880   -3.8537 H   0  0  0  0  0  0  0  0  0  0  0  0
   -5.6426   -6.8776   -4.3323 H   0  0  0  0  0  0  0  0  0  0  0  0
   -5.9132   -8.3454   -6.2924 H   0  0  0  0  0  0  0  0  0  0  0  0
  1  2  1  0
  1 15  1  0
  1 16  1  0
  1 17  1  0
  2 14  1  0
  2  3  2  0
  3  4  1  0
  3 18  1  0
  4  5  2  0
  4  6  1  0
  6  7  1  0
  7 14  2  0
  7  8  1  0
  8  9  1  0
  8 10  2  0
  9 19  1  0
  9 20  1  0
  9 21  1  0
 10 11  1  0
 10 12  1  0
 11 22  1  0
 12 13  2  0
 12 23  1  0
 13 14  1  0
 13 24  1  0
M  END
>  <i_m_ct_stereo_status>  (292) 
1

>  <s_m_source_file>  (292) 
/var/tmp/pbs.5076255.sched01/tmp0eyfkrct/966b1hsbd3.sdf

>  <i_m_source_file_index>  (292) 
37

>  <i_lp_mmshare_version>  (292) 
48012

>  <i_f3d_flags>  (292) 
0

>  <s_epik_input>  (292) 
Tz1jKG8xKVtjSF1jKFtDSDNdKWMoYzEyKVtjSF1bY0hdYyhbT0hdKWMyW0NIM10=

>  <s_epik_cmdline>  (292) 
J2VwaWtfcHl0aG9uJywgJy1waHQnLCAnMi4wJywgJy1waCcsICc3LjAnLCAnLXRuJywgJzgnLCAnLW1hJywgJzIwMCcsICctaW1hZScsICc8aW5maWxlLm1hZT4nLCAnLW9tYWUnLCAnPG91dGZpbGUubWFlPic=

>  <r_epik_Ionization_Penalty>  (292) 
0.00402679

>  <r_epik_Ionization_Penalty_Charging>  (292) 
0

>  <r_epik_Ionization_Penalty_Neutral>  (292) 
0.00402679

>  <r_epik_State_Penalty>  (292) 
0.00288447

>  <r_epik_Charging_Adjusted_Penalty>  (292) 
0.00288447

>  <i_epik_Tot_Q>  (292) 
0

>  <i_epik_Tot_abs_Q>  (292) 
0

>  <s_lp_Force_Field>  (292) 
OPLS3e

>  <r_lp_Energy>  (292) 
19.4864

>  <b_lp_Chiralities_Consistent>  (292) 
1

>  <s_lp_Variant>  (292) 
86:0-1

>  <s_i_glide_gridfile>  (292) 
pfpi4k_grid

>  <i_i_glide_lignum>  (292) 
37

>  <i_i_glide_rotatable_bonds>  (292) 
1

>  <r_i_docking_score>  (292) 
-6.4982

>  <r_i_glide_ligand_efficiency>  (292) 
-0.464157

>  <r_i_glide_ligand_efficiency_sa>  (292) 
-1.11869

>  <r_i_glide_ligand_efficiency_ln>  (292) 
-1.78568

>  <r_i_glide_gscore>  (292) 
-6.4982

>  <r_i_glide_lipo>  (292) 
-2.41678

>  <r_i_glide_hbond>  (292) 
0

>  <r_i_glide_metal>  (292) 
-0

>  <r_i_glide_rewards>  (292) 
-2.79067

>  <r_i_glide_evdw>  (292) 
-23.4439

>  <r_i_glide_ecoul>  (292) 
-0.790412

>  <r_i_glide_erotb>  (292) 
0

>  <r_i_glide_esite>  (292) 
0

>  <r_i_glide_emodel>  (292) 
-35.2472

>  <r_i_glide_energy>  (292) 
-24.2343

>  <r_i_glide_einternal>  (292) 
0.00043551

>  <r_i_glide_intrahb_reward>  (292) 
-0

>  <i_i_glide_confnum>  (292) 
2

>  <i_i_glide_posenum>  (292) 
2

>  <r_i_glide_eff_state_penalty>  (292) 
0

>  <ligand_id>  (292) 
86

>  <original_smiles>  (292) 
Cc1cc(=O)oc2c(C)c(O)ccc12

>  <smiles>  (292) 
[H]Oc1c([H])c([H])c2c(C([H])([H])[H])c([H])c(=O)oc2c1C([H])([H])[H]

$$$$
87:0:0
     RDKit          3D

 66 71  0  0  1  0  0  0  0  0999 V2000
    5.4677   -8.2111    1.2097 C   0  0  0  0  0  0  0  0  0  0  0  0
    6.1983   -6.9724    1.7223 C   0  0  0  0  0  0  0  0  0  0  0  0
    7.5915   -7.3047    2.2947 C   0  0  0  0  0  0  0  0  0  0  0  0
    6.3399   -6.0893    0.6640 O   0  0  0  0  0  0  0  0  0  0  0  0
    6.0924   -4.7936    1.1878 C   0  0  2  0  0  0  0  0  0  0  0  0
    7.3349   -3.9191    1.0993 C   0  0  0  0  0  0  0  0  0  0  0  0
    7.3070   -2.7792    0.0207 C   0  0  1  0  0  0  0  0  0  0  0  0
    8.7175   -2.1654    0.0455 C   0  0  0  0  0  0  0  0  0  0  0  0
    7.1606   -3.3240   -1.4116 C   0  0  0  0  0  0  0  0  0  0  0  0
    5.7529   -3.8347   -1.8606 C   0  0  0  0  0  0  0  0  0  0  0  0
    4.5643   -2.9929   -1.3777 C   0  0  2  0  0  0  0  0  0  0  0  0
    5.0983   -1.6424   -0.9274 C   0  0  1  0  0  0  0  0  0  0  0  0
    3.9401   -0.7728   -0.5862 C   0  0  0  0  0  0  0  0  0  0  0  0
    3.2365   -1.3235    0.6103 C   0  0  0  0  0  0  0  0  0  0  0  0
    3.2438   -2.6319    0.7905 C   0  0  0  0  0  0  0  0  0  0  0  0
    3.3053   -3.1925    2.2375 C   0  0  2  0  0  0  0  0  0  0  0  0
    4.0760   -2.2059    3.1413 C   0  0  0  0  0  0  0  0  0  0  0  0
    3.5154   -1.7179    4.1327 O   0  0  0  0  0  0  0  0  0  0  0  0
    5.5318   -1.8214    2.8543 C   0  0  0  0  0  0  0  0  0  0  0  0
    5.9842   -1.0423    1.6002 C   0  0  0  0  0  0  0  0  0  0  0  0
    6.2235   -1.6549    0.1780 C   0  0  1  0  0  0  0  0  0  0  0  0
    3.7345   -4.6755    2.4603 C   0  0  1  0  0  0  0  0  0  0  0  0
    3.1446   -5.1098    3.8235 C   0  0  0  0  0  0  0  0  0  0  0  0
    3.0171   -5.4486    1.3490 C   0  0  0  0  0  0  0  0  0  0  0  0
    2.1553   -6.3058    1.5720 O   0  0  0  0  0  0  0  0  0  0  0  0
    3.3567   -5.0898   -0.0938 C   0  0  0  0  0  0  0  0  0  0  0  0
    3.3884   -3.5642   -0.4580 C   0  0  2  0  0  0  0  0  0  0  0  0
    2.0950   -3.4730   -1.3543 C   0  0  0  0  0  0  0  0  0  0  0  0
    5.2888   -5.0089    2.4840 C   0  0  1  0  0  0  0  0  0  0  0  0
    5.4281   -6.4046    2.7164 O   0  0  0  0  0  0  0  0  0  0  0  0
    4.5836   -7.9250    0.6334 H   0  0  0  0  0  0  0  0  0  0  0  0
    5.1961   -8.8812    2.0348 H   0  0  0  0  0  0  0  0  0  0  0  0
    6.1779   -8.6932    0.5456 H   0  0  0  0  0  0  0  0  0  0  0  0
    8.0720   -6.4201    2.7231 H   0  0  0  0  0  0  0  0  0  0  0  0
    8.2459   -7.7110    1.5226 H   0  0  0  0  0  0  0  0  0  0  0  0
    7.4756   -8.0491    3.0760 H   0  0  0  0  0  0  0  0  0  0  0  0
    5.4651   -4.2240    0.5735 H   0  0  0  0  0  0  0  0  0  0  0  0
    7.5506   -3.5009    2.0610 H   0  0  0  0  0  0  0  0  0  0  0  0
    8.1919   -4.5547    0.8668 H   0  0  0  0  0  0  0  0  0  0  0  0
    8.8554   -1.5247   -0.8169 H   0  0  0  0  0  0  0  0  0  0  0  0
    9.4740   -2.9399   -0.0528 H   0  0  0  0  0  0  0  0  0  0  0  0
    8.9158   -1.5645    0.9197 H   0  0  0  0  0  0  0  0  0  0  0  0
    7.4778   -2.5847   -2.1511 H   0  0  0  0  0  0  0  0  0  0  0  0
    7.9423   -4.0735   -1.4346 H   0  0  0  0  0  0  0  0  0  0  0  0
    5.7129   -3.8570   -2.9577 H   0  0  0  0  0  0  0  0  0  0  0  0
    5.5594   -4.8243   -1.5178 H   0  0  0  0  0  0  0  0  0  0  0  0
    4.0564   -2.7669   -2.3209 H   0  0  0  0  0  0  0  0  0  0  0  0
    5.5247   -1.1997   -1.8357 H   0  0  0  0  0  0  0  0  0  0  0  0
    4.3369    0.1895   -0.3594 H   0  0  0  0  0  0  0  0  0  0  0  0
    3.2372   -0.7382   -1.4069 H   0  0  0  0  0  0  0  0  0  0  0  0
    3.0907   -0.5776    1.3940 H   0  0  0  0  0  0  0  0  0  0  0  0
    2.2696   -3.0961    2.5617 H   0  0  0  0  0  0  0  0  0  0  0  0
    5.7640   -1.1354    3.6659 H   0  0  0  0  0  0  0  0  0  0  0  0
    6.1766   -2.6542    3.0555 H   0  0  0  0  0  0  0  0  0  0  0  0
    5.4281   -0.1125    1.5401 H   0  0  0  0  0  0  0  0  0  0  0  0
    6.9854   -0.7445    1.8808 H   0  0  0  0  0  0  0  0  0  0  0  0
    6.7328   -0.7843   -0.2242 H   0  0  0  0  0  0  0  0  0  0  0  0
    3.5750   -4.5561    4.6549 H   0  0  0  0  0  0  0  0  0  0  0  0
    3.3005   -6.1720    4.0142 H   0  0  0  0  0  0  0  0  0  0  0  0
    2.0626   -4.9460    3.8506 H   0  0  0  0  0  0  0  0  0  0  0  0
    4.2599   -5.6499   -0.3494 H   0  0  0  0  0  0  0  0  0  0  0  0
    2.5954   -5.5617   -0.7019 H   0  0  0  0  0  0  0  0  0  0  0  0
    2.1453   -4.1393   -2.2309 H   0  0  0  0  0  0  0  0  0  0  0  0
    1.8613   -2.4848   -1.7525 H   0  0  0  0  0  0  0  0  0  0  0  0
    1.2151   -3.7592   -0.8024 H   0  0  0  0  0  0  0  0  0  0  0  0
    5.7703   -4.5801    3.3566 H   0  0  0  0  0  0  0  0  0  0  0  0
  1  2  1  0
  1 31  1  0
  1 32  1  0
  1 33  1  0
  2 30  1  0
  2  3  1  0
  2  4  1  0
  3 34  1  0
  3 35  1  0
  3 36  1  0
  4  5  1  0
  5 29  1  0
  5  6  1  0
  5 37  1  6
  6  7  1  0
  6 38  1  0
  6 39  1  0
  7 21  1  0
  7  8  1  6
  7  9  1  0
  8 40  1  0
  8 41  1  0
  8 42  1  0
  9 10  1  0
  9 43  1  0
  9 44  1  0
 10 11  1  0
 10 45  1  0
 10 46  1  0
 11 27  1  0
 11 12  1  0
 11 47  1  6
 12 21  1  0
 12 13  1  0
 12 48  1  6
 13 14  1  0
 13 49  1  0
 13 50  1  0
 14 15  2  0
 14 51  1  0
 15 27  1  0
 15 16  1  0
 16 17  1  0
 16 22  1  0
 16 52  1  1
 17 18  2  0
 17 19  1  0
 19 20  1  0
 19 53  1  0
 19 54  1  0
 20 21  1  0
 20 55  1  0
 20 56  1  0
 21 57  1  6
 22 23  1  1
 22 24  1  0
 22 29  1  0
 23 58  1  0
 23 59  1  0
 23 60  1  0
 24 25  2  0
 24 26  1  0
 26 27  1  0
 26 61  1  0
 26 62  1  0
 27 28  1  6
 28 63  1  0
 28 64  1  0
 28 65  1  0
 29 30  1  0
 29 66  1  1
M  END
>  <i_m_ct_stereo_status>  (293) 
1

>  <s_m_source_file>  (293) 
/var/tmp/pbs.5076255.sched01/tmp0eyfkrct/966b1hsbd3.sdf

>  <i_m_source_file_index>  (293) 
38

>  <i_lp_mmshare_version>  (293) 
48012

>  <i_f3d_flags>  (293) 
0

>  <s_epik_input>  (293) 
W0NIM11DKE8xKShbQ0gzXSlPW0NASF0oW0NIMl0yKVtDQEhdMVtDQF0oW0NIM10pKEMoPU8pW0NIMl0zKVtDSF0oQyg9TylbQ0gyXVtDSDJdNClDKD1bQ0hdW0NIMl01KVtDQEBdMyhbQ0gzXSlbQ0BIXShbQ0gyXVtDSDJdNilbQ0BASF01W0NAQEhdNFtDQEBdMjZbQ0gzXQ==

>  <s_epik_cmdline>  (293) 
J2VwaWtfcHl0aG9uJywgJy1waHQnLCAnMi4wJywgJy1waCcsICc3LjAnLCAnLXRuJywgJzgnLCAnLW1hJywgJzIwMCcsICctaW1hZScsICc8aW5maWxlLm1hZT4nLCAnLW9tYWUnLCAnPG91dGZpbGUubWFlPic=

>  <r_lp_tautomer_probability>  (293) 
1

>  <r_epik_Ionization_Penalty>  (293) 
2.62275e-12

>  <r_epik_Ionization_Penalty_Charging>  (293) 
0

>  <r_epik_Ionization_Penalty_Neutral>  (293) 
2.62275e-12

>  <r_epik_State_Penalty>  (293) 
-0

>  <r_epik_Charging_Adjusted_Penalty>  (293) 
0

>  <i_epik_Tot_Q>  (293) 
0

>  <i_epik_Tot_abs_Q>  (293) 
0

>  <s_lp_Force_Field>  (293) 
OPLS3e

>  <r_lp_Energy>  (293) 
107.609

>  <b_lp_Chiralities_Consistent>  (293) 
1

>  <s_lp_Variant>  (293) 
87:0-1

>  <s_i_glide_gridfile>  (293) 
pfpi4k_grid

>  <i_i_glide_lignum>  (293) 
38

>  <i_i_glide_rotatable_bonds>  (293) 
0

>  <r_i_docking_score>  (293) 
-2.30014

>  <r_i_glide_ligand_efficiency>  (293) 
-0.0766713

>  <r_i_glide_ligand_efficiency_sa>  (293) 
-0.238235

>  <r_i_glide_ligand_efficiency_ln>  (293) 
-0.522616

>  <r_i_glide_gscore>  (293) 
-2.30014

>  <r_i_glide_lipo>  (293) 
-0.819408

>  <r_i_glide_hbond>  (293) 
0

>  <r_i_glide_metal>  (293) 
-0

>  <r_i_glide_rewards>  (293) 
-0.701028

>  <r_i_glide_evdw>  (293) 
-12.7745

>  <r_i_glide_ecoul>  (293) 
-0.921587

>  <r_i_glide_erotb>  (293) 
0

>  <r_i_glide_esite>  (293) 
-0.00273678

>  <r_i_glide_emodel>  (293) 
-16.1004

>  <r_i_glide_energy>  (293) 
-13.6961

>  <r_i_glide_einternal>  (293) 
0

>  <r_i_glide_intrahb_reward>  (293) 
-0

>  <i_i_glide_confnum>  (293) 
1

>  <i_i_glide_posenum>  (293) 
1

>  <r_i_glide_eff_state_penalty>  (293) 
0

>  <ligand_id>  (293) 
87

>  <original_smiles>  (293) 
CC1(C)OC2CC3(C)CCC4C5CC=C6C(C(=O)CCC53)C(C)(C(=O)CC64C)C2O1

>  <smiles>  (293) 
[H]C1=C2C3([H])C(=O)C([H])([H])C([H])([H])C4([H])C([H])(C1([H])[H])C1([H])C([H])([H])C([H])([H])C4(C([H])([H])[H])C([H])([H])C4([H])OC(C([H])([H])[H])(C([H])([H])[H])OC4([H])C3(C([H])([H])[H])C(=O)C([H])([H])C21C([H])([H])[H]

$$$$
87:0:1
     RDKit          3D

 66 71  0  0  1  0  0  0  0  0999 V2000
    4.5526   -8.6411    3.0456 C   0  0  0  0  0  0  0  0  0  0  0  0
    4.6849   -8.0062    1.6528 C   0  0  0  0  0  0  0  0  0  0  0  0
    4.2385   -8.9557    0.5408 C   0  0  0  0  0  0  0  0  0  0  0  0
    3.9029   -6.8711    1.6468 O   0  0  0  0  0  0  0  0  0  0  0  0
    4.6401   -5.8641    0.9747 C   0  0  2  0  0  0  0  0  0  0  0  0
    3.9258   -5.3980   -0.2966 C   0  0  0  0  0  0  0  0  0  0  0  0
    3.2001   -4.0164   -0.1706 C   0  0  1  0  0  0  0  0  0  0  0  0
    2.2927   -3.8558   -1.4279 C   0  0  0  0  0  0  0  0  0  0  0  0
    2.2547   -4.0572    1.0212 C   0  0  0  0  0  0  0  0  0  0  0  0
    2.6798   -3.8764    2.4763 C   0  0  0  0  0  0  0  0  0  0  0  0
    3.8272   -2.8589    2.6198 C   0  0  2  0  0  0  0  0  0  0  0  0
    3.9365   -1.9443    1.3536 C   0  0  1  0  0  0  0  0  0  0  0  0
    5.0527   -0.9090    1.5884 C   0  0  0  0  0  0  0  0  0  0  0  0
    6.3101   -1.7059    1.6636 C   0  0  0  0  0  0  0  0  0  0  0  0
    6.2340   -3.0002    2.0782 C   0  0  0  0  0  0  0  0  0  0  0  0
    7.2681   -4.0359    1.5396 C   0  0  2  0  0  0  0  0  0  0  0  0
    7.6016   -3.7226    0.0717 C   0  0  0  0  0  0  0  0  0  0  0  0
    8.7691   -3.5362   -0.2625 O   0  0  0  0  0  0  0  0  0  0  0  0
    6.5105   -3.6540   -0.9949 C   0  0  0  0  0  0  0  0  0  0  0  0
    5.3522   -2.6211   -0.9664 C   0  0  0  0  0  0  0  0  0  0  0  0
    4.0735   -2.7178   -0.0433 C   0  0  1  0  0  0  0  0  0  0  0  0
    7.0792   -5.5442    1.9227 C   0  0  1  0  0  0  0  0  0  0  0  0
    8.4743   -6.2307    1.8115 C   0  0  0  0  0  0  0  0  0  0  0  0
    6.6086   -5.5855    3.3902 C   0  0  0  0  0  0  0  0  0  0  0  0
    7.2269   -6.2038    4.2540 O   0  0  0  0  0  0  0  0  0  0  0  0
    5.3394   -4.8209    3.7558 C   0  0  0  0  0  0  0  0  0  0  0  0
    5.2026   -3.3582    3.1687 C   0  0  2  0  0  0  0  0  0  0  0  0
    5.4141   -2.5355    4.4730 C   0  0  0  0  0  0  0  0  0  0  0  0
    6.0957   -6.3284    0.9985 C   0  0  1  0  0  0  0  0  0  0  0  0
    6.0119   -7.6797    1.4390 O   0  0  0  0  0  0  0  0  0  0  0  0
    4.8479   -7.9220    3.8078 H   0  0  0  0  0  0  0  0  0  0  0  0
    5.1910   -9.5215    3.1096 H   0  0  0  0  0  0  0  0  0  0  0  0
    3.5141   -8.9290    3.2129 H   0  0  0  0  0  0  0  0  0  0  0  0
    4.3575   -8.4675   -0.4269 H   0  0  0  0  0  0  0  0  0  0  0  0
    3.1965   -9.2425    0.6746 H   0  0  0  0  0  0  0  0  0  0  0  0
    4.8545   -9.8549    0.5578 H   0  0  0  0  0  0  0  0  0  0  0  0
    4.6337   -4.9676    1.5126 H   0  0  0  0  0  0  0  0  0  0  0  0
    4.5124   -5.4925   -1.1794 H   0  0  0  0  0  0  0  0  0  0  0  0
    3.1253   -6.1282   -0.3813 H   0  0  0  0  0  0  0  0  0  0  0  0
    1.6945   -2.9442   -1.4223 H   0  0  0  0  0  0  0  0  0  0  0  0
    1.5692   -4.6627   -1.5362 H   0  0  0  0  0  0  0  0  0  0  0  0
    2.8738   -3.8115   -2.3430 H   0  0  0  0  0  0  0  0  0  0  0  0
    1.7046   -3.1248    0.8556 H   0  0  0  0  0  0  0  0  0  0  0  0
    1.6121   -4.9539    0.9658 H   0  0  0  0  0  0  0  0  0  0  0  0
    1.8233   -3.4717    3.0088 H   0  0  0  0  0  0  0  0  0  0  0  0
    2.8367   -4.8337    2.9573 H   0  0  0  0  0  0  0  0  0  0  0  0
    3.4312   -2.1865    3.3866 H   0  0  0  0  0  0  0  0  0  0  0  0
    3.0045   -1.3773    1.3199 H   0  0  0  0  0  0  0  0  0  0  0  0
    5.1078   -0.2033    0.7567 H   0  0  0  0  0  0  0  0  0  0  0  0
    4.9187   -0.3352    2.4980 H   0  0  0  0  0  0  0  0  0  0  0  0
    7.0960   -1.3452    1.0168 H   0  0  0  0  0  0  0  0  0  0  0  0
    8.2157   -3.8029    2.0215 H   0  0  0  0  0  0  0  0  0  0  0  0
    7.0562   -3.4778   -1.9257 H   0  0  0  0  0  0  0  0  0  0  0  0
    6.1604   -4.6500   -1.1150 H   0  0  0  0  0  0  0  0  0  0  0  0
    5.7916   -1.6272   -0.9161 H   0  0  0  0  0  0  0  0  0  0  0  0
    4.9632   -2.6807   -1.9870 H   0  0  0  0  0  0  0  0  0  0  0  0
    3.4881   -1.9845   -0.5956 H   0  0  0  0  0  0  0  0  0  0  0  0
    8.8945   -6.1847    0.8045 H   0  0  0  0  0  0  0  0  0  0  0  0
    8.4449   -7.2850    2.0852 H   0  0  0  0  0  0  0  0  0  0  0  0
    9.2133   -5.7685    2.4741 H   0  0  0  0  0  0  0  0  0  0  0  0
    4.5345   -5.4963    3.4999 H   0  0  0  0  0  0  0  0  0  0  0  0
    5.3006   -4.8080    4.8475 H   0  0  0  0  0  0  0  0  0  0  0  0
    4.6323   -2.6805    5.2547 H   0  0  0  0  0  0  0  0  0  0  0  0
    5.5423   -1.4666    4.3027 H   0  0  0  0  0  0  0  0  0  0  0  0
    6.2649   -2.8959    4.9973 H   0  0  0  0  0  0  0  0  0  0  0  0
    6.5105   -6.2848    0.0112 H   0  0  0  0  0  0  0  0  0  0  0  0
  1  2  1  0
  1 31  1  0
  1 32  1  0
  1 33  1  0
  2 30  1  0
  2  3  1  0
  2  4  1  0
  3 34  1  0
  3 35  1  0
  3 36  1  0
  4  5  1  0
  5 29  1  0
  5  6  1  0
  5 37  1  1
  6  7  1  0
  6 38  1  0
  6 39  1  0
  7 21  1  0
  7  8  1  6
  7  9  1  0
  8 40  1  0
  8 41  1  0
  8 42  1  0
  9 10  1  0
  9 43  1  0
  9 44  1  0
 10 11  1  0
 10 45  1  0
 10 46  1  0
 11 27  1  0
 11 12  1  0
 11 47  1  1
 12 21  1  0
 12 13  1  0
 12 48  1  6
 13 14  1  0
 13 49  1  0
 13 50  1  0
 14 15  2  0
 14 51  1  0
 15 27  1  0
 15 16  1  0
 16 17  1  0
 16 22  1  0
 16 52  1  1
 17 18  2  0
 17 19  1  0
 19 20  1  0
 19 53  1  0
 19 54  1  0
 20 21  1  0
 20 55  1  0
 20 56  1  0
 21 57  1  6
 22 23  1  1
 22 24  1  0
 22 29  1  0
 23 58  1  0
 23 59  1  0
 23 60  1  0
 24 25  2  0
 24 26  1  0
 26 27  1  0
 26 61  1  0
 26 62  1  0
 27 28  1  1
 28 63  1  0
 28 64  1  0
 28 65  1  0
 29 30  1  0
 29 66  1  6
M  END
>  <i_m_ct_stereo_status>  (294) 
1

>  <s_m_source_file>  (294) 
/var/tmp/pbs.5076255.sched01/tmp0eyfkrct/966b1hsbd3.sdf

>  <i_m_source_file_index>  (294) 
38

>  <i_lp_mmshare_version>  (294) 
48012

>  <i_f3d_flags>  (294) 
0

>  <s_epik_input>  (294) 
W0NIM11DKE8xKShbQ0gzXSlPW0NASF0oW0NIMl0yKVtDQEhdMVtDQF0oW0NIM10pKEMoPU8pW0NIMl0zKVtDSF0oQyg9TylbQ0gyXVtDSDJdNClDKD1bQ0hdW0NIMl01KVtDQEBdMyhbQ0gzXSlbQ0BIXShbQ0gyXVtDSDJdNilbQ0BASF01W0NAQEhdNFtDQEBdMjZbQ0gzXQ==

>  <s_epik_cmdline>  (294) 
J2VwaWtfcHl0aG9uJywgJy1waHQnLCAnMi4wJywgJy1waCcsICc3LjAnLCAnLXRuJywgJzgnLCAnLW1hJywgJzIwMCcsICctaW1hZScsICc8aW5maWxlLm1hZT4nLCAnLW9tYWUnLCAnPG91dGZpbGUubWFlPic=

>  <r_lp_tautomer_probability>  (294) 
1

>  <r_epik_Ionization_Penalty>  (294) 
2.62275e-12

>  <r_epik_Ionization_Penalty_Charging>  (294) 
0

>  <r_epik_Ionization_Penalty_Neutral>  (294) 
2.62275e-12

>  <r_epik_State_Penalty>  (294) 
-0

>  <r_epik_Charging_Adjusted_Penalty>  (294) 
0

>  <i_epik_Tot_Q>  (294) 
0

>  <i_epik_Tot_abs_Q>  (294) 
0

>  <s_lp_Force_Field>  (294) 
OPLS3e

>  <r_lp_Energy>  (294) 
107.609

>  <b_lp_Chiralities_Consistent>  (294) 
1

>  <s_lp_Variant>  (294) 
87:0-1

>  <s_i_glide_gridfile>  (294) 
pfpi4k_grid

>  <i_i_glide_lignum>  (294) 
38

>  <i_i_glide_rotatable_bonds>  (294) 
0

>  <r_i_docking_score>  (294) 
-1.87928

>  <r_i_glide_ligand_efficiency>  (294) 
-0.0626428

>  <r_i_glide_ligand_efficiency_sa>  (294) 
-0.194646

>  <r_i_glide_ligand_efficiency_ln>  (294) 
-0.426994

>  <r_i_glide_gscore>  (294) 
-1.87928

>  <r_i_glide_lipo>  (294) 
-0.737249

>  <r_i_glide_hbond>  (294) 
-0.0128847

>  <r_i_glide_metal>  (294) 
-0

>  <r_i_glide_rewards>  (294) 
-0.866297

>  <r_i_glide_evdw>  (294) 
-1.44815

>  <r_i_glide_ecoul>  (294) 
-1.26963

>  <r_i_glide_erotb>  (294) 
0

>  <r_i_glide_esite>  (294) 
0

>  <r_i_glide_emodel>  (294) 
-2.93997

>  <r_i_glide_energy>  (294) 
-2.71779

>  <r_i_glide_einternal>  (294) 
0

>  <r_i_glide_intrahb_reward>  (294) 
-0

>  <i_i_glide_confnum>  (294) 
2

>  <i_i_glide_posenum>  (294) 
6

>  <r_i_glide_eff_state_penalty>  (294) 
0

>  <ligand_id>  (294) 
87

>  <original_smiles>  (294) 
CC1(C)OC2CC3(C)CCC4C5CC=C6C(C(=O)CCC53)C(C)(C(=O)CC64C)C2O1

>  <smiles>  (294) 
[H]C1=C2C3([H])C(=O)C([H])([H])C([H])([H])C4([H])C([H])(C1([H])[H])C1([H])C([H])([H])C([H])([H])C4(C([H])([H])[H])C([H])([H])C4([H])OC(C([H])([H])[H])(C([H])([H])[H])OC4([H])C3(C([H])([H])[H])C(=O)C([H])([H])C21C([H])([H])[H]

$$$$
88:0:0
     RDKit          3D

 51 57  0  0  1  0  0  0  0  0999 V2000
    6.4328   -1.0578    1.4032 C   0  0  0  0  0  0  0  0  0  0  0  0
    5.0311   -1.6396    1.5994 C   0  0  1  0  0  0  0  0  0  0  0  0
    4.4063   -1.7217    0.2260 C   0  0  0  0  0  0  0  0  0  0  0  0
    4.3678   -0.6972   -0.7134 N   0  0  0  0  0  0  0  0  0  0  0  0
    3.7873   -1.1457   -1.8888 C   0  0  0  0  0  0  0  0  0  0  0  0
    3.5077   -0.5079   -3.1109 C   0  0  0  0  0  0  0  0  0  0  0  0
    2.8687   -1.2245   -4.1342 C   0  0  0  0  0  0  0  0  0  0  0  0
    2.4964   -2.5572   -3.9164 C   0  0  0  0  0  0  0  0  0  0  0  0
    2.7509   -3.1738   -2.6853 C   0  0  0  0  0  0  0  0  0  0  0  0
    3.4210   -2.5008   -1.6469 C   0  0  0  0  0  0  0  0  0  0  0  0
    3.8281   -2.8423   -0.3092 C   0  0  0  0  0  0  0  0  0  0  0  0
    3.6610   -4.1142    0.4644 C   0  0  0  0  0  0  0  0  0  0  0  0
    3.6557   -3.7872    1.9735 C   0  0  1  0  0  0  0  0  0  0  0  0
    4.9359   -3.0029    2.3225 C   0  0  2  0  0  0  0  0  0  0  0  0
    4.9329   -2.2258    3.6264 C   0  0  2  0  0  0  0  0  0  0  0  0
    4.2112   -2.8807    4.6655 O   0  0  0  0  0  0  0  0  0  0  0  0
    3.3125   -2.0055    5.3286 C   0  0  0  0  0  0  0  0  0  0  0  0
    2.1800   -1.5669    4.3629 C   0  0  2  0  0  0  0  0  0  0  0  0
    1.0368   -2.5863    4.3664 C   0  0  0  0  0  0  0  0  0  0  0  0
    1.4455   -3.5605    3.2957 C   0  0  0  0  0  0  0  0  0  0  0  0
    1.0527   -4.7257    3.2374 O   0  0  0  0  0  0  0  0  0  0  0  0
    2.3916   -2.9084    2.2966 C   0  0  1  0  0  0  0  0  0  0  0  0
    2.6637   -1.4714    2.8769 C   0  0  1  0  0  0  0  0  0  0  0  0
    1.8101   -0.4395    2.1074 C   0  0  0  0  0  0  0  0  0  0  0  0
    4.1863   -1.1532    2.8371 C   0  0  2  0  0  0  0  0  0  0  0  0
    4.4467    0.2845    3.2848 C   0  0  0  0  0  0  0  0  0  0  0  0
    4.6829    0.2453   -0.5302 H   0  0  0  0  0  0  0  0  0  0  0  0
    7.0116   -0.9852    2.3252 H   0  0  0  0  0  0  0  0  0  0  0  0
    6.3332   -0.0564    0.9880 H   0  0  0  0  0  0  0  0  0  0  0  0
    7.0331   -1.6330    0.6925 H   0  0  0  0  0  0  0  0  0  0  0  0
    3.7012    0.5433   -3.2306 H   0  0  0  0  0  0  0  0  0  0  0  0
    2.5950   -0.7182   -5.0471 H   0  0  0  0  0  0  0  0  0  0  0  0
    1.9607   -3.1164   -4.6735 H   0  0  0  0  0  0  0  0  0  0  0  0
    2.4022   -4.1792   -2.5203 H   0  0  0  0  0  0  0  0  0  0  0  0
    2.7389   -4.6171    0.1842 H   0  0  0  0  0  0  0  0  0  0  0  0
    4.4822   -4.7901    0.2351 H   0  0  0  0  0  0  0  0  0  0  0  0
    3.6376   -4.7230    2.5402 H   0  0  0  0  0  0  0  0  0  0  0  0
    5.8541   -3.5764    2.1946 H   0  0  0  0  0  0  0  0  0  0  0  0
    5.8920   -1.8825    3.9613 H   0  0  0  0  0  0  0  0  0  0  0  0
    2.9006   -2.5218    6.1958 H   0  0  0  0  0  0  0  0  0  0  0  0
    3.8648   -1.1422    5.7101 H   0  0  0  0  0  0  0  0  0  0  0  0
    1.7989   -0.6042    4.7078 H   0  0  0  0  0  0  0  0  0  0  0  0
    0.8825   -3.0715    5.3305 H   0  0  0  0  0  0  0  0  0  0  0  0
    0.1056   -2.1237    4.0509 H   0  0  0  0  0  0  0  0  0  0  0  0
    1.8166   -2.7981    1.3812 H   0  0  0  0  0  0  0  0  0  0  0  0
    2.1335   -0.3351    1.0704 H   0  0  0  0  0  0  0  0  0  0  0  0
    1.8475    0.5506    2.5650 H   0  0  0  0  0  0  0  0  0  0  0  0
    0.7623   -0.7383    2.0938 H   0  0  0  0  0  0  0  0  0  0  0  0
    3.9043    0.5738    4.1865 H   0  0  0  0  0  0  0  0  0  0  0  0
    4.1358    0.9353    2.4791 H   0  0  0  0  0  0  0  0  0  0  0  0
    5.5046    0.4736    3.4815 H   0  0  0  0  0  0  0  0  0  0  0  0
  2  1  1  6
  1 28  1  0
  1 29  1  0
  1 30  1  0
  2 14  1  0
  2 25  1  0
  2  3  1  0
  3 11  2  0
  3  4  1  0
  4 27  1  0
  4  5  1  0
  5 10  2  0
  5  6  1  0
  6  7  2  0
  6 31  1  0
  7  8  1  0
  7 32  1  0
  8  9  2  0
  8 33  1  0
  9 10  1  0
  9 34  1  0
 10 11  1  0
 11 12  1  0
 12 13  1  0
 12 35  1  0
 12 36  1  0
 13 22  1  0
 13 14  1  0
 13 37  1  1
 14 15  1  0
 14 38  1  1
 15 25  1  0
 15 16  1  0
 15 39  1  1
 16 17  1  0
 17 18  1  0
 17 40  1  0
 17 41  1  0
 18 23  1  0
 18 19  1  0
 18 42  1  1
 19 20  1  0
 19 43  1  0
 19 44  1  0
 20 21  2  0
 20 22  1  0
 22 23  1  0
 22 45  1  6
 23 24  1  6
 23 25  1  0
 24 46  1  0
 24 47  1  0
 24 48  1  0
 25 26  1  1
 26 49  1  0
 26 50  1  0
 26 51  1  0
M  END
>  <i_m_ct_stereo_status>  (295) 
1

>  <s_m_source_file>  (295) 
/var/tmp/pbs.5076255.sched01/tmp0eyfkrct/966b1hsbd3.sdf

>  <i_m_source_file_index>  (295) 
39

>  <i_lp_mmshare_version>  (295) 
48012

>  <i_f3d_flags>  (295) 
0

>  <s_epik_input>  (295) 
W2NIXTFbY0hdW2NIXVtjSF1jKFtuSF0yKWMxYyhjMltDQF0zNFtDSDNdKVtDSDJdW0NASF01W0NAQEhdM1tDQEhdNltDQF00KFtDSDNdKVtDQF03KFtDSDNdKVtDQEhdKFtDSDJdTzYpW0NIMl1DKD1PKVtDQEhdNTc=

>  <s_epik_cmdline>  (295) 
J2VwaWtfcHl0aG9uJywgJy1waHQnLCAnMi4wJywgJy1waCcsICc3LjAnLCAnLXRuJywgJzgnLCAnLW1hJywgJzIwMCcsICctaW1hZScsICc8aW5maWxlLm1hZT4nLCAnLW9tYWUnLCAnPG91dGZpbGUubWFlPic=

>  <r_lp_tautomer_probability>  (295) 
1

>  <r_epik_Ionization_Penalty>  (295) 
1.52029e-07

>  <r_epik_Ionization_Penalty_Charging>  (295) 
0

>  <r_epik_Ionization_Penalty_Neutral>  (295) 
1.52029e-07

>  <r_epik_State_Penalty>  (295) 
-0

>  <r_epik_Charging_Adjusted_Penalty>  (295) 
0

>  <i_epik_Tot_Q>  (295) 
0

>  <i_epik_Tot_abs_Q>  (295) 
0

>  <s_lp_Force_Field>  (295) 
OPLS3e

>  <r_lp_Energy>  (295) 
57.0984

>  <b_lp_Chiralities_Consistent>  (295) 
1

>  <s_lp_Variant>  (295) 
88:0-1

>  <s_i_glide_gridfile>  (295) 
pfpi4k_grid

>  <i_i_glide_lignum>  (295) 
39

>  <i_i_glide_rotatable_bonds>  (295) 
0

>  <r_i_docking_score>  (295) 
-3.58441

>  <r_i_glide_ligand_efficiency>  (295) 
-0.137862

>  <r_i_glide_ligand_efficiency_sa>  (295) 
-0.408415

>  <r_i_glide_ligand_efficiency_ln>  (295) 
-0.841787

>  <r_i_glide_gscore>  (295) 
-3.58441

>  <r_i_glide_lipo>  (295) 
-0.603131

>  <r_i_glide_hbond>  (295) 
-0.32

>  <r_i_glide_metal>  (295) 
-0

>  <r_i_glide_rewards>  (295) 
-1.0698

>  <r_i_glide_evdw>  (295) 
-16.7532

>  <r_i_glide_ecoul>  (295) 
-4.78758

>  <r_i_glide_erotb>  (295) 
0

>  <r_i_glide_esite>  (295) 
-0.0356782

>  <r_i_glide_emodel>  (295) 
-26.2244

>  <r_i_glide_energy>  (295) 
-21.5408

>  <r_i_glide_einternal>  (295) 
0

>  <r_i_glide_intrahb_reward>  (295) 
-0

>  <i_i_glide_confnum>  (295) 
2

>  <i_i_glide_posenum>  (295) 
24

>  <r_i_glide_eff_state_penalty>  (295) 
0

>  <ligand_id>  (295) 
88

>  <original_smiles>  (295) 
CC12c3[nH]c4ccccc4c3CC3C1C1OCC4CC(=O)C3C4(C)C12C

>  <smiles>  (295) 
[H]c1c([H])c([H])c2c(c1[H])c1c(n2[H])C2(C([H])([H])[H])C3([H])C4([H])OC([H])([H])C5([H])C([H])([H])C(=O)C([H])(C3([H])C1([H])[H])C5(C([H])([H])[H])C42C([H])([H])[H]

$$$$
88:0:1
     RDKit          3D

 51 57  0  0  1  0  0  0  0  0999 V2000
    5.4964   -3.7589    2.3337 C   0  0  0  0  0  0  0  0  0  0  0  0
    4.8405   -2.9213    1.2149 C   0  0  1  0  0  0  0  0  0  0  0  0
    3.7232   -2.1125    1.8368 C   0  0  0  0  0  0  0  0  0  0  0  0
    2.7112   -2.6002    2.6454 N   0  0  0  0  0  0  0  0  0  0  0  0
    1.8880   -1.5731    3.0802 C   0  0  0  0  0  0  0  0  0  0  0  0
    0.7545   -1.5493    3.9141 C   0  0  0  0  0  0  0  0  0  0  0  0
    0.1104   -0.3303    4.1914 C   0  0  0  0  0  0  0  0  0  0  0  0
    0.6043    0.8598    3.6289 C   0  0  0  0  0  0  0  0  0  0  0  0
    1.7409    0.8288    2.7893 C   0  0  0  0  0  0  0  0  0  0  0  0
    2.4133   -0.3827    2.4927 C   0  0  0  0  0  0  0  0  0  0  0  0
    3.5609   -0.7571    1.7113 C   0  0  0  0  0  0  0  0  0  0  0  0
    4.4556    0.0692    0.8535 C   0  0  0  0  0  0  0  0  0  0  0  0
    5.0417   -0.8164   -0.2696 C   0  0  1  0  0  0  0  0  0  0  0  0
    5.7764   -1.9989    0.3929 C   0  0  2  0  0  0  0  0  0  0  0  0
    6.0923   -3.2103   -0.4740 C   0  0  2  0  0  0  0  0  0  0  0  0
    6.3945   -2.8295   -1.8150 O   0  0  0  0  0  0  0  0  0  0  0  0
    5.6509   -3.5757   -2.7668 C   0  0  0  0  0  0  0  0  0  0  0  0
    4.1488   -3.2555   -2.6920 C   0  0  2  0  0  0  0  0  0  0  0  0
    3.7759   -2.0782   -3.5856 C   0  0  0  0  0  0  0  0  0  0  0  0
    3.9831   -0.9225   -2.6639 C   0  0  0  0  0  0  0  0  0  0  0  0
    4.2106    0.1993   -3.0923 O   0  0  0  0  0  0  0  0  0  0  0  0
    3.8838   -1.3398   -1.1908 C   0  0  1  0  0  0  0  0  0  0  0  0
    3.7067   -2.9024   -1.2350 C   0  0  1  0  0  0  0  0  0  0  0  0
    2.2181   -3.2521   -1.0569 C   0  0  0  0  0  0  0  0  0  0  0  0
    4.6325   -3.6031   -0.1895 C   0  0  2  0  0  0  0  0  0  0  0  0
    4.3611   -5.1070   -0.1293 C   0  0  0  0  0  0  0  0  0  0  0  0
    2.6240   -3.5813    2.8768 H   0  0  0  0  0  0  0  0  0  0  0  0
    6.3803   -4.3098    2.0069 H   0  0  0  0  0  0  0  0  0  0  0  0
    4.7982   -4.4998    2.7251 H   0  0  0  0  0  0  0  0  0  0  0  0
    5.8091   -3.1332    3.1732 H   0  0  0  0  0  0  0  0  0  0  0  0
    0.3890   -2.4711    4.3334 H   0  0  0  0  0  0  0  0  0  0  0  0
   -0.7557   -0.3067    4.8314 H   0  0  0  0  0  0  0  0  0  0  0  0
    0.1168    1.8044    3.8351 H   0  0  0  0  0  0  0  0  0  0  0  0
    2.1050    1.7537    2.3630 H   0  0  0  0  0  0  0  0  0  0  0  0
    3.9025    0.9284    0.4971 H   0  0  0  0  0  0  0  0  0  0  0  0
    5.2721    0.4533    1.4504 H   0  0  0  0  0  0  0  0  0  0  0  0
    5.7662   -0.2608   -0.8653 H   0  0  0  0  0  0  0  0  0  0  0  0
    6.6397   -1.6915    0.9833 H   0  0  0  0  0  0  0  0  0  0  0  0
    6.8350   -3.8859   -0.0502 H   0  0  0  0  0  0  0  0  0  0  0  0
    6.0380   -3.3983   -3.7663 H   0  0  0  0  0  0  0  0  0  0  0  0
    5.7568   -4.6348   -2.5710 H   0  0  0  0  0  0  0  0  0  0  0  0
    3.6082   -4.1134   -3.0760 H   0  0  0  0  0  0  0  0  0  0  0  0
    4.3992   -1.9782   -4.4754 H   0  0  0  0  0  0  0  0  0  0  0  0
    2.7232   -2.0893   -3.8699 H   0  0  0  0  0  0  0  0  0  0  0  0
    2.9636   -0.8865   -0.8301 H   0  0  0  0  0  0  0  0  0  0  0  0
    1.8650   -2.9880   -0.0593 H   0  0  0  0  0  0  0  0  0  0  0  0
    2.0163   -4.3075   -1.2234 H   0  0  0  0  0  0  0  0  0  0  0  0
    1.6295   -2.7077   -1.7968 H   0  0  0  0  0  0  0  0  0  0  0  0
    4.3239   -5.5532   -1.1161 H   0  0  0  0  0  0  0  0  0  0  0  0
    3.4256   -5.3338    0.3792 H   0  0  0  0  0  0  0  0  0  0  0  0
    5.1483   -5.6433    0.3950 H   0  0  0  0  0  0  0  0  0  0  0  0
  2  1  1  1
  1 28  1  0
  1 29  1  0
  1 30  1  0
  2 14  1  0
  2 25  1  0
  2  3  1  0
  3 11  2  0
  3  4  1  0
  4 27  1  0
  4  5  1  0
  5 10  2  0
  5  6  1  0
  6  7  2  0
  6 31  1  0
  7  8  1  0
  7 32  1  0
  8  9  2  0
  8 33  1  0
  9 10  1  0
  9 34  1  0
 10 11  1  0
 11 12  1  0
 12 13  1  0
 12 35  1  0
 12 36  1  0
 13 22  1  0
 13 14  1  0
 13 37  1  6
 14 15  1  0
 14 38  1  1
 15 25  1  0
 15 16  1  0
 15 39  1  1
 16 17  1  0
 17 18  1  0
 17 40  1  0
 17 41  1  0
 18 23  1  0
 18 19  1  0
 18 42  1  6
 19 20  1  0
 19 43  1  0
 19 44  1  0
 20 21  2  0
 20 22  1  0
 22 23  1  0
 22 45  1  1
 23 24  1  1
 23 25  1  0
 24 46  1  0
 24 47  1  0
 24 48  1  0
 25 26  1  1
 26 49  1  0
 26 50  1  0
 26 51  1  0
M  END
>  <i_m_ct_stereo_status>  (296) 
1

>  <s_m_source_file>  (296) 
/var/tmp/pbs.5076255.sched01/tmp0eyfkrct/966b1hsbd3.sdf

>  <i_m_source_file_index>  (296) 
39

>  <i_lp_mmshare_version>  (296) 
48012

>  <i_f3d_flags>  (296) 
0

>  <s_epik_input>  (296) 
W2NIXTFbY0hdW2NIXVtjSF1jKFtuSF0yKWMxYyhjMltDQF0zNFtDSDNdKVtDSDJdW0NASF01W0NAQEhdM1tDQEhdNltDQF00KFtDSDNdKVtDQF03KFtDSDNdKVtDQEhdKFtDSDJdTzYpW0NIMl1DKD1PKVtDQEhdNTc=

>  <s_epik_cmdline>  (296) 
J2VwaWtfcHl0aG9uJywgJy1waHQnLCAnMi4wJywgJy1waCcsICc3LjAnLCAnLXRuJywgJzgnLCAnLW1hJywgJzIwMCcsICctaW1hZScsICc8aW5maWxlLm1hZT4nLCAnLW9tYWUnLCAnPG91dGZpbGUubWFlPic=

>  <r_lp_tautomer_probability>  (296) 
1

>  <r_epik_Ionization_Penalty>  (296) 
1.52029e-07

>  <r_epik_Ionization_Penalty_Charging>  (296) 
0

>  <r_epik_Ionization_Penalty_Neutral>  (296) 
1.52029e-07

>  <r_epik_State_Penalty>  (296) 
-0

>  <r_epik_Charging_Adjusted_Penalty>  (296) 
0

>  <i_epik_Tot_Q>  (296) 
0

>  <i_epik_Tot_abs_Q>  (296) 
0

>  <s_lp_Force_Field>  (296) 
OPLS3e

>  <r_lp_Energy>  (296) 
57.0984

>  <b_lp_Chiralities_Consistent>  (296) 
1

>  <s_lp_Variant>  (296) 
88:0-1

>  <s_i_glide_gridfile>  (296) 
pfpi4k_grid

>  <i_i_glide_lignum>  (296) 
39

>  <i_i_glide_rotatable_bonds>  (296) 
0

>  <r_i_docking_score>  (296) 
-2.99009

>  <r_i_glide_ligand_efficiency>  (296) 
-0.115004

>  <r_i_glide_ligand_efficiency_sa>  (296) 
-0.340698

>  <r_i_glide_ligand_efficiency_ln>  (296) 
-0.702214

>  <r_i_glide_gscore>  (296) 
-2.99009

>  <r_i_glide_lipo>  (296) 
-0.703716

>  <r_i_glide_hbond>  (296) 
0

>  <r_i_glide_metal>  (296) 
-0

>  <r_i_glide_rewards>  (296) 
-1.04018

>  <r_i_glide_evdw>  (296) 
-24.1882

>  <r_i_glide_ecoul>  (296) 
-0.226429

>  <r_i_glide_erotb>  (296) 
0

>  <r_i_glide_esite>  (296) 
-0.0028267

>  <r_i_glide_emodel>  (296) 
-28.2065

>  <r_i_glide_energy>  (296) 
-24.4146

>  <r_i_glide_einternal>  (296) 
0

>  <r_i_glide_intrahb_reward>  (296) 
-0

>  <i_i_glide_confnum>  (296) 
1

>  <i_i_glide_posenum>  (296) 
1

>  <r_i_glide_eff_state_penalty>  (296) 
0

>  <ligand_id>  (296) 
88

>  <original_smiles>  (296) 
CC12c3[nH]c4ccccc4c3CC3C1C1OCC4CC(=O)C3C4(C)C12C

>  <smiles>  (296) 
[H]c1c([H])c([H])c2c(c1[H])c1c(n2[H])C2(C([H])([H])[H])C3([H])C4([H])OC([H])([H])C5([H])C([H])([H])C(=O)C([H])(C3([H])C1([H])[H])C5(C([H])([H])[H])C42C([H])([H])[H]

$$$$
88:0:2
     RDKit          3D

 51 57  0  0  1  0  0  0  0  0999 V2000
    4.8047   -4.6308   -0.6274 C   0  0  0  0  0  0  0  0  0  0  0  0
    4.3630   -4.1088    0.7542 C   0  0  1  0  0  0  0  0  0  0  0  0
    3.2966   -5.0474    1.2884 C   0  0  0  0  0  0  0  0  0  0  0  0
    2.1673   -5.4591    0.5995 N   0  0  0  0  0  0  0  0  0  0  0  0
    1.4229   -6.3393    1.3714 C   0  0  0  0  0  0  0  0  0  0  0  0
    0.2113   -7.0125    1.1358 C   0  0  0  0  0  0  0  0  0  0  0  0
   -0.3111   -7.8738    2.1176 C   0  0  0  0  0  0  0  0  0  0  0  0
    0.3703   -8.0400    3.3362 C   0  0  0  0  0  0  0  0  0  0  0  0
    1.5729   -7.3438    3.5745 C   0  0  0  0  0  0  0  0  0  0  0  0
    2.1317   -6.4768    2.6008 C   0  0  0  0  0  0  0  0  0  0  0  0
    3.2975   -5.6412    2.5266 C   0  0  0  0  0  0  0  0  0  0  0  0
    4.3534   -5.3535    3.5535 C   0  0  0  0  0  0  0  0  0  0  0  0
    4.9555   -3.9601    3.2680 C   0  0  1  0  0  0  0  0  0  0  0  0
    5.4754   -3.9140    1.8160 C   0  0  2  0  0  0  0  0  0  0  0  0
    5.7222   -2.5475    1.1842 C   0  0  2  0  0  0  0  0  0  0  0  0
    6.1994   -1.5949    2.1267 O   0  0  0  0  0  0  0  0  0  0  0  0
    5.4759   -0.3749    2.1128 C   0  0  0  0  0  0  0  0  0  0  0  0
    4.0147   -0.5884    2.5806 C   0  0  2  0  0  0  0  0  0  0  0  0
    3.8932   -0.4704    4.1078 C   0  0  0  0  0  0  0  0  0  0  0  0
    4.1379   -1.8839    4.5744 C   0  0  0  0  0  0  0  0  0  0  0  0
    4.5151   -2.1832    5.7059 O   0  0  0  0  0  0  0  0  0  0  0  0
    3.8326   -2.8817    3.4674 C   0  0  1  0  0  0  0  0  0  0  0  0
    3.4770   -2.0079    2.2076 C   0  0  1  0  0  0  0  0  0  0  0  0
    1.9424   -1.9531    2.0583 C   0  0  0  0  0  0  0  0  0  0  0  0
    4.2041   -2.5479    0.9312 C   0  0  2  0  0  0  0  0  0  0  0  0
    3.7522   -1.7848   -0.3281 C   0  0  0  0  0  0  0  0  0  0  0  0
    1.9760   -5.1519   -0.3438 H   0  0  0  0  0  0  0  0  0  0  0  0
    5.6484   -4.0872   -1.0545 H   0  0  0  0  0  0  0  0  0  0  0  0
    3.9963   -4.5469   -1.3522 H   0  0  0  0  0  0  0  0  0  0  0  0
    5.0970   -5.6828   -0.5885 H   0  0  0  0  0  0  0  0  0  0  0  0
   -0.2985   -6.9177    0.1933 H   0  0  0  0  0  0  0  0  0  0  0  0
   -1.2157   -8.4335    1.9239 H   0  0  0  0  0  0  0  0  0  0  0  0
   -0.0201   -8.7202    4.0828 H   0  0  0  0  0  0  0  0  0  0  0  0
    2.0897   -7.4869    4.5108 H   0  0  0  0  0  0  0  0  0  0  0  0
    3.9346   -5.3880    4.5578 H   0  0  0  0  0  0  0  0  0  0  0  0
    5.1315   -6.1155    3.5127 H   0  0  0  0  0  0  0  0  0  0  0  0
    5.7845   -3.7909    3.9587 H   0  0  0  0  0  0  0  0  0  0  0  0
    6.3059   -4.5998    1.6424 H   0  0  0  0  0  0  0  0  0  0  0  0
    6.3372   -2.5651    0.2857 H   0  0  0  0  0  0  0  0  0  0  0  0
    5.9768    0.3306    2.7747 H   0  0  0  0  0  0  0  0  0  0  0  0
    5.5137    0.0459    1.1071 H   0  0  0  0  0  0  0  0  0  0  0  0
    3.4031    0.1925    2.1218 H   0  0  0  0  0  0  0  0  0  0  0  0
    4.5904    0.2432    4.5494 H   0  0  0  0  0  0  0  0  0  0  0  0
    2.8810   -0.1854    4.3938 H   0  0  0  0  0  0  0  0  0  0  0  0
    2.9297   -3.3894    3.8020 H   0  0  0  0  0  0  0  0  0  0  0  0
    1.5409   -2.9315    1.8090 H   0  0  0  0  0  0  0  0  0  0  0  0
    1.6343   -1.2522    1.2814 H   0  0  0  0  0  0  0  0  0  0  0  0
    1.4594   -1.6346    2.9827 H   0  0  0  0  0  0  0  0  0  0  0  0
    3.7256   -0.7037   -0.1857 H   0  0  0  0  0  0  0  0  0  0  0  0
    2.7620   -2.1054   -0.6502 H   0  0  0  0  0  0  0  0  0  0  0  0
    4.4255   -1.9677   -1.1676 H   0  0  0  0  0  0  0  0  0  0  0  0
  2  1  1  6
  1 28  1  0
  1 29  1  0
  1 30  1  0
  2 14  1  0
  2 25  1  0
  2  3  1  0
  3 11  2  0
  3  4  1  0
  4 27  1  0
  4  5  1  0
  5 10  2  0
  5  6  1  0
  6  7  2  0
  6 31  1  0
  7  8  1  0
  7 32  1  0
  8  9  2  0
  8 33  1  0
  9 10  1  0
  9 34  1  0
 10 11  1  0
 11 12  1  0
 12 13  1  0
 12 35  1  0
 12 36  1  0
 13 22  1  0
 13 14  1  0
 13 37  1  1
 14 15  1  0
 14 38  1  1
 15 25  1  0
 15 16  1  0
 15 39  1  6
 16 17  1  0
 17 18  1  0
 17 40  1  0
 17 41  1  0
 18 23  1  0
 18 19  1  0
 18 42  1  6
 19 20  1  0
 19 43  1  0
 19 44  1  0
 20 21  2  0
 20 22  1  0
 22 23  1  0
 22 45  1  1
 23 24  1  6
 23 25  1  0
 24 46  1  0
 24 47  1  0
 24 48  1  0
 25 26  1  6
 26 49  1  0
 26 50  1  0
 26 51  1  0
M  END
>  <i_m_ct_stereo_status>  (297) 
1

>  <s_m_source_file>  (297) 
/var/tmp/pbs.5076255.sched01/tmp0eyfkrct/966b1hsbd3.sdf

>  <i_m_source_file_index>  (297) 
39

>  <i_lp_mmshare_version>  (297) 
48012

>  <i_f3d_flags>  (297) 
0

>  <s_epik_input>  (297) 
W2NIXTFbY0hdW2NIXVtjSF1jKFtuSF0yKWMxYyhjMltDQF0zNFtDSDNdKVtDSDJdW0NASF01W0NAQEhdM1tDQEhdNltDQF00KFtDSDNdKVtDQF03KFtDSDNdKVtDQEhdKFtDSDJdTzYpW0NIMl1DKD1PKVtDQEhdNTc=

>  <s_epik_cmdline>  (297) 
J2VwaWtfcHl0aG9uJywgJy1waHQnLCAnMi4wJywgJy1waCcsICc3LjAnLCAnLXRuJywgJzgnLCAnLW1hJywgJzIwMCcsICctaW1hZScsICc8aW5maWxlLm1hZT4nLCAnLW9tYWUnLCAnPG91dGZpbGUubWFlPic=

>  <r_lp_tautomer_probability>  (297) 
1

>  <r_epik_Ionization_Penalty>  (297) 
1.52029e-07

>  <r_epik_Ionization_Penalty_Charging>  (297) 
0

>  <r_epik_Ionization_Penalty_Neutral>  (297) 
1.52029e-07

>  <r_epik_State_Penalty>  (297) 
-0

>  <r_epik_Charging_Adjusted_Penalty>  (297) 
0

>  <i_epik_Tot_Q>  (297) 
0

>  <i_epik_Tot_abs_Q>  (297) 
0

>  <s_lp_Force_Field>  (297) 
OPLS3e

>  <r_lp_Energy>  (297) 
57.0984

>  <b_lp_Chiralities_Consistent>  (297) 
1

>  <s_lp_Variant>  (297) 
88:0-1

>  <s_i_glide_gridfile>  (297) 
pfpi4k_grid

>  <i_i_glide_lignum>  (297) 
39

>  <i_i_glide_rotatable_bonds>  (297) 
0

>  <r_i_docking_score>  (297) 
-2.64384

>  <r_i_glide_ligand_efficiency>  (297) 
-0.101686

>  <r_i_glide_ligand_efficiency_sa>  (297) 
-0.301245

>  <r_i_glide_ligand_efficiency_ln>  (297) 
-0.620898

>  <r_i_glide_gscore>  (297) 
-2.64384

>  <r_i_glide_lipo>  (297) 
-0.300387

>  <r_i_glide_hbond>  (297) 
0

>  <r_i_glide_metal>  (297) 
-0

>  <r_i_glide_rewards>  (297) 
-1.04158

>  <r_i_glide_evdw>  (297) 
-20.2566

>  <r_i_glide_ecoul>  (297) 
-1.54826

>  <r_i_glide_erotb>  (297) 
0

>  <r_i_glide_esite>  (297) 
-0.0568085

>  <r_i_glide_emodel>  (297) 
-25.2402

>  <r_i_glide_energy>  (297) 
-21.8049

>  <r_i_glide_einternal>  (297) 
0

>  <r_i_glide_intrahb_reward>  (297) 
-0

>  <i_i_glide_confnum>  (297) 
1

>  <i_i_glide_posenum>  (297) 
3

>  <r_i_glide_eff_state_penalty>  (297) 
0

>  <ligand_id>  (297) 
88

>  <original_smiles>  (297) 
CC12c3[nH]c4ccccc4c3CC3C1C1OCC4CC(=O)C3C4(C)C12C

>  <smiles>  (297) 
[H]c1c([H])c([H])c2c(c1[H])c1c(n2[H])C2(C([H])([H])[H])C3([H])C4([H])OC([H])([H])C5([H])C([H])([H])C(=O)C([H])(C3([H])C1([H])[H])C5(C([H])([H])[H])C42C([H])([H])[H]

$$$$
89:0:0
     RDKit          3D

 72 79  0  0  1  0  0  0  0  0999 V2000
    1.4451    1.4784    2.4530 C   0  0  0  0  0  0  0  0  0  0  0  0
    1.9412    0.6691    3.6709 C   0  0  0  0  0  0  0  0  0  0  0  0
    2.3482   -0.8170    3.4187 C   0  0  1  0  0  0  0  0  0  0  0  0
    1.0768   -1.5953    2.9855 C   0  0  0  0  0  0  0  0  0  0  0  0
    3.5019   -0.8397    2.3291 C   0  0  2  0  0  0  0  0  0  0  0  0
    3.2463   -1.1177    0.8319 C   0  0  1  0  0  0  0  0  0  0  0  0
    4.2789   -0.3337   -0.0044 C   0  0  0  0  0  0  0  0  0  0  0  0
    5.6420   -0.9612    0.3596 C   0  0  0  0  0  0  0  0  0  0  0  0
    5.2314   -2.2195    1.1128 C   0  0  2  0  0  0  0  0  0  0  0  0
    6.3161   -3.3075    1.1035 C   0  0  0  0  0  0  0  0  0  0  0  0
    6.3743   -4.5164    0.5266 C   0  0  0  0  0  0  0  0  0  0  0  0
    5.2978   -5.0353   -0.2131 N   0  0  0  0  0  0  0  0  0  0  0  0
    4.2049   -5.3584    0.3199 N   0  0  0  0  0  0  0  0  0  0  0  0
    3.9859   -5.6832    1.7652 C   0  0  2  0  0  0  0  0  0  0  0  0
    5.1778   -6.4589    2.4341 C   0  0  0  0  0  0  0  0  0  0  0  0
    4.4773   -7.5742    3.1639 C   0  0  0  0  0  0  0  0  0  0  0  0
    3.2177   -7.7178    2.8011 C   0  0  0  0  0  0  0  0  0  0  0  0
    2.7972   -6.6990    1.7840 C   0  0  0  0  0  0  0  0  0  0  0  0
    2.3642   -8.8094    3.3098 C   0  0  0  0  0  0  0  0  0  0  0  0
    1.1583   -9.1822    2.6877 C   0  0  0  0  0  0  0  0  0  0  0  0
    0.4562  -10.3214    3.1386 C   0  0  0  0  0  0  0  0  0  0  0  0
    0.9527  -11.0882    4.2125 C   0  0  0  0  0  0  0  0  0  0  0  0
    2.1436  -10.7110    4.8585 C   0  0  0  0  0  0  0  0  0  0  0  0
    2.8546   -9.5745    4.4048 C   0  0  0  0  0  0  0  0  0  0  0  0
    4.1552   -9.1675    5.0930 C   0  0  0  0  0  0  0  0  0  0  0  0
    5.1735   -8.5125    4.1282 C   0  0  0  0  0  0  0  0  0  0  0  0
    3.6247   -4.3896    2.5728 C   0  0  0  0  0  0  0  0  0  0  0  0
    3.2209   -4.5295    3.7219 O   0  0  0  0  0  0  0  0  0  0  0  0
    3.5810   -3.0651    2.0675 N   0  0  0  0  0  0  0  0  0  0  0  0
    3.7863   -2.5193    0.7374 C   0  0  1  0  0  0  0  0  0  0  0  0
    4.4826   -1.9840    2.4636 C   0  0  2  0  0  0  0  0  0  0  0  0
    5.1205   -2.0214    3.8441 C   0  0  0  0  0  0  0  0  0  0  0  0
    4.2910   -1.2988    4.9142 C   0  0  0  0  0  0  0  0  0  0  0  0
    2.8439   -1.4680    4.6791 N   0  0  1  0  0  0  0  0  0  0  0  0
    2.0774   -1.1788    5.9045 C   0  0  0  0  0  0  0  0  0  0  0  0
    1.1891    2.4900    2.7688 H   0  0  0  0  0  0  0  0  0  0  0  0
    0.5433    1.0570    2.0103 H   0  0  0  0  0  0  0  0  0  0  0  0
    2.2029    1.5732    1.6780 H   0  0  0  0  0  0  0  0  0  0  0  0
    2.7772    1.2097    4.1116 H   0  0  0  0  0  0  0  0  0  0  0  0
    1.1385    0.7215    4.4008 H   0  0  0  0  0  0  0  0  0  0  0  0
    0.6898   -1.2607    2.0168 H   0  0  0  0  0  0  0  0  0  0  0  0
    0.2602   -1.4685    3.6932 H   0  0  0  0  0  0  0  0  0  0  0  0
    1.2319   -2.6720    2.9155 H   0  0  0  0  0  0  0  0  0  0  0  0
    4.0533    0.1011    2.4255 H   0  0  0  0  0  0  0  0  0  0  0  0
    2.2246   -0.9911    0.5113 H   0  0  0  0  0  0  0  0  0  0  0  0
    4.0841   -0.5064   -1.0624 H   0  0  0  0  0  0  0  0  0  0  0  0
    4.2194    0.7372    0.1928 H   0  0  0  0  0  0  0  0  0  0  0  0
    6.2354   -1.1627   -0.5296 H   0  0  0  0  0  0  0  0  0  0  0  0
    6.2082   -0.2804    0.9906 H   0  0  0  0  0  0  0  0  0  0  0  0
    7.2119   -3.0074    1.6195 H   0  0  0  0  0  0  0  0  0  0  0  0
    7.3027   -5.0866    0.6099 H   0  0  0  0  0  0  0  0  0  0  0  0
    5.8760   -6.8989    1.7222 H   0  0  0  0  0  0  0  0  0  0  0  0
    5.7167   -5.8361    3.1492 H   0  0  0  0  0  0  0  0  0  0  0  0
    1.8488   -6.2366    2.0468 H   0  0  0  0  0  0  0  0  0  0  0  0
    2.6671   -7.2325    0.8509 H   0  0  0  0  0  0  0  0  0  0  0  0
    0.7772   -8.6330    1.8352 H   0  0  0  0  0  0  0  0  0  0  0  0
   -0.4571  -10.6208    2.6437 H   0  0  0  0  0  0  0  0  0  0  0  0
    0.4131  -11.9641    4.5530 H   0  0  0  0  0  0  0  0  0  0  0  0
    2.5124  -11.3114    5.6887 H   0  0  0  0  0  0  0  0  0  0  0  0
    3.8856   -8.4388    5.8589 H   0  0  0  0  0  0  0  0  0  0  0  0
    4.5996  -10.0149    5.6234 H   0  0  0  0  0  0  0  0  0  0  0  0
    5.6069   -9.2925    3.5042 H   0  0  0  0  0  0  0  0  0  0  0  0
    5.9801   -8.0200    4.6704 H   0  0  0  0  0  0  0  0  0  0  0  0
    3.5963   -3.0633   -0.1711 H   0  0  0  0  0  0  0  0  0  0  0  0
    5.3966   -3.0349    4.1604 H   0  0  0  0  0  0  0  0  0  0  0  0
    6.0472   -1.4665    3.7441 H   0  0  0  0  0  0  0  0  0  0  0  0
    4.5690   -1.7153    5.8721 H   0  0  0  0  0  0  0  0  0  0  0  0
    4.5652   -0.2472    4.9654 H   0  0  0  0  0  0  0  0  0  0  0  0
    2.2401   -0.1650    6.2723 H   0  0  0  0  0  0  0  0  0  0  0  0
    2.3634   -1.8463    6.7174 H   0  0  0  0  0  0  0  0  0  0  0  0
    1.0044   -1.3050    5.7708 H   0  0  0  0  0  0  0  0  0  0  0  0
    2.7162   -2.4507    4.5214 H   0  0  0  0  0  0  0  0  0  0  0  0
  1  2  1  0
  1 36  1  0
  1 37  1  0
  1 38  1  0
  3  2  1  1
  2 39  1  0
  2 40  1  0
  3 34  1  0
  3  4  1  0
  3  5  1  0
  4 41  1  0
  4 42  1  0
  4 43  1  0
  5 31  1  0
  5  6  1  0
  5 44  1  6
  6 30  1  0
  6  7  1  0
  6 45  1  6
  7  8  1  0
  7 46  1  0
  7 47  1  0
  9  8  1  6
  8 48  1  0
  8 49  1  0
  9 30  1  0
  9 31  1  0
  9 10  1  0
 10 11  2  3
 10 50  1  0
 11 12  1  0
 11 51  1  0
 12 13  2  3
 13 14  1  0
 14 18  1  6
 14 15  1  0
 14 27  1  0
 15 16  1  0
 15 52  1  0
 15 53  1  0
 16 26  1  0
 16 17  2  0
 17 18  1  0
 17 19  1  0
 18 54  1  0
 18 55  1  0
 19 24  2  0
 19 20  1  0
 20 21  2  0
 20 56  1  0
 21 22  1  0
 21 57  1  0
 22 23  2  0
 22 58  1  0
 23 24  1  0
 23 59  1  0
 24 25  1  0
 25 26  1  0
 25 60  1  0
 25 61  1  0
 26 62  1  0
 26 63  1  0
 27 28  2  0
 27 29  1  0
 29 30  1  0
 29 31  1  0
 30 64  1  6
 31 32  1  1
 32 33  1  0
 32 65  1  0
 32 66  1  0
 33 34  1  0
 33 67  1  0
 33 68  1  0
 34 35  1  0
 34 72  1  6
 35 69  1  0
 35 70  1  0
 35 71  1  0
M  CHG  1  34   1
M  END
>  <i_m_ct_stereo_status>  (298) 
1

>  <s_m_source_file>  (298) 
/var/tmp/pbs.5076255.sched01/tmp0eyfkrct/966b1hsbd3.sdf

>  <i_m_source_file_index>  (298) 
40

>  <i_lp_mmshare_version>  (298) 
48012

>  <i_f3d_flags>  (298) 
0

>  <s_epik_input>  (298) 
W0NIMl0xW0NIMl1OKFtDSDNdKVtDQEBdKFtDSDNdKShbQ0gyXVtDSDNdKVtDQEBIXShbQ0BAXTEyW0NAQF0zNDUpW0NAQEhdKFtDSDJdW0NIMl0zKVtDQEBIXTVOMkMoPU8pW0NAQF02KFxOPU4vW0NIXT1bQ0hdXDQpW0NIMl1DNz1DKFtDSDJdNiljOGMoW0NIMl1bQ0gyXTcpW2NIXVtjSF1bY0hdW2NIXTg=

>  <s_epik_cmdline>  (298) 
J2VwaWtfcHl0aG9uJywgJy1waHQnLCAnMi4wJywgJy1waCcsICc3LjAnLCAnLXRuJywgJzgnLCAnLW1hJywgJzIwMCcsICctaW1hZScsICc8aW5maWxlLm1hZT4nLCAnLW9tYWUnLCAnPG91dGZpbGUubWFlPic=

>  <r_epik_Ionization_Penalty>  (298) 
0.00122337

>  <r_epik_Ionization_Penalty_Charging>  (298) 
0.00122337

>  <r_epik_Ionization_Penalty_Neutral>  (298) 
1.44336e-10

>  <r_epik_State_Penalty>  (298) 
0.000808394

>  <r_epik_Charging_Adjusted_Penalty>  (298) 
0.00203177

>  <i_epik_Tot_Q>  (298) 
1

>  <i_epik_Tot_abs_Q>  (298) 
1

>  <s_lp_Force_Field>  (298) 
OPLS3e

>  <r_lp_Energy>  (298) 
116.791

>  <b_lp_Chiralities_Consistent>  (298) 
1

>  <s_lp_Variant>  (298) 
89:0-1

>  <s_i_glide_gridfile>  (298) 
pfpi4k_grid

>  <i_i_glide_lignum>  (298) 
40

>  <i_i_glide_rotatable_bonds>  (298) 
1

>  <r_i_docking_score>  (298) 
-2.78953

>  <r_i_glide_ligand_efficiency>  (298) 
-0.0797009

>  <r_i_glide_ligand_efficiency_sa>  (298) 
-0.260707

>  <r_i_glide_ligand_efficiency_ln>  (298) 
-0.612364

>  <r_i_glide_gscore>  (298) 
-2.78953

>  <r_i_glide_lipo>  (298) 
-0.644541

>  <r_i_glide_hbond>  (298) 
0

>  <r_i_glide_metal>  (298) 
-0

>  <r_i_glide_rewards>  (298) 
-0.706993

>  <r_i_glide_evdw>  (298) 
-24.6198

>  <r_i_glide_ecoul>  (298) 
-1.37862

>  <r_i_glide_erotb>  (298) 
0

>  <r_i_glide_esite>  (298) 
-0.00021215

>  <r_i_glide_emodel>  (298) 
-34.6595

>  <r_i_glide_energy>  (298) 
-25.9984

>  <r_i_glide_einternal>  (298) 
0.00273157

>  <r_i_glide_intrahb_reward>  (298) 
-0.5

>  <i_i_glide_confnum>  (298) 
1

>  <i_i_glide_posenum>  (298) 
11

>  <r_i_glide_eff_state_penalty>  (298) 
0

>  <ligand_id>  (298) 
89

>  <original_smiles>  (298) 
CCC1(C)C2C3CCC45C=CN=NC6(CC7=C(C6)c6ccccc6CC7)C(=O)N(C34)C25CCN1C

>  <smiles>  (298) 
[H]C1=C([H])C23C([H])([H])C([H])([H])C4([H])C2([H])N(C(=O)C2(N=N1)C([H])([H])C1=C(C([H])([H])C([H])([H])c5c([H])c([H])c([H])c([H])c51)C2([H])[H])C31C([H])([H])C([H])([H])[N+]([H])(C([H])([H])[H])C(C([H])([H])[H])(C([H])([H])C([H])([H])[H])C41[H]

$$$$
89:0:1
     RDKit          3D

 72 79  0  0  1  0  0  0  0  0999 V2000
   10.5569   -8.1363    8.3561 C   0  0  0  0  0  0  0  0  0  0  0  0
    9.1216   -8.4617    8.7968 C   0  0  0  0  0  0  0  0  0  0  0  0
    8.1062   -8.8454    7.6717 C   0  0  1  0  0  0  0  0  0  0  0  0
    7.8967   -7.6031    6.7598 C   0  0  0  0  0  0  0  0  0  0  0  0
    8.6680  -10.1173    6.8979 C   0  0  2  0  0  0  0  0  0  0  0  0
    9.4363  -10.0065    5.5558 C   0  0  1  0  0  0  0  0  0  0  0  0
   10.4709  -11.1609    5.4916 C   0  0  0  0  0  0  0  0  0  0  0  0
    9.6116  -12.4541    5.4605 C   0  0  0  0  0  0  0  0  0  0  0  0
    8.1999  -11.9308    5.2090 C   0  0  2  0  0  0  0  0  0  0  0  0
    7.2713  -12.9820    4.5821 C   0  0  0  0  0  0  0  0  0  0  0  0
    6.6999  -13.0591    3.3556 C   0  0  0  0  0  0  0  0  0  0  0  0
    6.8790  -12.0655    2.3875 N   0  0  0  0  0  0  0  0  0  0  0  0
    6.3964  -10.9140    2.5116 N   0  0  0  0  0  0  0  0  0  0  0  0
    5.2567  -10.5059    3.4038 C   0  0  2  0  0  0  0  0  0  0  0  0
    4.1200  -11.5818    3.5046 C   0  0  0  0  0  0  0  0  0  0  0  0
    2.8626  -10.7739    3.3030 C   0  0  0  0  0  0  0  0  0  0  0  0
    3.1041   -9.5519    2.8454 C   0  0  0  0  0  0  0  0  0  0  0  0
    4.5790   -9.2953    2.6773 C   0  0  0  0  0  0  0  0  0  0  0  0
    2.0194   -8.6205    2.4896 C   0  0  0  0  0  0  0  0  0  0  0  0
    2.2451   -7.4748    1.6972 C   0  0  0  0  0  0  0  0  0  0  0  0
    1.1618   -6.6871    1.2707 C   0  0  0  0  0  0  0  0  0  0  0  0
   -0.1539   -7.0362    1.6378 C   0  0  0  0  0  0  0  0  0  0  0  0
   -0.3932   -8.1557    2.4549 C   0  0  0  0  0  0  0  0  0  0  0  0
    0.6914   -8.9505    2.8786 C   0  0  0  0  0  0  0  0  0  0  0  0
    0.4475  -10.1825    3.7489 C   0  0  0  0  0  0  0  0  0  0  0  0
    1.4627  -11.3225    3.4923 C   0  0  0  0  0  0  0  0  0  0  0  0
    5.7725  -10.0893    4.8172 C   0  0  0  0  0  0  0  0  0  0  0  0
    4.9704   -9.5578    5.5908 O   0  0  0  0  0  0  0  0  0  0  0  0
    7.1040  -10.1764    5.2814 N   0  0  0  0  0  0  0  0  0  0  0  0
    8.3517  -10.5296    4.6286 C   0  0  1  0  0  0  0  0  0  0  0  0
    7.5926  -11.0463    6.3495 C   0  0  2  0  0  0  0  0  0  0  0  0
    6.6216  -11.5454    7.4293 C   0  0  0  0  0  0  0  0  0  0  0  0
    6.5842  -10.6042    8.6473 C   0  0  0  0  0  0  0  0  0  0  0  0
    6.7554   -9.1791    8.2654 N   0  0  1  0  0  0  0  0  0  0  0  0
    6.2681   -8.2807    9.3442 C   0  0  0  0  0  0  0  0  0  0  0  0
   11.1568   -7.8796    9.2283 H   0  0  0  0  0  0  0  0  0  0  0  0
   10.5992   -7.2774    7.6856 H   0  0  0  0  0  0  0  0  0  0  0  0
   11.0452   -8.9811    7.8713 H   0  0  0  0  0  0  0  0  0  0  0  0
    9.1678   -9.2620    9.5386 H   0  0  0  0  0  0  0  0  0  0  0  0
    8.7695   -7.5832    9.3371 H   0  0  0  0  0  0  0  0  0  0  0  0
    8.7937   -7.3356    6.2092 H   0  0  0  0  0  0  0  0  0  0  0  0
    7.6201   -6.7222    7.3392 H   0  0  0  0  0  0  0  0  0  0  0  0
    7.0938   -7.7393    6.0351 H   0  0  0  0  0  0  0  0  0  0  0  0
    9.2645  -10.6833    7.6163 H   0  0  0  0  0  0  0  0  0  0  0  0
    9.8245   -9.0206    5.2949 H   0  0  0  0  0  0  0  0  0  0  0  0
   11.0279  -11.0854    4.5594 H   0  0  0  0  0  0  0  0  0  0  0  0
   11.1924  -11.1289    6.3094 H   0  0  0  0  0  0  0  0  0  0  0  0
    9.9598  -13.1483    4.6958 H   0  0  0  0  0  0  0  0  0  0  0  0
    9.6775  -12.9684    6.4193 H   0  0  0  0  0  0  0  0  0  0  0  0
    7.0814  -13.8204    5.2308 H   0  0  0  0  0  0  0  0  0  0  0  0
    6.1223  -13.9379    3.1150 H   0  0  0  0  0  0  0  0  0  0  0  0
    4.1551  -12.3508    2.7331 H   0  0  0  0  0  0  0  0  0  0  0  0
    4.0901  -12.0603    4.4861 H   0  0  0  0  0  0  0  0  0  0  0  0
    4.8579   -8.3381    3.1142 H   0  0  0  0  0  0  0  0  0  0  0  0
    4.7884   -9.2516    1.6107 H   0  0  0  0  0  0  0  0  0  0  0  0
    3.2461   -7.2195    1.3759 H   0  0  0  0  0  0  0  0  0  0  0  0
    1.3480   -5.8428    0.6291 H   0  0  0  0  0  0  0  0  0  0  0  0
   -0.9819   -6.4520    1.2756 H   0  0  0  0  0  0  0  0  0  0  0  0
   -1.4041   -8.4311    2.7227 H   0  0  0  0  0  0  0  0  0  0  0  0
    0.5469   -9.8618    4.7885 H   0  0  0  0  0  0  0  0  0  0  0  0
   -0.5798  -10.5376    3.6402 H   0  0  0  0  0  0  0  0  0  0  0  0
    1.1979  -11.8028    2.5517 H   0  0  0  0  0  0  0  0  0  0  0  0
    1.4169  -12.0840    4.2734 H   0  0  0  0  0  0  0  0  0  0  0  0
    8.5250  -10.4203    3.5674 H   0  0  0  0  0  0  0  0  0  0  0  0
    5.6203  -11.7166    7.0309 H   0  0  0  0  0  0  0  0  0  0  0  0
    6.9501  -12.5213    7.7888 H   0  0  0  0  0  0  0  0  0  0  0  0
    5.6233  -10.7488    9.1424 H   0  0  0  0  0  0  0  0  0  0  0  0
    7.3406  -10.8922    9.3795 H   0  0  0  0  0  0  0  0  0  0  0  0
    6.8083   -8.4452   10.2810 H   0  0  0  0  0  0  0  0  0  0  0  0
    5.2093   -8.4627    9.5496 H   0  0  0  0  0  0  0  0  0  0  0  0
    6.3630   -7.2274    9.0798 H   0  0  0  0  0  0  0  0  0  0  0  0
    6.1010   -9.0491    7.4972 H   0  0  0  0  0  0  0  0  0  0  0  0
  1  2  1  0
  1 36  1  0
  1 37  1  0
  1 38  1  0
  3  2  1  1
  2 39  1  0
  2 40  1  0
  3 34  1  0
  3  4  1  0
  3  5  1  0
  4 41  1  0
  4 42  1  0
  4 43  1  0
  5 31  1  0
  5  6  1  0
  5 44  1  1
  6 30  1  0
  6  7  1  0
  6 45  1  6
  7  8  1  0
  7 46  1  0
  7 47  1  0
  9  8  1  1
  8 48  1  0
  8 49  1  0
  9 30  1  0
  9 31  1  0
  9 10  1  0
 10 11  2  3
 10 50  1  0
 11 12  1  0
 11 51  1  0
 12 13  2  3
 13 14  1  0
 14 18  1  6
 14 15  1  0
 14 27  1  0
 15 16  1  0
 15 52  1  0
 15 53  1  0
 16 26  1  0
 16 17  2  0
 17 18  1  0
 17 19  1  0
 18 54  1  0
 18 55  1  0
 19 24  2  0
 19 20  1  0
 20 21  2  0
 20 56  1  0
 21 22  1  0
 21 57  1  0
 22 23  2  0
 22 58  1  0
 23 24  1  0
 23 59  1  0
 24 25  1  0
 25 26  1  0
 25 60  1  0
 25 61  1  0
 26 62  1  0
 26 63  1  0
 27 28  2  0
 27 29  1  0
 29 30  1  0
 29 31  1  0
 30 64  1  6
 31 32  1  1
 32 33  1  0
 32 65  1  0
 32 66  1  0
 33 34  1  0
 33 67  1  0
 33 68  1  0
 34 35  1  0
 34 72  1  6
 35 69  1  0
 35 70  1  0
 35 71  1  0
M  CHG  1  34   1
M  END
>  <i_m_ct_stereo_status>  (299) 
1

>  <s_m_source_file>  (299) 
/var/tmp/pbs.5076255.sched01/tmp0eyfkrct/966b1hsbd3.sdf

>  <i_m_source_file_index>  (299) 
40

>  <i_lp_mmshare_version>  (299) 
48012

>  <i_f3d_flags>  (299) 
0

>  <s_epik_input>  (299) 
W0NIMl0xW0NIMl1OKFtDSDNdKVtDQEBdKFtDSDNdKShbQ0gyXVtDSDNdKVtDQEBIXShbQ0BAXTEyW0NAQF0zNDUpW0NAQEhdKFtDSDJdW0NIMl0zKVtDQEBIXTVOMkMoPU8pW0NAQF02KFxOPU4vW0NIXT1bQ0hdXDQpW0NIMl1DNz1DKFtDSDJdNiljOGMoW0NIMl1bQ0gyXTcpW2NIXVtjSF1bY0hdW2NIXTg=

>  <s_epik_cmdline>  (299) 
J2VwaWtfcHl0aG9uJywgJy1waHQnLCAnMi4wJywgJy1waCcsICc3LjAnLCAnLXRuJywgJzgnLCAnLW1hJywgJzIwMCcsICctaW1hZScsICc8aW5maWxlLm1hZT4nLCAnLW9tYWUnLCAnPG91dGZpbGUubWFlPic=

>  <r_epik_Ionization_Penalty>  (299) 
0.00122337

>  <r_epik_Ionization_Penalty_Charging>  (299) 
0.00122337

>  <r_epik_Ionization_Penalty_Neutral>  (299) 
1.44336e-10

>  <r_epik_State_Penalty>  (299) 
0.000808394

>  <r_epik_Charging_Adjusted_Penalty>  (299) 
0.00203177

>  <i_epik_Tot_Q>  (299) 
1

>  <i_epik_Tot_abs_Q>  (299) 
1

>  <s_lp_Force_Field>  (299) 
OPLS3e

>  <r_lp_Energy>  (299) 
116.791

>  <b_lp_Chiralities_Consistent>  (299) 
1

>  <s_lp_Variant>  (299) 
89:0-1

>  <s_i_glide_gridfile>  (299) 
pfpi4k_grid

>  <i_i_glide_lignum>  (299) 
40

>  <i_i_glide_rotatable_bonds>  (299) 
1

>  <r_i_docking_score>  (299) 
-2.25525

>  <r_i_glide_ligand_efficiency>  (299) 
-0.0644357

>  <r_i_glide_ligand_efficiency_sa>  (299) 
-0.210773

>  <r_i_glide_ligand_efficiency_ln>  (299) 
-0.495077

>  <r_i_glide_gscore>  (299) 
-2.25525

>  <r_i_glide_lipo>  (299) 
-0.220285

>  <r_i_glide_hbond>  (299) 
0

>  <r_i_glide_metal>  (299) 
-0

>  <r_i_glide_rewards>  (299) 
-0.706993

>  <r_i_glide_evdw>  (299) 
-24.2279

>  <r_i_glide_ecoul>  (299) 
-0.206204

>  <r_i_glide_erotb>  (299) 
0

>  <r_i_glide_esite>  (299) 
-0.0856438

>  <r_i_glide_emodel>  (299) 
-32.4844

>  <r_i_glide_energy>  (299) 
-24.4341

>  <r_i_glide_einternal>  (299) 
0.00416517

>  <r_i_glide_intrahb_reward>  (299) 
-0.5

>  <i_i_glide_confnum>  (299) 
1

>  <i_i_glide_posenum>  (299) 
31

>  <r_i_glide_eff_state_penalty>  (299) 
0

>  <ligand_id>  (299) 
89

>  <original_smiles>  (299) 
CCC1(C)C2C3CCC45C=CN=NC6(CC7=C(C6)c6ccccc6CC7)C(=O)N(C34)C25CCN1C

>  <smiles>  (299) 
[H]C1=C([H])C23C([H])([H])C([H])([H])C4([H])C2([H])N(C(=O)C2(N=N1)C([H])([H])C1=C(C([H])([H])C([H])([H])c5c([H])c([H])c([H])c([H])c51)C2([H])[H])C31C([H])([H])C([H])([H])[N+]([H])(C([H])([H])[H])C(C([H])([H])[H])(C([H])([H])C([H])([H])[H])C41[H]

$$$$
89:0:2
     RDKit          3D

 72 79  0  0  1  0  0  0  0  0999 V2000
    9.5234   -8.4404   10.0910 C   0  0  0  0  0  0  0  0  0  0  0  0
    9.0646   -7.4917    8.9420 C   0  0  0  0  0  0  0  0  0  0  0  0
    8.0946   -8.0739    7.8571 C   0  0  1  0  0  0  0  0  0  0  0  0
    7.6361   -6.8783    6.9554 C   0  0  0  0  0  0  0  0  0  0  0  0
    8.8646   -9.1930    7.0200 C   0  0  2  0  0  0  0  0  0  0  0  0
    9.5499   -8.9182    5.6529 C   0  0  1  0  0  0  0  0  0  0  0  0
   10.7911   -9.8468    5.5507 C   0  0  0  0  0  0  0  0  0  0  0  0
   10.1976  -11.2845    5.5347 C   0  0  0  0  0  0  0  0  0  0  0  0
    8.7019  -11.0474    5.3313 C   0  0  2  0  0  0  0  0  0  0  0  0
    7.9757  -12.2636    4.7426 C   0  0  0  0  0  0  0  0  0  0  0  0
    7.3754  -12.4553    3.5383 C   0  0  0  0  0  0  0  0  0  0  0  0
    7.3069  -11.4618    2.5684 N   0  0  0  0  0  0  0  0  0  0  0  0
    6.6329  -10.4065    2.7211 N   0  0  0  0  0  0  0  0  0  0  0  0
    5.4738  -10.2183    3.6480 C   0  0  2  0  0  0  0  0  0  0  0  0
    4.5799  -11.4918    3.7791 C   0  0  0  0  0  0  0  0  0  0  0  0
    3.1913  -10.9402    3.6243 C   0  0  0  0  0  0  0  0  0  0  0  0
    3.1720   -9.6899    3.1664 C   0  0  0  0  0  0  0  0  0  0  0  0
    4.5586   -9.1570    2.9559 C   0  0  0  0  0  0  0  0  0  0  0  0
    1.9157   -8.9923    2.8545 C   0  0  0  0  0  0  0  0  0  0  0  0
    1.8809   -7.8185    2.0662 C   0  0  0  0  0  0  0  0  0  0  0  0
    0.6457   -7.2565    1.6885 C   0  0  0  0  0  0  0  0  0  0  0  0
   -0.5621   -7.8567    2.1045 C   0  0  0  0  0  0  0  0  0  0  0  0
   -0.5395   -9.0102    2.9075 C   0  0  0  0  0  0  0  0  0  0  0  0
    0.6950   -9.5810    3.2849 C   0  0  0  0  0  0  0  0  0  0  0  0
    0.7304  -10.8366    4.1585 C   0  0  0  0  0  0  0  0  0  0  0  0
    1.9382  -11.7477    3.8566 C   0  0  0  0  0  0  0  0  0  0  0  0
    5.9522   -9.7058    5.0456 C   0  0  0  0  0  0  0  0  0  0  0  0
    5.0900   -9.3493    5.8577 O   0  0  0  0  0  0  0  0  0  0  0  0
    7.2856   -9.5374    5.4519 N   0  0  0  0  0  0  0  0  0  0  0  0
    8.5602   -9.6431    4.7535 C   0  0  1  0  0  0  0  0  0  0  0  0
    7.9674  -10.3037    6.4973 C   0  0  2  0  0  0  0  0  0  0  0  0
    7.1292  -10.9945    7.5887 C   0  0  0  0  0  0  0  0  0  0  0  0
    6.9350  -10.0996    8.8254 C   0  0  0  0  0  0  0  0  0  0  0  0
    6.8453   -8.6504    8.4795 N   0  0  1  0  0  0  0  0  0  0  0  0
    6.2144   -7.8430    9.5624 C   0  0  0  0  0  0  0  0  0  0  0  0
   10.1967   -7.9262   10.7823 H   0  0  0  0  0  0  0  0  0  0  0  0
   10.0525   -9.3194    9.7204 H   0  0  0  0  0  0  0  0  0  0  0  0
    8.6932   -8.7969   10.6981 H   0  0  0  0  0  0  0  0  0  0  0  0
    8.6142   -6.6110    9.4044 H   0  0  0  0  0  0  0  0  0  0  0  0
    9.9413   -7.0968    8.4279 H   0  0  0  0  0  0  0  0  0  0  0  0
    8.4526   -6.4395    6.3852 H   0  0  0  0  0  0  0  0  0  0  0  0
    7.2089   -6.0616    7.5413 H   0  0  0  0  0  0  0  0  0  0  0  0
    6.8525   -7.1557    6.2469 H   0  0  0  0  0  0  0  0  0  0  0  0
    9.6022   -9.6510    7.6731 H   0  0  0  0  0  0  0  0  0  0  0  0
    9.7347   -7.8726    5.3918 H   0  0  0  0  0  0  0  0  0  0  0  0
   11.2942   -9.6445    4.6067 H   0  0  0  0  0  0  0  0  0  0  0  0
   11.5190   -9.6807    6.3476 H   0  0  0  0  0  0  0  0  0  0  0  0
   10.6502  -11.8971    4.7573 H   0  0  0  0  0  0  0  0  0  0  0  0
   10.3955  -11.7800    6.4859 H   0  0  0  0  0  0  0  0  0  0  0  0
    7.9845  -13.1210    5.3907 H   0  0  0  0  0  0  0  0  0  0  0  0
    6.9778  -13.4343    3.3195 H   0  0  0  0  0  0  0  0  0  0  0  0
    4.7312  -12.2352    2.9942 H   0  0  0  0  0  0  0  0  0  0  0  0
    4.6742  -11.9746    4.7546 H   0  0  0  0  0  0  0  0  0  0  0  0
    4.6583   -8.1676    3.3937 H   0  0  0  0  0  0  0  0  0  0  0  0
    4.7184   -9.0749    1.8857 H   0  0  0  0  0  0  0  0  0  0  0  0
    2.8009   -7.3758    1.7172 H   0  0  0  0  0  0  0  0  0  0  0  0
    0.6323   -6.3918    1.0506 H   0  0  0  0  0  0  0  0  0  0  0  0
   -1.5094   -7.4554    1.7919 H   0  0  0  0  0  0  0  0  0  0  0  0
   -1.4677   -9.4749    3.2154 H   0  0  0  0  0  0  0  0  0  0  0  0
    0.7963  -10.4994    5.1991 H   0  0  0  0  0  0  0  0  0  0  0  0
   -0.1827  -11.4102    4.0636 H   0  0  0  0  0  0  0  0  0  0  0  0
    1.7447  -12.2625    2.9168 H   0  0  0  0  0  0  0  0  0  0  0  0
    2.0626  -12.4992    4.6395 H   0  0  0  0  0  0  0  0  0  0  0  0
    8.6736   -9.5004    3.6869 H   0  0  0  0  0  0  0  0  0  0  0  0
    6.1759  -11.3682    7.2109 H   0  0  0  0  0  0  0  0  0  0  0  0
    7.6731  -11.8755    7.9373 H   0  0  0  0  0  0  0  0  0  0  0  0
    6.0199  -10.4168    9.3332 H   0  0  0  0  0  0  0  0  0  0  0  0
    7.7444  -10.3340    9.5131 H   0  0  0  0  0  0  0  0  0  0  0  0
    6.7706   -7.8663   10.5016 H   0  0  0  0  0  0  0  0  0  0  0  0
    5.2142   -8.2267    9.7870 H   0  0  0  0  0  0  0  0  0  0  0  0
    6.1039   -6.7932    9.2843 H   0  0  0  0  0  0  0  0  0  0  0  0
    6.1703   -8.6223    7.7184 H   0  0  0  0  0  0  0  0  0  0  0  0
  1  2  1  0
  1 36  1  0
  1 37  1  0
  1 38  1  0
  3  2  1  1
  2 39  1  0
  2 40  1  0
  3 34  1  0
  3  4  1  0
  3  5  1  0
  4 41  1  0
  4 42  1  0
  4 43  1  0
  5 31  1  0
  5  6  1  0
  5 44  1  1
  6 30  1  0
  6  7  1  0
  6 45  1  6
  7  8  1  0
  7 46  1  0
  7 47  1  0
  9  8  1  1
  8 48  1  0
  8 49  1  0
  9 30  1  0
  9 31  1  0
  9 10  1  0
 10 11  2  3
 10 50  1  0
 11 12  1  0
 11 51  1  0
 12 13  2  3
 13 14  1  0
 14 18  1  6
 14 15  1  0
 14 27  1  0
 15 16  1  0
 15 52  1  0
 15 53  1  0
 16 26  1  0
 16 17  2  0
 17 18  1  0
 17 19  1  0
 18 54  1  0
 18 55  1  0
 19 24  2  0
 19 20  1  0
 20 21  2  0
 20 56  1  0
 21 22  1  0
 21 57  1  0
 22 23  2  0
 22 58  1  0
 23 24  1  0
 23 59  1  0
 24 25  1  0
 25 26  1  0
 25 60  1  0
 25 61  1  0
 26 62  1  0
 26 63  1  0
 27 28  2  0
 27 29  1  0
 29 30  1  0
 29 31  1  0
 30 64  1  6
 31 32  1  1
 32 33  1  0
 32 65  1  0
 32 66  1  0
 33 34  1  0
 33 67  1  0
 33 68  1  0
 34 35  1  0
 34 72  1  6
 35 69  1  0
 35 70  1  0
 35 71  1  0
M  CHG  1  34   1
M  END
>  <i_m_ct_stereo_status>  (300) 
1

>  <s_m_source_file>  (300) 
/var/tmp/pbs.5076255.sched01/tmp0eyfkrct/966b1hsbd3.sdf

>  <i_m_source_file_index>  (300) 
40

>  <i_lp_mmshare_version>  (300) 
48012

>  <i_f3d_flags>  (300) 
0

>  <s_epik_input>  (300) 
W0NIMl0xW0NIMl1OKFtDSDNdKVtDQEBdKFtDSDNdKShbQ0gyXVtDSDNdKVtDQEBIXShbQ0BAXTEyW0NAQF0zNDUpW0NAQEhdKFtDSDJdW0NIMl0zKVtDQEBIXTVOMkMoPU8pW0NAQF02KFxOPU4vW0NIXT1bQ0hdXDQpW0NIMl1DNz1DKFtDSDJdNiljOGMoW0NIMl1bQ0gyXTcpW2NIXVtjSF1bY0hdW2NIXTg=

>  <s_epik_cmdline>  (300) 
J2VwaWtfcHl0aG9uJywgJy1waHQnLCAnMi4wJywgJy1waCcsICc3LjAnLCAnLXRuJywgJzgnLCAnLW1hJywgJzIwMCcsICctaW1hZScsICc8aW5maWxlLm1hZT4nLCAnLW9tYWUnLCAnPG91dGZpbGUubWFlPic=

>  <r_epik_Ionization_Penalty>  (300) 
0.00122337

>  <r_epik_Ionization_Penalty_Charging>  (300) 
0.00122337

>  <r_epik_Ionization_Penalty_Neutral>  (300) 
1.44336e-10

>  <r_epik_State_Penalty>  (300) 
0.000808394

>  <r_epik_Charging_Adjusted_Penalty>  (300) 
0.00203177

>  <i_epik_Tot_Q>  (300) 
1

>  <i_epik_Tot_abs_Q>  (300) 
1

>  <s_lp_Force_Field>  (300) 
OPLS3e

>  <r_lp_Energy>  (300) 
116.791

>  <b_lp_Chiralities_Consistent>  (300) 
1

>  <s_lp_Variant>  (300) 
89:0-1

>  <s_i_glide_gridfile>  (300) 
pfpi4k_grid

>  <i_i_glide_lignum>  (300) 
40

>  <i_i_glide_rotatable_bonds>  (300) 
1

>  <r_i_docking_score>  (300) 
-1.90661

>  <r_i_glide_ligand_efficiency>  (300) 
-0.0544745

>  <r_i_glide_ligand_efficiency_sa>  (300) 
-0.17819

>  <r_i_glide_ligand_efficiency_ln>  (300) 
-0.418543

>  <r_i_glide_gscore>  (300) 
-1.90661

>  <r_i_glide_lipo>  (300) 
-0.0175851

>  <r_i_glide_hbond>  (300) 
0

>  <r_i_glide_metal>  (300) 
-0

>  <r_i_glide_rewards>  (300) 
-0.706993

>  <r_i_glide_evdw>  (300) 
-22.3346

>  <r_i_glide_ecoul>  (300) 
-0.197461

>  <r_i_glide_erotb>  (300) 
0

>  <r_i_glide_esite>  (300) 
-0.0356788

>  <r_i_glide_emodel>  (300) 
-27.8152

>  <r_i_glide_energy>  (300) 
-22.5321

>  <r_i_glide_einternal>  (300) 
4.13246

>  <r_i_glide_intrahb_reward>  (300) 
-0.5

>  <i_i_glide_confnum>  (300) 
1

>  <i_i_glide_posenum>  (300) 
8

>  <r_i_glide_eff_state_penalty>  (300) 
0

>  <ligand_id>  (300) 
89

>  <original_smiles>  (300) 
CCC1(C)C2C3CCC45C=CN=NC6(CC7=C(C6)c6ccccc6CC7)C(=O)N(C34)C25CCN1C

>  <smiles>  (300) 
[H]C1=C([H])C23C([H])([H])C([H])([H])C4([H])C2([H])N(C(=O)C2(N=N1)C([H])([H])C1=C(C([H])([H])C([H])([H])c5c([H])c([H])c([H])c([H])c51)C2([H])[H])C31C([H])([H])C([H])([H])[N+]([H])(C([H])([H])[H])C(C([H])([H])[H])(C([H])([H])C([H])([H])[H])C41[H]

$$$$
89:1:0
     RDKit          3D

 72 79  0  0  1  0  0  0  0  0999 V2000
    0.6420  -11.7178    4.8448 C   0  0  0  0  0  0  0  0  0  0  0  0
    1.1284  -11.0605    3.5290 C   0  0  0  0  0  0  0  0  0  0  0  0
    2.3768  -10.1254    3.6195 C   0  0  1  0  0  0  0  0  0  0  0  0
    2.8044   -9.7596    2.1597 C   0  0  0  0  0  0  0  0  0  0  0  0
    1.9978   -8.8368    4.4745 C   0  0  2  0  0  0  0  0  0  0  0  0
    1.5594   -7.4922    3.8365 C   0  0  1  0  0  0  0  0  0  0  0  0
    0.5704   -6.7865    4.8118 C   0  0  0  0  0  0  0  0  0  0  0  0
    1.4117   -6.4710    6.0815 C   0  0  0  0  0  0  0  0  0  0  0  0
    2.8332   -6.7686    5.6225 C   0  0  2  0  0  0  0  0  0  0  0  0
    3.9510   -6.0245    6.3236 C   0  0  0  0  0  0  0  0  0  0  0  0
    4.5352   -4.9798    5.7247 C   0  0  0  0  0  0  0  0  0  0  0  0
    5.9223   -4.9851    5.7393 N   0  0  0  0  0  0  0  0  0  0  0  0
    6.5576   -5.4573    4.7507 N   0  0  0  0  0  0  0  0  0  0  0  0
    6.0203   -6.2027    3.5342 C   0  0  2  0  0  0  0  0  0  0  0  0
    7.3231   -6.5305    2.7252 C   0  0  0  0  0  0  0  0  0  0  0  0
    7.3592   -5.4997    1.6345 C   0  0  0  0  0  0  0  0  0  0  0  0
    6.2298   -4.8117    1.5466 C   0  0  0  0  0  0  0  0  0  0  0  0
    5.2325   -5.2300    2.5833 C   0  0  0  0  0  0  0  0  0  0  0  0
    5.9856   -3.8412    0.4702 C   0  0  0  0  0  0  0  0  0  0  0  0
    4.6915   -3.3732    0.1594 C   0  0  0  0  0  0  0  0  0  0  0  0
    4.4909   -2.5256   -0.9457 C   0  0  0  0  0  0  0  0  0  0  0  0
    5.5812   -2.1471   -1.7529 C   0  0  0  0  0  0  0  0  0  0  0  0
    6.8773   -2.6075   -1.4493 C   0  0  0  0  0  0  0  0  0  0  0  0
    7.0851   -3.4455   -0.3352 C   0  0  0  0  0  0  0  0  0  0  0  0
    8.4901   -3.9408    0.0087 C   0  0  0  0  0  0  0  0  0  0  0  0
    8.4904   -5.3586    0.6357 C   0  0  0  0  0  0  0  0  0  0  0  0
    5.3220   -7.5269    4.0049 C   0  0  0  0  0  0  0  0  0  0  0  0
    6.0280   -8.5135    4.2629 O   0  0  0  0  0  0  0  0  0  0  0  0
    3.9207   -7.6923    4.0931 N   0  0  0  0  0  0  0  0  0  0  0  0
    2.8328   -6.7116    4.0941 C   0  0  1  0  0  0  0  0  0  0  0  0
    3.1709   -8.2446    5.2297 C   0  0  2  0  0  0  0  0  0  0  0  0
    3.8456   -9.2467    6.1844 C   0  0  0  0  0  0  0  0  0  0  0  0
    3.6536  -10.7031    5.7307 C   0  0  0  0  0  0  0  0  0  0  0  0
    3.5630  -10.8343    4.2415 N   0  0  1  0  0  0  0  0  0  0  0  0
    3.8204  -12.2291    3.7807 C   0  0  0  0  0  0  0  0  0  0  0  0
   -0.1922  -12.3676    4.6635 H   0  0  0  0  0  0  0  0  0  0  0  0
    0.3556  -10.9985    5.6098 H   0  0  0  0  0  0  0  0  0  0  0  0
    1.3826  -12.3743    5.2791 H   0  0  0  0  0  0  0  0  0  0  0  0
    1.3215  -11.8689    2.8250 H   0  0  0  0  0  0  0  0  0  0  0  0
    0.3114  -10.4944    3.0764 H   0  0  0  0  0  0  0  0  0  0  0  0
    2.0609   -9.1615    1.6301 H   0  0  0  0  0  0  0  0  0  0  0  0
    2.9586  -10.6519    1.5613 H   0  0  0  0  0  0  0  0  0  0  0  0
    3.7573   -9.2283    2.1040 H   0  0  0  0  0  0  0  0  0  0  0  0
    1.2408   -9.1160    5.2014 H   0  0  0  0  0  0  0  0  0  0  0  0
    1.2353   -7.5243    2.7928 H   0  0  0  0  0  0  0  0  0  0  0  0
    0.2325   -5.8526    4.3624 H   0  0  0  0  0  0  0  0  0  0  0  0
   -0.3162   -7.3889    5.0196 H   0  0  0  0  0  0  0  0  0  0  0  0
    1.2681   -5.4442    6.4152 H   0  0  0  0  0  0  0  0  0  0  0  0
    1.1226   -7.1229    6.9036 H   0  0  0  0  0  0  0  0  0  0  0  0
    4.5217   -6.6055    7.0300 H   0  0  0  0  0  0  0  0  0  0  0  0
    3.9996   -4.4414    4.9607 H   0  0  0  0  0  0  0  0  0  0  0  0
    8.2366   -6.4980    3.3202 H   0  0  0  0  0  0  0  0  0  0  0  0
    7.2739   -7.5047    2.2364 H   0  0  0  0  0  0  0  0  0  0  0  0
    4.4428   -5.7537    2.0469 H   0  0  0  0  0  0  0  0  0  0  0  0
    4.8256   -4.3446    3.0579 H   0  0  0  0  0  0  0  0  0  0  0  0
    3.8410   -3.6831    0.7482 H   0  0  0  0  0  0  0  0  0  0  0  0
    3.4962   -2.1831   -1.1930 H   0  0  0  0  0  0  0  0  0  0  0  0
    5.4126   -1.5098   -2.6085 H   0  0  0  0  0  0  0  0  0  0  0  0
    7.7144   -2.3287   -2.0782 H   0  0  0  0  0  0  0  0  0  0  0  0
    9.1446   -3.8801   -0.8654 H   0  0  0  0  0  0  0  0  0  0  0  0
    8.8996   -3.2404    0.7415 H   0  0  0  0  0  0  0  0  0  0  0  0
    9.4513   -5.6063    1.0853 H   0  0  0  0  0  0  0  0  0  0  0  0
    8.3100   -6.0919   -0.1522 H   0  0  0  0  0  0  0  0  0  0  0  0
    2.9285   -5.7371    3.6375 H   0  0  0  0  0  0  0  0  0  0  0  0
    4.8956   -9.0113    6.3646 H   0  0  0  0  0  0  0  0  0  0  0  0
    3.3666   -9.1689    7.1621 H   0  0  0  0  0  0  0  0  0  0  0  0
    4.4950  -11.2887    6.1011 H   0  0  0  0  0  0  0  0  0  0  0  0
    2.7822  -11.0746    6.2516 H   0  0  0  0  0  0  0  0  0  0  0  0
    3.1130  -12.9427    4.1876 H   0  0  0  0  0  0  0  0  0  0  0  0
    4.8074  -12.5568    4.1120 H   0  0  0  0  0  0  0  0  0  0  0  0
    3.7937  -12.3182    2.6944 H   0  0  0  0  0  0  0  0  0  0  0  0
    4.3560  -10.3090    3.8969 H   0  0  0  0  0  0  0  0  0  0  0  0
  1  2  1  0
  1 36  1  0
  1 37  1  0
  1 38  1  0
  3  2  1  6
  2 39  1  0
  2 40  1  0
  3 34  1  0
  3  4  1  0
  3  5  1  0
  4 41  1  0
  4 42  1  0
  4 43  1  0
  5 31  1  0
  5  6  1  0
  5 44  1  1
  6 30  1  0
  6  7  1  0
  6 45  1  6
  7  8  1  0
  7 46  1  0
  7 47  1  0
  9  8  1  1
  8 48  1  0
  8 49  1  0
  9 30  1  0
  9 31  1  0
  9 10  1  0
 10 11  2  3
 10 50  1  0
 11 12  1  0
 11 51  1  0
 12 13  2  3
 13 14  1  0
 14 18  1  6
 14 15  1  0
 14 27  1  0
 15 16  1  0
 15 52  1  0
 15 53  1  0
 16 26  1  0
 16 17  2  0
 17 18  1  0
 17 19  1  0
 18 54  1  0
 18 55  1  0
 19 24  2  0
 19 20  1  0
 20 21  2  0
 20 56  1  0
 21 22  1  0
 21 57  1  0
 22 23  2  0
 22 58  1  0
 23 24  1  0
 23 59  1  0
 24 25  1  0
 25 26  1  0
 25 60  1  0
 25 61  1  0
 26 62  1  0
 26 63  1  0
 27 28  2  0
 27 29  1  0
 29 30  1  0
 29 31  1  0
 30 64  1  1
 31 32  1  1
 32 33  1  0
 32 65  1  0
 32 66  1  0
 33 34  1  0
 33 67  1  0
 33 68  1  0
 34 35  1  0
 34 72  1  6
 35 69  1  0
 35 70  1  0
 35 71  1  0
M  CHG  1  34   1
M  END
>  <i_m_ct_stereo_status>  (301) 
1

>  <s_m_source_file>  (301) 
/var/tmp/pbs.5076255.sched01/tmp0eyfkrct/966b1hsbd3.sdf

>  <i_m_source_file_index>  (301) 
41

>  <i_lp_mmshare_version>  (301) 
48012

>  <i_f3d_flags>  (301) 
0

>  <s_epik_input>  (301) 
W0NIMl0xW0NIMl1OKFtDSDNdKVtDQEBdKFtDSDNdKShbQ0gyXVtDSDNdKVtDQEBIXShbQ0BAXTEyW0NAQF0zNDUpW0NAQEhdKFtDSDJdW0NIMl0zKVtDQEBIXTVOMkMoPU8pW0NAQF02KFxOPU4vW0NIXT1bQ0hdXDQpW0NIMl1DNz1DKFtDSDJdNiljOGMoW0NIMl1bQ0gyXTcpW2NIXVtjSF1bY0hdW2NIXTg=

>  <s_epik_cmdline>  (301) 
J2VwaWtfcHl0aG9uJywgJy1waHQnLCAnMi4wJywgJy1waCcsICc3LjAnLCAnLXRuJywgJzgnLCAnLW1hJywgJzIwMCcsICctaW1hZScsICc8aW5maWxlLm1hZT4nLCAnLW9tYWUnLCAnPG91dGZpbGUubWFlPic=

>  <r_epik_Ionization_Penalty>  (301) 
0.00122337

>  <r_epik_Ionization_Penalty_Charging>  (301) 
0.00122337

>  <r_epik_Ionization_Penalty_Neutral>  (301) 
1.44336e-10

>  <r_epik_State_Penalty>  (301) 
0.000808394

>  <r_epik_Charging_Adjusted_Penalty>  (301) 
0.00203177

>  <i_epik_Tot_Q>  (301) 
1

>  <i_epik_Tot_abs_Q>  (301) 
1

>  <s_lp_Force_Field>  (301) 
OPLS3e

>  <r_lp_Energy>  (301) 
137.039

>  <b_lp_Chiralities_Consistent>  (301) 
1

>  <s_lp_Variant>  (301) 
89:0-2

>  <s_i_glide_gridfile>  (301) 
pfpi4k_grid

>  <i_i_glide_lignum>  (301) 
41

>  <i_i_glide_rotatable_bonds>  (301) 
1

>  <r_i_docking_score>  (301) 
-3.29402

>  <r_i_glide_ligand_efficiency>  (301) 
-0.0941148

>  <r_i_glide_ligand_efficiency_sa>  (301) 
-0.307856

>  <r_i_glide_ligand_efficiency_ln>  (301) 
-0.72311

>  <r_i_glide_gscore>  (301) 
-3.29402

>  <r_i_glide_lipo>  (301) 
-0.69977

>  <r_i_glide_hbond>  (301) 
0

>  <r_i_glide_metal>  (301) 
-0

>  <r_i_glide_rewards>  (301) 
-0.706993

>  <r_i_glide_evdw>  (301) 
-25.9816

>  <r_i_glide_ecoul>  (301) 
-3.82798

>  <r_i_glide_erotb>  (301) 
0

>  <r_i_glide_esite>  (301) 
-0.0139765

>  <r_i_glide_emodel>  (301) 
-39.9145

>  <r_i_glide_energy>  (301) 
-29.8096

>  <r_i_glide_einternal>  (301) 
4.10565

>  <r_i_glide_intrahb_reward>  (301) 
-0.5

>  <i_i_glide_confnum>  (301) 
1

>  <i_i_glide_posenum>  (301) 
23

>  <r_i_glide_eff_state_penalty>  (301) 
0

>  <ligand_id>  (301) 
89

>  <original_smiles>  (301) 
CCC1(C)C2C3CCC45C=CN=NC6(CC7=C(C6)c6ccccc6CC7)C(=O)N(C34)C25CCN1C

>  <smiles>  (301) 
[H]C1=C([H])C23C([H])([H])C([H])([H])C4([H])C2([H])N(C(=O)C2(N=N1)C([H])([H])C1=C(C([H])([H])C([H])([H])c5c([H])c([H])c([H])c([H])c51)C2([H])[H])C31C([H])([H])C([H])([H])[N+]([H])(C([H])([H])[H])C(C([H])([H])[H])(C([H])([H])C([H])([H])[H])C41[H]

$$$$
89:1:1
     RDKit          3D

 72 79  0  0  1  0  0  0  0  0999 V2000
   -0.8353   -9.5858    2.8617 C   0  0  0  0  0  0  0  0  0  0  0  0
    0.3538  -10.4016    3.4121 C   0  0  0  0  0  0  0  0  0  0  0  0
    1.7165   -9.6600    3.5456 C   0  0  1  0  0  0  0  0  0  0  0  0
    2.2143   -9.3191    2.1107 C   0  0  0  0  0  0  0  0  0  0  0  0
    1.4998   -8.3812    4.4596 C   0  0  2  0  0  0  0  0  0  0  0  0
    1.2697   -6.9613    3.8741 C   0  0  1  0  0  0  0  0  0  0  0  0
    0.3804   -6.1508    4.8675 C   0  0  0  0  0  0  0  0  0  0  0  0
    1.2367   -5.9925    6.1552 C   0  0  0  0  0  0  0  0  0  0  0  0
    2.6008   -6.4812    5.6966 C   0  0  2  0  0  0  0  0  0  0  0  0
    3.8197   -5.9350    6.4141 C   0  0  0  0  0  0  0  0  0  0  0  0
    4.5447   -4.9600    5.8718 C   0  0  0  0  0  0  0  0  0  0  0  0
    5.9220   -5.1841    5.9011 N   0  0  0  0  0  0  0  0  0  0  0  0
    6.5051   -5.6533    4.8801 N   0  0  0  0  0  0  0  0  0  0  0  0
    5.8725   -6.3032    3.6522 C   0  0  2  0  0  0  0  0  0  0  0  0
    7.1352   -6.7948    2.8464 C   0  0  0  0  0  0  0  0  0  0  0  0
    7.3335   -5.7490    1.7898 C   0  0  0  0  0  0  0  0  0  0  0  0
    6.3142   -4.9173    1.7121 C   0  0  0  0  0  0  0  0  0  0  0  0
    5.2488   -5.2018    2.7228 C   0  0  0  0  0  0  0  0  0  0  0  0
    6.2204   -3.8705    0.6837 C   0  0  0  0  0  0  0  0  0  0  0  0
    5.0110   -3.2166    0.3804 C   0  0  0  0  0  0  0  0  0  0  0  0
    4.9481   -2.3113   -0.6991 C   0  0  0  0  0  0  0  0  0  0  0  0
    6.0964   -2.0632   -1.4747 C   0  0  0  0  0  0  0  0  0  0  0  0
    7.3196   -2.6995   -1.1754 C   0  0  0  0  0  0  0  0  0  0  0  0
    7.3798   -3.6053   -0.0930 C   0  0  0  0  0  0  0  0  0  0  0  0
    8.6932   -4.3122    0.2345 C   0  0  0  0  0  0  0  0  0  0  0  0
    8.4917   -5.7339    0.8134 C   0  0  0  0  0  0  0  0  0  0  0  0
    4.9890   -7.5360    4.1008 C   0  0  0  0  0  0  0  0  0  0  0  0
    5.5438   -8.6116    4.3122 O   0  0  0  0  0  0  0  0  0  0  0  0
    3.5538   -7.5199    4.1374 N   0  0  0  0  0  0  0  0  0  0  0  0
    2.6358   -6.3867    4.1764 C   0  0  1  0  0  0  0  0  0  0  0  0
    2.7196   -7.9740    5.2618 C   0  0  2  0  0  0  0  0  0  0  0  0
    3.2106   -9.1100    6.1692 C   0  0  0  0  0  0  0  0  0  0  0  0
    2.7965  -10.4941    5.6502 C   0  0  0  0  0  0  0  0  0  0  0  0
    2.7654  -10.5443    4.1678 N   0  0  1  0  0  0  0  0  0  0  0  0
    2.7985  -11.9332    3.6933 C   0  0  0  0  0  0  0  0  0  0  0  0
   -1.7132  -10.2269    2.7975 H   0  0  0  0  0  0  0  0  0  0  0  0
   -0.6576   -9.2108    1.8544 H   0  0  0  0  0  0  0  0  0  0  0  0
   -1.1062   -8.7545    3.5111 H   0  0  0  0  0  0  0  0  0  0  0  0
    0.0651  -10.8031    4.3815 H   0  0  0  0  0  0  0  0  0  0  0  0
    0.4554  -11.2631    2.7575 H   0  0  0  0  0  0  0  0  0  0  0  0
    1.5762   -8.5921    1.5981 H   0  0  0  0  0  0  0  0  0  0  0  0
    2.2370  -10.1999    1.4734 H   0  0  0  0  0  0  0  0  0  0  0  0
    3.2336   -8.9349    2.0900 H   0  0  0  0  0  0  0  0  0  0  0  0
    0.6923   -8.6130    5.1595 H   0  0  0  0  0  0  0  0  0  0  0  0
    0.9614   -6.9064    2.8263 H   0  0  0  0  0  0  0  0  0  0  0  0
    0.1909   -5.1642    4.4436 H   0  0  0  0  0  0  0  0  0  0  0  0
   -0.5905   -6.6225    5.0448 H   0  0  0  0  0  0  0  0  0  0  0  0
    1.2441   -4.9675    6.5184 H   0  0  0  0  0  0  0  0  0  0  0  0
    0.8495   -6.6248    6.9483 H   0  0  0  0  0  0  0  0  0  0  0  0
    4.2908   -6.6129    7.1168 H   0  0  0  0  0  0  0  0  0  0  0  0
    4.0960   -4.3206    5.1184 H   0  0  0  0  0  0  0  0  0  0  0  0
    8.0348   -6.9113    3.4551 H   0  0  0  0  0  0  0  0  0  0  0  0
    6.9448   -7.7307    2.3269 H   0  0  0  0  0  0  0  0  0  0  0  0
    4.4005   -5.5889    2.1651 H   0  0  0  0  0  0  0  0  0  0  0  0
    4.9734   -4.2791    3.2275 H   0  0  0  0  0  0  0  0  0  0  0  0
    4.1111   -3.4210    0.9484 H   0  0  0  0  0  0  0  0  0  0  0  0
    4.0155   -1.8221   -0.9507 H   0  0  0  0  0  0  0  0  0  0  0  0
    6.0136   -1.3731   -2.2905 H   0  0  0  0  0  0  0  0  0  0  0  0
    8.2021   -2.5252   -1.7896 H   0  0  0  0  0  0  0  0  0  0  0  0
    9.3546   -4.3188   -0.6378 H   0  0  0  0  0  0  0  0  0  0  0  0
    9.1888   -3.7026    0.9942 H   0  0  0  0  0  0  0  0  0  0  0  0
    9.4044   -6.1190    1.2610 H   0  0  0  0  0  0  0  0  0  0  0  0
    8.2174   -6.4061    0.0022 H   0  0  0  0  0  0  0  0  0  0  0  0
    2.8817   -5.4255    3.7588 H   0  0  0  0  0  0  0  0  0  0  0  0
    4.2859   -9.0522    6.3595 H   0  0  0  0  0  0  0  0  0  0  0  0
    2.7615   -8.9957    7.1584 H   0  0  0  0  0  0  0  0  0  0  0  0
    3.5107  -11.2079    6.0320 H   0  0  0  0  0  0  0  0  0  0  0  0
    1.8393  -10.7773    6.0719 H   0  0  0  0  0  0  0  0  0  0  0  0
    1.9637  -12.4925    4.0960 H   0  0  0  0  0  0  0  0  0  0  0  0
    3.6969  -12.4431    4.0227 H   0  0  0  0  0  0  0  0  0  0  0  0
    2.7793  -12.0204    2.6113 H   0  0  0  0  0  0  0  0  0  0  0  0
    3.6366  -10.1562    3.8652 H   0  0  0  0  0  0  0  0  0  0  0  0
  1  2  1  0
  1 36  1  0
  1 37  1  0
  1 38  1  0
  3  2  1  6
  2 39  1  0
  2 40  1  0
  3 34  1  0
  3  4  1  0
  3  5  1  0
  4 41  1  0
  4 42  1  0
  4 43  1  0
  5 31  1  0
  5  6  1  0
  5 44  1  1
  6 30  1  0
  6  7  1  0
  6 45  1  6
  7  8  1  0
  7 46  1  0
  7 47  1  0
  9  8  1  1
  8 48  1  0
  8 49  1  0
  9 30  1  0
  9 31  1  0
  9 10  1  0
 10 11  2  3
 10 50  1  0
 11 12  1  0
 11 51  1  0
 12 13  2  3
 13 14  1  0
 14 18  1  6
 14 15  1  0
 14 27  1  0
 15 16  1  0
 15 52  1  0
 15 53  1  0
 16 26  1  0
 16 17  2  0
 17 18  1  0
 17 19  1  0
 18 54  1  0
 18 55  1  0
 19 24  2  0
 19 20  1  0
 20 21  2  0
 20 56  1  0
 21 22  1  0
 21 57  1  0
 22 23  2  0
 22 58  1  0
 23 24  1  0
 23 59  1  0
 24 25  1  0
 25 26  1  0
 25 60  1  0
 25 61  1  0
 26 62  1  0
 26 63  1  0
 27 28  2  0
 27 29  1  0
 29 30  1  0
 29 31  1  0
 30 64  1  1
 31 32  1  1
 32 33  1  0
 32 65  1  0
 32 66  1  0
 33 34  1  0
 33 67  1  0
 33 68  1  0
 34 35  1  0
 34 72  1  6
 35 69  1  0
 35 70  1  0
 35 71  1  0
M  CHG  1  34   1
M  END
>  <i_m_ct_stereo_status>  (302) 
1

>  <s_m_source_file>  (302) 
/var/tmp/pbs.5076255.sched01/tmp0eyfkrct/966b1hsbd3.sdf

>  <i_m_source_file_index>  (302) 
41

>  <i_lp_mmshare_version>  (302) 
48012

>  <i_f3d_flags>  (302) 
0

>  <s_epik_input>  (302) 
W0NIMl0xW0NIMl1OKFtDSDNdKVtDQEBdKFtDSDNdKShbQ0gyXVtDSDNdKVtDQEBIXShbQ0BAXTEyW0NAQF0zNDUpW0NAQEhdKFtDSDJdW0NIMl0zKVtDQEBIXTVOMkMoPU8pW0NAQF02KFxOPU4vW0NIXT1bQ0hdXDQpW0NIMl1DNz1DKFtDSDJdNiljOGMoW0NIMl1bQ0gyXTcpW2NIXVtjSF1bY0hdW2NIXTg=

>  <s_epik_cmdline>  (302) 
J2VwaWtfcHl0aG9uJywgJy1waHQnLCAnMi4wJywgJy1waCcsICc3LjAnLCAnLXRuJywgJzgnLCAnLW1hJywgJzIwMCcsICctaW1hZScsICc8aW5maWxlLm1hZT4nLCAnLW9tYWUnLCAnPG91dGZpbGUubWFlPic=

>  <r_epik_Ionization_Penalty>  (302) 
0.00122337

>  <r_epik_Ionization_Penalty_Charging>  (302) 
0.00122337

>  <r_epik_Ionization_Penalty_Neutral>  (302) 
1.44336e-10

>  <r_epik_State_Penalty>  (302) 
0.000808394

>  <r_epik_Charging_Adjusted_Penalty>  (302) 
0.00203177

>  <i_epik_Tot_Q>  (302) 
1

>  <i_epik_Tot_abs_Q>  (302) 
1

>  <s_lp_Force_Field>  (302) 
OPLS3e

>  <r_lp_Energy>  (302) 
137.039

>  <b_lp_Chiralities_Consistent>  (302) 
1

>  <s_lp_Variant>  (302) 
89:0-2

>  <s_i_glide_gridfile>  (302) 
pfpi4k_grid

>  <i_i_glide_lignum>  (302) 
41

>  <i_i_glide_rotatable_bonds>  (302) 
1

>  <r_i_docking_score>  (302) 
-3.13043

>  <r_i_glide_ligand_efficiency>  (302) 
-0.0894408

>  <r_i_glide_ligand_efficiency_sa>  (302) 
-0.292567

>  <r_i_glide_ligand_efficiency_ln>  (302) 
-0.687199

>  <r_i_glide_gscore>  (302) 
-3.13043

>  <r_i_glide_lipo>  (302) 
-0.477253

>  <r_i_glide_hbond>  (302) 
0

>  <r_i_glide_metal>  (302) 
-0

>  <r_i_glide_rewards>  (302) 
-0.706993

>  <r_i_glide_evdw>  (302) 
-25.9848

>  <r_i_glide_ecoul>  (302) 
-4.2164

>  <r_i_glide_erotb>  (302) 
0

>  <r_i_glide_esite>  (302) 
-0.0144814

>  <r_i_glide_emodel>  (302) 
-41.9329

>  <r_i_glide_energy>  (302) 
-30.2012

>  <r_i_glide_einternal>  (302) 
0.0248143

>  <r_i_glide_intrahb_reward>  (302) 
-0.5

>  <i_i_glide_confnum>  (302) 
1

>  <i_i_glide_posenum>  (302) 
1

>  <r_i_glide_eff_state_penalty>  (302) 
0

>  <ligand_id>  (302) 
89

>  <original_smiles>  (302) 
CCC1(C)C2C3CCC45C=CN=NC6(CC7=C(C6)c6ccccc6CC7)C(=O)N(C34)C25CCN1C

>  <smiles>  (302) 
[H]C1=C([H])C23C([H])([H])C([H])([H])C4([H])C2([H])N(C(=O)C2(N=N1)C([H])([H])C1=C(C([H])([H])C([H])([H])c5c([H])c([H])c([H])c([H])c51)C2([H])[H])C31C([H])([H])C([H])([H])[N+]([H])(C([H])([H])[H])C(C([H])([H])[H])(C([H])([H])C([H])([H])[H])C41[H]

$$$$
89:1:2
     RDKit          3D

 72 79  0  0  1  0  0  0  0  0999 V2000
   -1.7916   -8.0814    2.5314 C   0  0  0  0  0  0  0  0  0  0  0  0
   -1.0296   -9.0274    3.4654 C   0  0  0  0  0  0  0  0  0  0  0  0
    0.4916   -8.7417    3.6858 C   0  0  1  0  0  0  0  0  0  0  0  0
    1.1651   -8.5007    2.3090 C   0  0  0  0  0  0  0  0  0  0  0  0
    0.6181   -7.4958    4.6636 C   0  0  2  0  0  0  0  0  0  0  0  0
    0.8457   -6.0496    4.1572 C   0  0  1  0  0  0  0  0  0  0  0  0
    0.1941   -5.0618    5.1687 C   0  0  0  0  0  0  0  0  0  0  0  0
    0.9991   -5.2218    6.4858 C   0  0  0  0  0  0  0  0  0  0  0  0
    2.1756   -6.0747    6.0434 C   0  0  2  0  0  0  0  0  0  0  0  0
    3.4624   -5.9421    6.8365 C   0  0  0  0  0  0  0  0  0  0  0  0
    4.4690   -5.2058    6.3669 C   0  0  0  0  0  0  0  0  0  0  0  0
    5.7158   -5.8209    6.4258 N   0  0  0  0  0  0  0  0  0  0  0  0
    6.1797   -6.3934    5.3983 N   0  0  0  0  0  0  0  0  0  0  0  0
    5.4401   -6.7749    4.1175 C   0  0  2  0  0  0  0  0  0  0  0  0
    6.5308   -7.5827    3.3258 C   0  0  0  0  0  0  0  0  0  0  0  0
    7.0607   -6.5921    2.3342 C   0  0  0  0  0  0  0  0  0  0  0  0
    6.3494   -5.4869    2.2702 C   0  0  0  0  0  0  0  0  0  0  0  0
    5.2065   -5.4977    3.2339 C   0  0  0  0  0  0  0  0  0  0  0  0
    6.6251   -4.4211    1.2961 C   0  0  0  0  0  0  0  0  0  0  0  0
    5.6842   -3.4225    0.9896 C   0  0  0  0  0  0  0  0  0  0  0  0
    5.9440   -2.4949   -0.0412 C   0  0  0  0  0  0  0  0  0  0  0  0
    7.1470   -2.5724   -0.7709 C   0  0  0  0  0  0  0  0  0  0  0  0
    8.1161   -3.5376   -0.4478 C   0  0  0  0  0  0  0  0  0  0  0  0
    7.8486   -4.4784    0.5747 C   0  0  0  0  0  0  0  0  0  0  0  0
    8.8612   -5.5677    0.9128 C   0  0  0  0  0  0  0  0  0  0  0  0
    8.2109   -6.8792    1.4008 C   0  0  0  0  0  0  0  0  0  0  0  0
    4.2166   -7.7090    4.4588 C   0  0  0  0  0  0  0  0  0  0  0  0
    4.4152   -8.9122    4.6315 O   0  0  0  0  0  0  0  0  0  0  0  0
    2.8580   -7.2682    4.4669 N   0  0  0  0  0  0  0  0  0  0  0  0
    2.3063   -5.9181    4.5321 C   0  0  1  0  0  0  0  0  0  0  0  0
    1.8677   -7.5162    5.5243 C   0  0  2  0  0  0  0  0  0  0  0  0
    1.9580   -8.7840    6.3859 C   0  0  0  0  0  0  0  0  0  0  0  0
    1.1835   -9.9576    5.7737 C   0  0  0  0  0  0  0  0  0  0  0  0
    1.1949   -9.9338    4.2940 N   0  0  1  0  0  0  0  0  0  0  0  0
    0.8578  -11.2698    3.7499 C   0  0  0  0  0  0  0  0  0  0  0  0
   -2.8067   -8.4545    2.4317 H   0  0  0  0  0  0  0  0  0  0  0  0
   -1.3767   -8.1065    1.5220 H   0  0  0  0  0  0  0  0  0  0  0  0
   -1.8277   -7.0575    2.9031 H   0  0  0  0  0  0  0  0  0  0  0  0
   -1.5394   -9.0663    4.4283 H   0  0  0  0  0  0  0  0  0  0  0  0
   -1.2092   -9.9958    3.0146 H   0  0  0  0  0  0  0  0  0  0  0  0
    0.7994   -7.6056    1.8024 H   0  0  0  0  0  0  0  0  0  0  0  0
    0.9613   -9.3511    1.6740 H   0  0  0  0  0  0  0  0  0  0  0  0
    2.2505   -8.4333    2.3462 H   0  0  0  0  0  0  0  0  0  0  0  0
   -0.2463   -7.5051    5.3312 H   0  0  0  0  0  0  0  0  0  0  0  0
    0.6179   -5.8561    3.1057 H   0  0  0  0  0  0  0  0  0  0  0  0
    0.3091   -4.0454    4.7910 H   0  0  0  0  0  0  0  0  0  0  0  0
   -0.8679   -5.2594    5.3088 H   0  0  0  0  0  0  0  0  0  0  0  0
    1.2879   -4.2608    6.9063 H   0  0  0  0  0  0  0  0  0  0  0  0
    0.4052   -5.7439    7.2309 H   0  0  0  0  0  0  0  0  0  0  0  0
    3.6815   -6.7603    7.5086 H   0  0  0  0  0  0  0  0  0  0  0  0
    4.2683   -4.4313    5.6379 H   0  0  0  0  0  0  0  0  0  0  0  0
    7.3321   -7.9866    3.9488 H   0  0  0  0  0  0  0  0  0  0  0  0
    6.1049   -8.4007    2.7464 H   0  0  0  0  0  0  0  0  0  0  0  0
    4.3106   -5.5940    2.6275 H   0  0  0  0  0  0  0  0  0  0  0  0
    5.1971   -4.5602    3.7780 H   0  0  0  0  0  0  0  0  0  0  0  0
    4.7410   -3.3812    1.5169 H   0  0  0  0  0  0  0  0  0  0  0  0
    5.2029   -1.7496   -0.2939 H   0  0  0  0  0  0  0  0  0  0  0  0
    7.3192   -1.9005   -1.5967 H   0  0  0  0  0  0  0  0  0  0  0  0
    9.0337   -3.5822   -1.0276 H   0  0  0  0  0  0  0  0  0  0  0  0
    9.5038   -5.7749    0.0551 H   0  0  0  0  0  0  0  0  0  0  0  0
    9.4926   -5.1731    1.7147 H   0  0  0  0  0  0  0  0  0  0  0  0
    8.9185   -7.5267    1.9040 H   0  0  0  0  0  0  0  0  0  0  0  0
    7.8171   -7.4057    0.5297 H   0  0  0  0  0  0  0  0  0  0  0  0
    2.8412   -5.0554    4.1739 H   0  0  0  0  0  0  0  0  0  0  0  0
    2.9912   -9.0540    6.6065 H   0  0  0  0  0  0  0  0  0  0  0  0
    1.5193   -8.5833    7.3632 H   0  0  0  0  0  0  0  0  0  0  0  0
    1.6841  -10.8629    6.0760 H   0  0  0  0  0  0  0  0  0  0  0  0
    0.1667   -9.9972    6.1497 H   0  0  0  0  0  0  0  0  0  0  0  0
   -0.1102  -11.6092    4.1015 H   0  0  0  0  0  0  0  0  0  0  0  0
    1.5765  -12.0187    4.0733 H   0  0  0  0  0  0  0  0  0  0  0  0
    0.8513  -11.2826    2.6646 H   0  0  0  0  0  0  0  0  0  0  0  0
    2.1644   -9.8031    4.0527 H   0  0  0  0  0  0  0  0  0  0  0  0
  1  2  1  0
  1 36  1  0
  1 37  1  0
  1 38  1  0
  3  2  1  6
  2 39  1  0
  2 40  1  0
  3 34  1  0
  3  4  1  0
  3  5  1  0
  4 41  1  0
  4 42  1  0
  4 43  1  0
  5 31  1  0
  5  6  1  0
  5 44  1  1
  6 30  1  0
  6  7  1  0
  6 45  1  6
  7  8  1  0
  7 46  1  0
  7 47  1  0
  9  8  1  1
  8 48  1  0
  8 49  1  0
  9 30  1  0
  9 31  1  0
  9 10  1  0
 10 11  2  3
 10 50  1  0
 11 12  1  0
 11 51  1  0
 12 13  2  3
 13 14  1  0
 14 18  1  6
 14 15  1  0
 14 27  1  0
 15 16  1  0
 15 52  1  0
 15 53  1  0
 16 26  1  0
 16 17  2  0
 17 18  1  0
 17 19  1  0
 18 54  1  0
 18 55  1  0
 19 24  2  0
 19 20  1  0
 20 21  2  0
 20 56  1  0
 21 22  1  0
 21 57  1  0
 22 23  2  0
 22 58  1  0
 23 24  1  0
 23 59  1  0
 24 25  1  0
 25 26  1  0
 25 60  1  0
 25 61  1  0
 26 62  1  0
 26 63  1  0
 27 28  2  0
 27 29  1  0
 29 30  1  0
 29 31  1  0
 30 64  1  1
 31 32  1  1
 32 33  1  0
 32 65  1  0
 32 66  1  0
 33 34  1  0
 33 67  1  0
 33 68  1  0
 34 35  1  0
 34 72  1  1
 35 69  1  0
 35 70  1  0
 35 71  1  0
M  CHG  1  34   1
M  END
>  <i_m_ct_stereo_status>  (303) 
1

>  <s_m_source_file>  (303) 
/var/tmp/pbs.5076255.sched01/tmp0eyfkrct/966b1hsbd3.sdf

>  <i_m_source_file_index>  (303) 
41

>  <i_lp_mmshare_version>  (303) 
48012

>  <i_f3d_flags>  (303) 
0

>  <s_epik_input>  (303) 
W0NIMl0xW0NIMl1OKFtDSDNdKVtDQEBdKFtDSDNdKShbQ0gyXVtDSDNdKVtDQEBIXShbQ0BAXTEyW0NAQF0zNDUpW0NAQEhdKFtDSDJdW0NIMl0zKVtDQEBIXTVOMkMoPU8pW0NAQF02KFxOPU4vW0NIXT1bQ0hdXDQpW0NIMl1DNz1DKFtDSDJdNiljOGMoW0NIMl1bQ0gyXTcpW2NIXVtjSF1bY0hdW2NIXTg=

>  <s_epik_cmdline>  (303) 
J2VwaWtfcHl0aG9uJywgJy1waHQnLCAnMi4wJywgJy1waCcsICc3LjAnLCAnLXRuJywgJzgnLCAnLW1hJywgJzIwMCcsICctaW1hZScsICc8aW5maWxlLm1hZT4nLCAnLW9tYWUnLCAnPG91dGZpbGUubWFlPic=

>  <r_epik_Ionization_Penalty>  (303) 
0.00122337

>  <r_epik_Ionization_Penalty_Charging>  (303) 
0.00122337

>  <r_epik_Ionization_Penalty_Neutral>  (303) 
1.44336e-10

>  <r_epik_State_Penalty>  (303) 
0.000808394

>  <r_epik_Charging_Adjusted_Penalty>  (303) 
0.00203177

>  <i_epik_Tot_Q>  (303) 
1

>  <i_epik_Tot_abs_Q>  (303) 
1

>  <s_lp_Force_Field>  (303) 
OPLS3e

>  <r_lp_Energy>  (303) 
137.039

>  <b_lp_Chiralities_Consistent>  (303) 
1

>  <s_lp_Variant>  (303) 
89:0-2

>  <s_i_glide_gridfile>  (303) 
pfpi4k_grid

>  <i_i_glide_lignum>  (303) 
41

>  <i_i_glide_rotatable_bonds>  (303) 
1

>  <r_i_docking_score>  (303) 
-3.03285

>  <r_i_glide_ligand_efficiency>  (303) 
-0.0866529

>  <r_i_glide_ligand_efficiency_sa>  (303) 
-0.283448

>  <r_i_glide_ligand_efficiency_ln>  (303) 
-0.665779

>  <r_i_glide_gscore>  (303) 
-3.03285

>  <r_i_glide_lipo>  (303) 
-0.743471

>  <r_i_glide_hbond>  (303) 
0

>  <r_i_glide_metal>  (303) 
-0

>  <r_i_glide_rewards>  (303) 
-0.706993

>  <r_i_glide_evdw>  (303) 
-24.9054

>  <r_i_glide_ecoul>  (303) 
-2.09087

>  <r_i_glide_erotb>  (303) 
0

>  <r_i_glide_esite>  (303) 
-0.0234876

>  <r_i_glide_emodel>  (303) 
-37.4501

>  <r_i_glide_energy>  (303) 
-26.9963

>  <r_i_glide_einternal>  (303) 
1.26142

>  <r_i_glide_intrahb_reward>  (303) 
-0.5

>  <i_i_glide_confnum>  (303) 
2

>  <i_i_glide_posenum>  (303) 
15

>  <r_i_glide_eff_state_penalty>  (303) 
0

>  <ligand_id>  (303) 
89

>  <original_smiles>  (303) 
CCC1(C)C2C3CCC45C=CN=NC6(CC7=C(C6)c6ccccc6CC7)C(=O)N(C34)C25CCN1C

>  <smiles>  (303) 
[H]C1=C([H])C23C([H])([H])C([H])([H])C4([H])C2([H])N(C(=O)C2(N=N1)C([H])([H])C1=C(C([H])([H])C([H])([H])c5c([H])c([H])c([H])c([H])c51)C2([H])[H])C31C([H])([H])C([H])([H])[N+]([H])(C([H])([H])[H])C(C([H])([H])[H])(C([H])([H])C([H])([H])[H])C41[H]

$$$$
89:2:0
     RDKit          3D

 72 79  0  0  1  0  0  0  0  0999 V2000
    0.7894  -11.1810    4.6712 C   0  0  0  0  0  0  0  0  0  0  0  0
    2.0780  -11.4384    3.8761 C   0  0  0  0  0  0  0  0  0  0  0  0
    2.9102  -10.2029    3.3856 C   0  0  1  0  0  0  0  0  0  0  0  0
    1.9694   -9.3530    2.4830 C   0  0  0  0  0  0  0  0  0  0  0  0
    3.4883   -9.4569    4.6342 C   0  0  2  0  0  0  0  0  0  0  0  0
    2.6381   -8.5691    5.5931 C   0  0  1  0  0  0  0  0  0  0  0  0
    3.0900   -8.9191    7.0287 C   0  0  0  0  0  0  0  0  0  0  0  0
    4.5817   -8.4915    7.0340 C   0  0  0  0  0  0  0  0  0  0  0  0
    4.7473   -7.6537    5.7505 C   0  0  2  0  0  0  0  0  0  0  0  0
    5.9266   -6.6915    5.9589 C   0  0  0  0  0  0  0  0  0  0  0  0
    6.0007   -5.3415    5.9722 C   0  0  0  0  0  0  0  0  0  0  0  0
    4.9335   -4.6074    5.5020 N   0  0  0  0  0  0  0  0  0  0  0  0
    5.0334   -4.5300    4.2701 N   0  0  0  0  0  0  0  0  0  0  0  0
    3.8256   -4.7277    3.4205 C   0  0  2  0  0  0  0  0  0  0  0  0
    4.0576   -3.7285    2.2452 C   0  0  0  0  0  0  0  0  0  0  0  0
    3.0990   -2.6064    2.5452 C   0  0  0  0  0  0  0  0  0  0  0  0
    2.2591   -2.8818    3.5275 C   0  0  0  0  0  0  0  0  0  0  0  0
    2.4944   -4.2520    4.1221 C   0  0  0  0  0  0  0  0  0  0  0  0
    1.1708   -1.9578    3.9103 C   0  0  0  0  0  0  0  0  0  0  0  0
    0.0939   -2.3619    4.7066 C   0  0  0  0  0  0  0  0  0  0  0  0
   -0.9804   -1.4815    4.9510 C   0  0  0  0  0  0  0  0  0  0  0  0
   -0.9677   -0.1844    4.3965 C   0  0  0  0  0  0  0  0  0  0  0  0
    0.1158    0.2359    3.6145 C   0  0  0  0  0  0  0  0  0  0  0  0
    1.1923   -0.6416    3.3609 C   0  0  0  0  0  0  0  0  0  0  0  0
    2.3742   -0.1903    2.5126 C   0  0  0  0  0  0  0  0  0  0  0  0
    3.0260   -1.3405    1.7118 C   0  0  0  0  0  0  0  0  0  0  0  0
    3.9013   -6.2289    3.0335 C   0  0  0  0  0  0  0  0  0  0  0  0
    4.0366   -6.5416    1.8435 O   0  0  0  0  0  0  0  0  0  0  0  0
    3.6818   -7.2628    3.9697 N   0  0  0  0  0  0  0  0  0  0  0  0
    3.3283   -7.2242    5.3735 C   0  0  1  0  0  0  0  0  0  0  0  0
    4.5469   -8.3827    4.3702 C   0  0  2  0  0  0  0  0  0  0  0  0
    5.6459   -8.8461    3.4061 C   0  0  0  0  0  0  0  0  0  0  0  0
    5.0448   -9.5729    2.1859 C   0  0  0  0  0  0  0  0  0  0  0  0
    4.0871  -10.6634    2.5401 N   0  0  1  0  0  0  0  0  0  0  0  0
    4.8049  -11.8780    3.0063 C   0  0  0  0  0  0  0  0  0  0  0  0
    0.2713  -12.1299    4.8134 H   0  0  0  0  0  0  0  0  0  0  0  0
    0.0898  -10.5184    4.1604 H   0  0  0  0  0  0  0  0  0  0  0  0
    0.9998  -10.7962    5.6698 H   0  0  0  0  0  0  0  0  0  0  0  0
    2.6847  -12.0725    4.5258 H   0  0  0  0  0  0  0  0  0  0  0  0
    1.8255  -12.0377    3.0030 H   0  0  0  0  0  0  0  0  0  0  0  0
    1.1253   -8.9573    3.0359 H   0  0  0  0  0  0  0  0  0  0  0  0
    1.5761   -9.9584    1.6686 H   0  0  0  0  0  0  0  0  0  0  0  0
    2.4500   -8.5007    2.0114 H   0  0  0  0  0  0  0  0  0  0  0  0
    3.9638  -10.2537    5.2181 H   0  0  0  0  0  0  0  0  0  0  0  0
    1.5632   -8.5547    5.4047 H   0  0  0  0  0  0  0  0  0  0  0  0
    2.5266   -8.3079    7.7345 H   0  0  0  0  0  0  0  0  0  0  0  0
    2.9265   -9.9705    7.2819 H   0  0  0  0  0  0  0  0  0  0  0  0
    4.8228   -7.9519    7.9522 H   0  0  0  0  0  0  0  0  0  0  0  0
    5.2292   -9.3704    7.0230 H   0  0  0  0  0  0  0  0  0  0  0  0
    6.8194   -7.1936    6.3033 H   0  0  0  0  0  0  0  0  0  0  0  0
    6.9260   -4.8808    6.2634 H   0  0  0  0  0  0  0  0  0  0  0  0
    5.0729   -3.3387    2.2171 H   0  0  0  0  0  0  0  0  0  0  0  0
    3.8266   -4.1202    1.2488 H   0  0  0  0  0  0  0  0  0  0  0  0
    1.6350   -4.8820    3.8772 H   0  0  0  0  0  0  0  0  0  0  0  0
    2.5367   -4.1617    5.1978 H   0  0  0  0  0  0  0  0  0  0  0  0
    0.0569   -3.3673    5.1005 H   0  0  0  0  0  0  0  0  0  0  0  0
   -1.8255   -1.8118    5.5226 H   0  0  0  0  0  0  0  0  0  0  0  0
   -1.8061    0.4799    4.5492 H   0  0  0  0  0  0  0  0  0  0  0  0
    0.1232    1.2232    3.1765 H   0  0  0  0  0  0  0  0  0  0  0  0
    2.0944    0.6387    1.8571 H   0  0  0  0  0  0  0  0  0  0  0  0
    3.1229    0.2086    3.2027 H   0  0  0  0  0  0  0  0  0  0  0  0
    3.9942   -1.0460    1.2997 H   0  0  0  0  0  0  0  0  0  0  0  0
    2.3732   -1.5782    0.8708 H   0  0  0  0  0  0  0  0  0  0  0  0
    2.9348   -6.3357    5.8308 H   0  0  0  0  0  0  0  0  0  0  0  0
    6.2778   -8.0140    3.0887 H   0  0  0  0  0  0  0  0  0  0  0  0
    6.3042   -9.5423    3.9407 H   0  0  0  0  0  0  0  0  0  0  0  0
    4.5761   -8.8668    1.4962 H   0  0  0  0  0  0  0  0  0  0  0  0
    5.8690   -9.9987    1.6080 H   0  0  0  0  0  0  0  0  0  0  0  0
    5.2450  -11.7400    3.9971 H   0  0  0  0  0  0  0  0  0  0  0  0
    5.6091  -12.1248    2.3039 H   0  0  0  0  0  0  0  0  0  0  0  0
    4.1465  -12.7532    3.0124 H   0  0  0  0  0  0  0  0  0  0  0  0
    3.7452  -10.9683    1.6309 H   0  0  0  0  0  0  0  0  0  0  0  0
  1  2  1  0
  1 36  1  0
  1 37  1  0
  1 38  1  0
  3  2  1  1
  2 39  1  0
  2 40  1  0
  3 34  1  0
  3  4  1  0
  3  5  1  0
  4 41  1  0
  4 42  1  0
  4 43  1  0
  5 31  1  0
  5  6  1  0
  5 44  1  1
  6 30  1  0
  6  7  1  0
  6 45  1  1
  7  8  1  0
  7 46  1  0
  7 47  1  0
  9  8  1  1
  8 48  1  0
  8 49  1  0
  9 30  1  0
  9 31  1  0
  9 10  1  0
 10 11  2  3
 10 50  1  0
 11 12  1  0
 11 51  1  0
 12 13  2  3
 13 14  1  0
 14 18  1  1
 14 15  1  0
 14 27  1  0
 15 16  1  0
 15 52  1  0
 15 53  1  0
 16 26  1  0
 16 17  2  0
 17 18  1  0
 17 19  1  0
 18 54  1  0
 18 55  1  0
 19 24  2  0
 19 20  1  0
 20 21  2  0
 20 56  1  0
 21 22  1  0
 21 57  1  0
 22 23  2  0
 22 58  1  0
 23 24  1  0
 23 59  1  0
 24 25  1  0
 25 26  1  0
 25 60  1  0
 25 61  1  0
 26 62  1  0
 26 63  1  0
 27 28  2  0
 27 29  1  0
 29 30  1  0
 29 31  1  0
 30 64  1  1
 31 32  1  6
 32 33  1  0
 32 65  1  0
 32 66  1  0
 33 34  1  0
 33 67  1  0
 33 68  1  0
 34 35  1  0
 34 72  1  6
 35 69  1  0
 35 70  1  0
 35 71  1  0
M  CHG  1  34   1
M  END
>  <i_m_ct_stereo_status>  (304) 
1

>  <s_m_source_file>  (304) 
/var/tmp/pbs.5076255.sched01/tmp0eyfkrct/966b1hsbd3.sdf

>  <i_m_source_file_index>  (304) 
42

>  <i_lp_mmshare_version>  (304) 
48012

>  <i_f3d_flags>  (304) 
0

>  <s_epik_input>  (304) 
W0NIMl0xW0NIMl1OKFtDSDNdKVtDQEBdKFtDSDNdKShbQ0gyXVtDSDNdKVtDQEBIXShbQ0BAXTEyW0NAQF0zNDUpW0NAQEhdKFtDSDJdW0NIMl0zKVtDQEBIXTVOMkMoPU8pW0NAQF02KFxOPU4vW0NIXT1bQ0hdXDQpW0NIMl1DNz1DKFtDSDJdNiljOGMoW0NIMl1bQ0gyXTcpW2NIXVtjSF1bY0hdW2NIXTg=

>  <s_epik_cmdline>  (304) 
J2VwaWtfcHl0aG9uJywgJy1waHQnLCAnMi4wJywgJy1waCcsICc3LjAnLCAnLXRuJywgJzgnLCAnLW1hJywgJzIwMCcsICctaW1hZScsICc8aW5maWxlLm1hZT4nLCAnLW9tYWUnLCAnPG91dGZpbGUubWFlPic=

>  <r_epik_Ionization_Penalty>  (304) 
0.00122337

>  <r_epik_Ionization_Penalty_Charging>  (304) 
0.00122337

>  <r_epik_Ionization_Penalty_Neutral>  (304) 
1.44336e-10

>  <r_epik_State_Penalty>  (304) 
0.000808394

>  <r_epik_Charging_Adjusted_Penalty>  (304) 
0.00203177

>  <i_epik_Tot_Q>  (304) 
1

>  <i_epik_Tot_abs_Q>  (304) 
1

>  <s_lp_Force_Field>  (304) 
OPLS3e

>  <r_lp_Energy>  (304) 
122.045

>  <b_lp_Chiralities_Consistent>  (304) 
1

>  <s_lp_Variant>  (304) 
89:0-3

>  <s_i_glide_gridfile>  (304) 
pfpi4k_grid

>  <i_i_glide_lignum>  (304) 
42

>  <i_i_glide_rotatable_bonds>  (304) 
1

>  <r_i_docking_score>  (304) 
-2.2961

>  <r_i_glide_ligand_efficiency>  (304) 
-0.0656029

>  <r_i_glide_ligand_efficiency_sa>  (304) 
-0.214591

>  <r_i_glide_ligand_efficiency_ln>  (304) 
-0.504045

>  <r_i_glide_gscore>  (304) 
-2.2961

>  <r_i_glide_lipo>  (304) 
-0.126793

>  <r_i_glide_hbond>  (304) 
-0.172077

>  <r_i_glide_metal>  (304) 
-0

>  <r_i_glide_rewards>  (304) 
-0.206993

>  <r_i_glide_evdw>  (304) 
-22.6642

>  <r_i_glide_ecoul>  (304) 
-3.71351

>  <r_i_glide_erotb>  (304) 
0

>  <r_i_glide_esite>  (304) 
-0.1

>  <r_i_glide_emodel>  (304) 
-30.8083

>  <r_i_glide_energy>  (304) 
-26.3777

>  <r_i_glide_einternal>  (304) 
0.0223209

>  <r_i_glide_intrahb_reward>  (304) 
-0

>  <i_i_glide_confnum>  (304) 
1

>  <i_i_glide_posenum>  (304) 
14

>  <r_i_glide_eff_state_penalty>  (304) 
0

>  <ligand_id>  (304) 
89

>  <original_smiles>  (304) 
CCC1(C)C2C3CCC45C=CN=NC6(CC7=C(C6)c6ccccc6CC7)C(=O)N(C34)C25CCN1C

>  <smiles>  (304) 
[H]C1=C([H])C23C([H])([H])C([H])([H])C4([H])C2([H])N(C(=O)C2(N=N1)C([H])([H])C1=C(C([H])([H])C([H])([H])c5c([H])c([H])c([H])c([H])c51)C2([H])[H])C31C([H])([H])C([H])([H])[N+]([H])(C([H])([H])[H])C(C([H])([H])[H])(C([H])([H])C([H])([H])[H])C41[H]

$$$$
89:2:1
     RDKit          3D

 72 79  0  0  1  0  0  0  0  0999 V2000
   -1.9565   -8.6625    3.9084 C   0  0  0  0  0  0  0  0  0  0  0  0
   -0.8081   -9.5023    3.3214 C   0  0  0  0  0  0  0  0  0  0  0  0
    0.5014   -8.7676    2.9532 C   0  0  1  0  0  0  0  0  0  0  0  0
    0.0817   -7.7287    1.8689 C   0  0  0  0  0  0  0  0  0  0  0  0
    1.1362   -8.1695    4.2477 C   0  0  2  0  0  0  0  0  0  0  0  0
    0.5692   -6.9254    5.0040 C   0  0  1  0  0  0  0  0  0  0  0  0
    0.6485   -7.2568    6.5134 C   0  0  0  0  0  0  0  0  0  0  0  0
    2.1704   -7.4220    6.7441 C   0  0  0  0  0  0  0  0  0  0  0  0
    2.8221   -6.8568    5.4704 C   0  0  2  0  0  0  0  0  0  0  0  0
    4.2387   -6.3919    5.8167 C   0  0  0  0  0  0  0  0  0  0  0  0
    4.8224   -5.1750    5.7862 C   0  0  0  0  0  0  0  0  0  0  0  0
    4.2032   -4.1513    5.0973 N   0  0  0  0  0  0  0  0  0  0  0  0
    4.4836   -4.2630    3.8988 N   0  0  0  0  0  0  0  0  0  0  0  0
    3.4242   -4.0815    2.8644 C   0  0  2  0  0  0  0  0  0  0  0  0
    4.1832   -3.3840    1.6972 C   0  0  0  0  0  0  0  0  0  0  0  0
    3.6934   -1.9700    1.7629 C   0  0  0  0  0  0  0  0  0  0  0  0
    2.6886   -1.7979    2.6080 C   0  0  0  0  0  0  0  0  0  0  0  0
    2.2996   -3.0696    3.3100 C   0  0  0  0  0  0  0  0  0  0  0  0
    1.9926   -0.5076    2.7491 C   0  0  0  0  0  0  0  0  0  0  0  0
    0.7394   -0.3830    3.3728 C   0  0  0  0  0  0  0  0  0  0  0  0
    0.0713    0.8541    3.3868 C   0  0  0  0  0  0  0  0  0  0  0  0
    0.6622    1.9823    2.7839 C   0  0  0  0  0  0  0  0  0  0  0  0
    1.9191    1.8723    2.1729 C   0  0  0  0  0  0  0  0  0  0  0  0
    2.5848    0.6300    2.1432 C   0  0  0  0  0  0  0  0  0  0  0  0
    3.9558    0.4872    1.4979 C   0  0  0  0  0  0  0  0  0  0  0  0
    4.2143   -0.8808    0.8549 C   0  0  0  0  0  0  0  0  0  0  0  0
    2.9713   -5.5312    2.5790 C   0  0  0  0  0  0  0  0  0  0  0  0
    3.1198   -6.0023    1.4394 O   0  0  0  0  0  0  0  0  0  0  0  0
    2.2430   -6.3016    3.5203 N   0  0  0  0  0  0  0  0  0  0  0  0
    1.7454   -5.9674    4.8416 C   0  0  1  0  0  0  0  0  0  0  0  0
    2.5471   -7.6059    4.1175 C   0  0  2  0  0  0  0  0  0  0  0  0
    3.5037   -8.5606    3.3693 C   0  0  0  0  0  0  0  0  0  0  0  0
    2.8373   -9.1479    2.1060 C   0  0  0  0  0  0  0  0  0  0  0  0
    1.4934   -9.7420    2.3529 N   0  0  1  0  0  0  0  0  0  0  0  0
    1.6257  -11.0788    3.0114 C   0  0  0  0  0  0  0  0  0  0  0  0
   -2.7911   -9.3372    4.0463 H   0  0  0  0  0  0  0  0  0  0  0  0
   -2.3146   -7.8506    3.2736 H   0  0  0  0  0  0  0  0  0  0  0  0
   -1.7237   -8.3142    4.9152 H   0  0  0  0  0  0  0  0  0  0  0  0
   -0.5753  -10.2470    4.0803 H   0  0  0  0  0  0  0  0  0  0  0  0
   -1.1712  -10.0648    2.4619 H   0  0  0  0  0  0  0  0  0  0  0  0
   -0.6068   -6.9904    2.2673 H   0  0  0  0  0  0  0  0  0  0  0  0
   -0.4360   -8.2304    1.0545 H   0  0  0  0  0  0  0  0  0  0  0  0
    0.9128   -7.1911    1.4282 H   0  0  0  0  0  0  0  0  0  0  0  0
    1.1763   -9.0175    4.9427 H   0  0  0  0  0  0  0  0  0  0  0  0
   -0.3820   -6.5347    4.6390 H   0  0  0  0  0  0  0  0  0  0  0  0
    0.2711   -6.4046    7.0822 H   0  0  0  0  0  0  0  0  0  0  0  0
    0.0638   -8.1395    6.7891 H   0  0  0  0  0  0  0  0  0  0  0  0
    2.4743   -6.9132    7.6585 H   0  0  0  0  0  0  0  0  0  0  0  0
    2.4236   -8.4733    6.8882 H   0  0  0  0  0  0  0  0  0  0  0  0
    4.8148   -7.1450    6.3389 H   0  0  0  0  0  0  0  0  0  0  0  0
    5.8094   -5.0507    6.1922 H   0  0  0  0  0  0  0  0  0  0  0  0
    5.2654   -3.4044    1.8186 H   0  0  0  0  0  0  0  0  0  0  0  0
    3.9575   -3.7738    0.7002 H   0  0  0  0  0  0  0  0  0  0  0  0
    1.3083   -3.3591    2.9538 H   0  0  0  0  0  0  0  0  0  0  0  0
    2.2257   -2.8816    4.3715 H   0  0  0  0  0  0  0  0  0  0  0  0
    0.2705   -1.2450    3.8130 H   0  0  0  0  0  0  0  0  0  0  0  0
   -0.9076    0.9457    3.8267 H   0  0  0  0  0  0  0  0  0  0  0  0
    0.1474    2.9324    2.7573 H   0  0  0  0  0  0  0  0  0  0  0  0
    2.3464    2.7504    1.7103 H   0  0  0  0  0  0  0  0  0  0  0  0
    4.1731    1.3036    0.8132 H   0  0  0  0  0  0  0  0  0  0  0  0
    4.6749    0.5280    2.3240 H   0  0  0  0  0  0  0  0  0  0  0  0
    5.2753   -0.9994    0.6190 H   0  0  0  0  0  0  0  0  0  0  0  0
    3.6579   -0.9430   -0.0817 H   0  0  0  0  0  0  0  0  0  0  0  0
    1.6619   -4.9544    5.1717 H   0  0  0  0  0  0  0  0  0  0  0  0
    4.4425   -8.0591    3.1254 H   0  0  0  0  0  0  0  0  0  0  0  0
    3.7590   -9.3831    4.0512 H   0  0  0  0  0  0  0  0  0  0  0  0
    2.7788   -8.3959    1.3154 H   0  0  0  0  0  0  0  0  0  0  0  0
    3.5062   -9.9113    1.7000 H   0  0  0  0  0  0  0  0  0  0  0  0
    1.9051  -10.9879    4.0603 H   0  0  0  0  0  0  0  0  0  0  0  0
    2.3720  -11.6795    2.4965 H   0  0  0  0  0  0  0  0  0  0  0  0
    0.6961  -11.6423    2.9489 H   0  0  0  0  0  0  0  0  0  0  0  0
    1.1383   -9.9242    1.4362 H   0  0  0  0  0  0  0  0  0  0  0  0
  1  2  1  0
  1 36  1  0
  1 37  1  0
  1 38  1  0
  3  2  1  1
  2 39  1  0
  2 40  1  0
  3 34  1  0
  3  4  1  0
  3  5  1  0
  4 41  1  0
  4 42  1  0
  4 43  1  0
  5 31  1  0
  5  6  1  0
  5 44  1  1
  6 30  1  0
  6  7  1  0
  6 45  1  6
  7  8  1  0
  7 46  1  0
  7 47  1  0
  9  8  1  1
  8 48  1  0
  8 49  1  0
  9 30  1  0
  9 31  1  0
  9 10  1  0
 10 11  2  3
 10 50  1  0
 11 12  1  0
 11 51  1  0
 12 13  2  3
 13 14  1  0
 14 18  1  1
 14 15  1  0
 14 27  1  0
 15 16  1  0
 15 52  1  0
 15 53  1  0
 16 26  1  0
 16 17  2  0
 17 18  1  0
 17 19  1  0
 18 54  1  0
 18 55  1  0
 19 24  2  0
 19 20  1  0
 20 21  2  0
 20 56  1  0
 21 22  1  0
 21 57  1  0
 22 23  2  0
 22 58  1  0
 23 24  1  0
 23 59  1  0
 24 25  1  0
 25 26  1  0
 25 60  1  0
 25 61  1  0
 26 62  1  0
 26 63  1  0
 27 28  2  0
 27 29  1  0
 29 30  1  0
 29 31  1  0
 30 64  1  1
 31 32  1  6
 32 33  1  0
 32 65  1  0
 32 66  1  0
 33 34  1  0
 33 67  1  0
 33 68  1  0
 34 35  1  0
 34 72  1  6
 35 69  1  0
 35 70  1  0
 35 71  1  0
M  CHG  1  34   1
M  END
>  <i_m_ct_stereo_status>  (305) 
1

>  <s_m_source_file>  (305) 
/var/tmp/pbs.5076255.sched01/tmp0eyfkrct/966b1hsbd3.sdf

>  <i_m_source_file_index>  (305) 
42

>  <i_lp_mmshare_version>  (305) 
48012

>  <i_f3d_flags>  (305) 
0

>  <s_epik_input>  (305) 
W0NIMl0xW0NIMl1OKFtDSDNdKVtDQEBdKFtDSDNdKShbQ0gyXVtDSDNdKVtDQEBIXShbQ0BAXTEyW0NAQF0zNDUpW0NAQEhdKFtDSDJdW0NIMl0zKVtDQEBIXTVOMkMoPU8pW0NAQF02KFxOPU4vW0NIXT1bQ0hdXDQpW0NIMl1DNz1DKFtDSDJdNiljOGMoW0NIMl1bQ0gyXTcpW2NIXVtjSF1bY0hdW2NIXTg=

>  <s_epik_cmdline>  (305) 
J2VwaWtfcHl0aG9uJywgJy1waHQnLCAnMi4wJywgJy1waCcsICc3LjAnLCAnLXRuJywgJzgnLCAnLW1hJywgJzIwMCcsICctaW1hZScsICc8aW5maWxlLm1hZT4nLCAnLW9tYWUnLCAnPG91dGZpbGUubWFlPic=

>  <r_epik_Ionization_Penalty>  (305) 
0.00122337

>  <r_epik_Ionization_Penalty_Charging>  (305) 
0.00122337

>  <r_epik_Ionization_Penalty_Neutral>  (305) 
1.44336e-10

>  <r_epik_State_Penalty>  (305) 
0.000808394

>  <r_epik_Charging_Adjusted_Penalty>  (305) 
0.00203177

>  <i_epik_Tot_Q>  (305) 
1

>  <i_epik_Tot_abs_Q>  (305) 
1

>  <s_lp_Force_Field>  (305) 
OPLS3e

>  <r_lp_Energy>  (305) 
122.045

>  <b_lp_Chiralities_Consistent>  (305) 
1

>  <s_lp_Variant>  (305) 
89:0-3

>  <s_i_glide_gridfile>  (305) 
pfpi4k_grid

>  <i_i_glide_lignum>  (305) 
42

>  <i_i_glide_rotatable_bonds>  (305) 
1

>  <r_i_docking_score>  (305) 
-2.17606

>  <r_i_glide_ligand_efficiency>  (305) 
-0.0621731

>  <r_i_glide_ligand_efficiency_sa>  (305) 
-0.203372

>  <r_i_glide_ligand_efficiency_ln>  (305) 
-0.477693

>  <r_i_glide_gscore>  (305) 
-2.17606

>  <r_i_glide_lipo>  (305) 
-0.190369

>  <r_i_glide_hbond>  (305) 
0

>  <r_i_glide_metal>  (305) 
-0

>  <r_i_glide_rewards>  (305) 
-0.206993

>  <r_i_glide_evdw>  (305) 
-22.5537

>  <r_i_glide_ecoul>  (305) 
-4.32159

>  <r_i_glide_erotb>  (305) 
0

>  <r_i_glide_esite>  (305) 
-0.00277412

>  <r_i_glide_emodel>  (305) 
-30.8695

>  <r_i_glide_energy>  (305) 
-26.8753

>  <r_i_glide_einternal>  (305) 
0.00995232

>  <r_i_glide_intrahb_reward>  (305) 
-0

>  <i_i_glide_confnum>  (305) 
1

>  <i_i_glide_posenum>  (305) 
17

>  <r_i_glide_eff_state_penalty>  (305) 
0

>  <ligand_id>  (305) 
89

>  <original_smiles>  (305) 
CCC1(C)C2C3CCC45C=CN=NC6(CC7=C(C6)c6ccccc6CC7)C(=O)N(C34)C25CCN1C

>  <smiles>  (305) 
[H]C1=C([H])C23C([H])([H])C([H])([H])C4([H])C2([H])N(C(=O)C2(N=N1)C([H])([H])C1=C(C([H])([H])C([H])([H])c5c([H])c([H])c([H])c([H])c51)C2([H])[H])C31C([H])([H])C([H])([H])[N+]([H])(C([H])([H])[H])C(C([H])([H])[H])(C([H])([H])C([H])([H])[H])C41[H]

$$$$
89:2:2
     RDKit          3D

 72 79  0  0  1  0  0  0  0  0999 V2000
   -2.7235    4.2349    3.0705 C   0  0  0  0  0  0  0  0  0  0  0  0
   -1.2868    4.1950    3.6278 C   0  0  0  0  0  0  0  0  0  0  0  0
   -0.7351    2.7873    4.0453 C   0  0  1  0  0  0  0  0  0  0  0  0
   -1.1285    1.7902    2.9172 C   0  0  0  0  0  0  0  0  0  0  0  0
    0.8021    2.9364    4.2709 C   0  0  2  0  0  0  0  0  0  0  0  0
    1.8236    3.1163    3.1142 C   0  0  1  0  0  0  0  0  0  0  0  0
    2.8250    4.1991    3.5740 C   0  0  0  0  0  0  0  0  0  0  0  0
    3.4839    3.5713    4.8322 C   0  0  0  0  0  0  0  0  0  0  0  0
    3.0629    2.0875    4.7685 C   0  0  2  0  0  0  0  0  0  0  0  0
    4.1100    1.2614    5.5381 C   0  0  0  0  0  0  0  0  0  0  0  0
    4.9438    0.2805    5.1537 C   0  0  0  0  0  0  0  0  0  0  0  0
    4.7422   -0.3219    3.9256 N   0  0  0  0  0  0  0  0  0  0  0  0
    3.8946   -1.2285    4.0393 N   0  0  0  0  0  0  0  0  0  0  0  0
    2.8111   -1.3467    3.0406 C   0  0  2  0  0  0  0  0  0  0  0  0
    2.5831   -2.8976    2.9934 C   0  0  0  0  0  0  0  0  0  0  0  0
    3.2339   -3.3044    1.6982 C   0  0  0  0  0  0  0  0  0  0  0  0
    3.5917   -2.2702    0.9546 C   0  0  0  0  0  0  0  0  0  0  0  0
    3.2839   -0.9398    1.5957 C   0  0  0  0  0  0  0  0  0  0  0  0
    4.1592   -2.4465   -0.3955 C   0  0  0  0  0  0  0  0  0  0  0  0
    4.2159   -1.3873   -1.3185 C   0  0  0  0  0  0  0  0  0  0  0  0
    4.6282   -1.6343   -2.6498 C   0  0  0  0  0  0  0  0  0  0  0  0
    5.0121   -2.9330   -3.0278 C   0  0  0  0  0  0  0  0  0  0  0  0
    4.9893   -3.9794   -2.1006 C   0  0  0  0  0  0  0  0  0  0  0  0
    4.5503   -3.7484   -0.7790 C   0  0  0  0  0  0  0  0  0  0  0  0
    4.4776   -4.9115    0.2033 C   0  0  0  0  0  0  0  0  0  0  0  0
    3.3445   -4.7495    1.2437 C   0  0  0  0  0  0  0  0  0  0  0  0
    1.6252   -0.5295    3.6641 C   0  0  0  0  0  0  0  0  0  0  0  0
    0.5899   -1.1151    3.9507 O   0  0  0  0  0  0  0  0  0  0  0  0
    1.6445    0.8895    3.7446 N   0  0  0  0  0  0  0  0  0  0  0  0
    2.6376    1.8422    3.3192 C   0  0  1  0  0  0  0  0  0  0  0  0
    1.5275    1.7619    4.9157 C   0  0  2  0  0  0  0  0  0  0  0  0
    0.8070    1.2199    6.1462 C   0  0  0  0  0  0  0  0  0  0  0  0
   -0.7013    1.0767    5.8995 C   0  0  0  0  0  0  0  0  0  0  0  0
   -1.3446    2.3078    5.3496 N   0  0  1  0  0  0  0  0  0  0  0  0
   -1.5471    3.3290    6.4221 C   0  0  0  0  0  0  0  0  0  0  0  0
   -3.0818    5.2521    2.9227 H   0  0  0  0  0  0  0  0  0  0  0  0
   -3.4150    3.6812    3.7002 H   0  0  0  0  0  0  0  0  0  0  0  0
   -2.7828    3.7845    2.0827 H   0  0  0  0  0  0  0  0  0  0  0  0
   -0.6334    4.5826    2.8708 H   0  0  0  0  0  0  0  0  0  0  0  0
   -1.1757    4.9359    4.4227 H   0  0  0  0  0  0  0  0  0  0  0  0
   -0.7084    2.1035    1.9662 H   0  0  0  0  0  0  0  0  0  0  0  0
   -2.2048    1.7430    2.7878 H   0  0  0  0  0  0  0  0  0  0  0  0
   -0.8365    0.7609    3.0858 H   0  0  0  0  0  0  0  0  0  0  0  0
    0.8829    3.7924    4.9449 H   0  0  0  0  0  0  0  0  0  0  0  0
    1.4141    3.2192    2.1040 H   0  0  0  0  0  0  0  0  0  0  0  0
    3.5743    4.3324    2.7959 H   0  0  0  0  0  0  0  0  0  0  0  0
    2.3556    5.1674    3.7563 H   0  0  0  0  0  0  0  0  0  0  0  0
    4.5666    3.7172    4.8408 H   0  0  0  0  0  0  0  0  0  0  0  0
    3.1071    4.0497    5.7402 H   0  0  0  0  0  0  0  0  0  0  0  0
    4.2935    1.6433    6.5266 H   0  0  0  0  0  0  0  0  0  0  0  0
    5.6886   -0.0731    5.8587 H   0  0  0  0  0  0  0  0  0  0  0  0
    3.0666   -3.4183    3.8195 H   0  0  0  0  0  0  0  0  0  0  0  0
    1.5387   -3.2079    2.9586 H   0  0  0  0  0  0  0  0  0  0  0  0
    2.4988   -0.4622    1.0051 H   0  0  0  0  0  0  0  0  0  0  0  0
    4.1682   -0.3075    1.5442 H   0  0  0  0  0  0  0  0  0  0  0  0
    3.9106   -0.3957   -1.0317 H   0  0  0  0  0  0  0  0  0  0  0  0
    4.6329   -0.8299   -3.3687 H   0  0  0  0  0  0  0  0  0  0  0  0
    5.3055   -3.1706   -4.0389 H   0  0  0  0  0  0  0  0  0  0  0  0
    5.2232   -4.9811   -2.4177 H   0  0  0  0  0  0  0  0  0  0  0  0
    4.4105   -5.8723   -0.3145 H   0  0  0  0  0  0  0  0  0  0  0  0
    5.4302   -4.9209    0.7351 H   0  0  0  0  0  0  0  0  0  0  0  0
    3.4689   -5.4423    2.0781 H   0  0  0  0  0  0  0  0  0  0  0  0
    2.3969   -4.9808    0.7575 H   0  0  0  0  0  0  0  0  0  0  0  0
    3.4021    1.5700    2.6095 H   0  0  0  0  0  0  0  0  0  0  0  0
    1.2236    0.2726    6.4808 H   0  0  0  0  0  0  0  0  0  0  0  0
    0.9615    1.9181    6.9714 H   0  0  0  0  0  0  0  0  0  0  0  0
   -0.9244    0.2264    5.2591 H   0  0  0  0  0  0  0  0  0  0  0  0
   -1.1782    0.8344    6.8414 H   0  0  0  0  0  0  0  0  0  0  0  0
   -0.6076    3.7754    6.7231 H   0  0  0  0  0  0  0  0  0  0  0  0
   -1.9911    2.8739    7.3026 H   0  0  0  0  0  0  0  0  0  0  0  0
   -2.2417    4.1079    6.1289 H   0  0  0  0  0  0  0  0  0  0  0  0
   -2.2706    2.0114    5.0953 H   0  0  0  0  0  0  0  0  0  0  0  0
  1  2  1  0
  1 36  1  0
  1 37  1  0
  1 38  1  0
  3  2  1  6
  2 39  1  0
  2 40  1  0
  3 34  1  0
  3  4  1  0
  3  5  1  0
  4 41  1  0
  4 42  1  0
  4 43  1  0
  5 31  1  0
  5  6  1  0
  5 44  1  1
  6 30  1  0
  6  7  1  0
  6 45  1  6
  7  8  1  0
  7 46  1  0
  7 47  1  0
  9  8  1  6
  8 48  1  0
  8 49  1  0
  9 30  1  0
  9 31  1  0
  9 10  1  0
 10 11  2  3
 10 50  1  0
 11 12  1  0
 11 51  1  0
 12 13  2  3
 13 14  1  0
 14 18  1  6
 14 15  1  0
 14 27  1  0
 15 16  1  0
 15 52  1  0
 15 53  1  0
 16 26  1  0
 16 17  2  0
 17 18  1  0
 17 19  1  0
 18 54  1  0
 18 55  1  0
 19 24  2  0
 19 20  1  0
 20 21  2  0
 20 56  1  0
 21 22  1  0
 21 57  1  0
 22 23  2  0
 22 58  1  0
 23 24  1  0
 23 59  1  0
 24 25  1  0
 25 26  1  0
 25 60  1  0
 25 61  1  0
 26 62  1  0
 26 63  1  0
 27 28  2  0
 27 29  1  0
 29 30  1  0
 29 31  1  0
 30 64  1  6
 31 32  1  1
 32 33  1  0
 32 65  1  0
 32 66  1  0
 33 34  1  0
 33 67  1  0
 33 68  1  0
 34 35  1  0
 34 72  1  6
 35 69  1  0
 35 70  1  0
 35 71  1  0
M  CHG  1  34   1
M  END
>  <i_m_ct_stereo_status>  (306) 
1

>  <s_m_source_file>  (306) 
/var/tmp/pbs.5076255.sched01/tmp0eyfkrct/966b1hsbd3.sdf

>  <i_m_source_file_index>  (306) 
42

>  <i_lp_mmshare_version>  (306) 
48012

>  <i_f3d_flags>  (306) 
0

>  <s_epik_input>  (306) 
W0NIMl0xW0NIMl1OKFtDSDNdKVtDQEBdKFtDSDNdKShbQ0gyXVtDSDNdKVtDQEBIXShbQ0BAXTEyW0NAQF0zNDUpW0NAQEhdKFtDSDJdW0NIMl0zKVtDQEBIXTVOMkMoPU8pW0NAQF02KFxOPU4vW0NIXT1bQ0hdXDQpW0NIMl1DNz1DKFtDSDJdNiljOGMoW0NIMl1bQ0gyXTcpW2NIXVtjSF1bY0hdW2NIXTg=

>  <s_epik_cmdline>  (306) 
J2VwaWtfcHl0aG9uJywgJy1waHQnLCAnMi4wJywgJy1waCcsICc3LjAnLCAnLXRuJywgJzgnLCAnLW1hJywgJzIwMCcsICctaW1hZScsICc8aW5maWxlLm1hZT4nLCAnLW9tYWUnLCAnPG91dGZpbGUubWFlPic=

>  <r_epik_Ionization_Penalty>  (306) 
0.00122337

>  <r_epik_Ionization_Penalty_Charging>  (306) 
0.00122337

>  <r_epik_Ionization_Penalty_Neutral>  (306) 
1.44336e-10

>  <r_epik_State_Penalty>  (306) 
0.000808394

>  <r_epik_Charging_Adjusted_Penalty>  (306) 
0.00203177

>  <i_epik_Tot_Q>  (306) 
1

>  <i_epik_Tot_abs_Q>  (306) 
1

>  <s_lp_Force_Field>  (306) 
OPLS3e

>  <r_lp_Energy>  (306) 
122.045

>  <b_lp_Chiralities_Consistent>  (306) 
1

>  <s_lp_Variant>  (306) 
89:0-3

>  <s_i_glide_gridfile>  (306) 
pfpi4k_grid

>  <i_i_glide_lignum>  (306) 
42

>  <i_i_glide_rotatable_bonds>  (306) 
1

>  <r_i_docking_score>  (306) 
-1.887

>  <r_i_glide_ligand_efficiency>  (306) 
-0.0539144

>  <r_i_glide_ligand_efficiency_sa>  (306) 
-0.176358

>  <r_i_glide_ligand_efficiency_ln>  (306) 
-0.414239

>  <r_i_glide_gscore>  (306) 
-1.887

>  <r_i_glide_lipo>  (306) 
-0.284734

>  <r_i_glide_hbond>  (306) 
0

>  <r_i_glide_metal>  (306) 
-0

>  <r_i_glide_rewards>  (306) 
-0.206993

>  <r_i_glide_evdw>  (306) 
-29.4032

>  <r_i_glide_ecoul>  (306) 
0.592011

>  <r_i_glide_erotb>  (306) 
0

>  <r_i_glide_esite>  (306) 
-0.0139203

>  <r_i_glide_emodel>  (306) 
-30.8297

>  <r_i_glide_energy>  (306) 
-28.8112

>  <r_i_glide_einternal>  (306) 
1.90455

>  <r_i_glide_intrahb_reward>  (306) 
-0

>  <i_i_glide_confnum>  (306) 
2

>  <i_i_glide_posenum>  (306) 
3

>  <r_i_glide_eff_state_penalty>  (306) 
0

>  <ligand_id>  (306) 
89

>  <original_smiles>  (306) 
CCC1(C)C2C3CCC45C=CN=NC6(CC7=C(C6)c6ccccc6CC7)C(=O)N(C34)C25CCN1C

>  <smiles>  (306) 
[H]C1=C([H])C23C([H])([H])C([H])([H])C4([H])C2([H])N(C(=O)C2(N=N1)C([H])([H])C1=C(C([H])([H])C([H])([H])c5c([H])c([H])c([H])c([H])c51)C2([H])[H])C31C([H])([H])C([H])([H])[N+]([H])(C([H])([H])[H])C(C([H])([H])[H])(C([H])([H])C([H])([H])[H])C41[H]

$$$$
89:3:0
     RDKit          3D

 72 79  0  0  1  0  0  0  0  0999 V2000
    5.6611   -0.6153    1.1640 C   0  0  0  0  0  0  0  0  0  0  0  0
    4.1982   -0.1339    1.0906 C   0  0  0  0  0  0  0  0  0  0  0  0
    3.1241   -0.8720    1.9614 C   0  0  1  0  0  0  0  0  0  0  0  0
    3.0306   -2.3404    1.4527 C   0  0  0  0  0  0  0  0  0  0  0  0
    3.4979   -0.7154    3.4786 C   0  0  2  0  0  0  0  0  0  0  0  0
    4.6843   -1.4579    4.1556 C   0  0  1  0  0  0  0  0  0  0  0  0
    5.3698   -0.4596    5.1148 C   0  0  0  0  0  0  0  0  0  0  0  0
    4.2403   -0.1392    6.1408 C   0  0  0  0  0  0  0  0  0  0  0  0
    3.1591   -1.2170    5.8838 C   0  0  2  0  0  0  0  0  0  0  0  0
    2.3027   -1.5052    7.1322 C   0  0  0  0  0  0  0  0  0  0  0  0
    2.4467   -2.5365    7.9959 C   0  0  0  0  0  0  0  0  0  0  0  0
    1.8415   -3.6673    7.5638 N   0  0  0  0  0  0  0  0  0  0  0  0
    2.5938   -4.3149    6.8201 N   0  0  0  0  0  0  0  0  0  0  0  0
    1.9738   -4.9051    5.6139 C   0  0  2  0  0  0  0  0  0  0  0  0
    0.6480   -5.6458    6.0004 C   0  0  0  0  0  0  0  0  0  0  0  0
    0.7509   -6.9394    5.2380 C   0  0  0  0  0  0  0  0  0  0  0  0
    1.9586   -7.1317    4.7122 C   0  0  0  0  0  0  0  0  0  0  0  0
    2.9107   -6.0039    5.0328 C   0  0  0  0  0  0  0  0  0  0  0  0
    2.3161   -8.3808    4.0384 C   0  0  0  0  0  0  0  0  0  0  0  0
    3.6517   -8.7289    3.8205 C   0  0  0  0  0  0  0  0  0  0  0  0
    3.9675   -9.9708    3.2484 C   0  0  0  0  0  0  0  0  0  0  0  0
    2.9378  -10.8633    2.9091 C   0  0  0  0  0  0  0  0  0  0  0  0
    1.6017  -10.5105    3.1122 C   0  0  0  0  0  0  0  0  0  0  0  0
    1.2703   -9.2689    3.6814 C   0  0  0  0  0  0  0  0  0  0  0  0
   -0.1788   -8.8516    3.9089 C   0  0  0  0  0  0  0  0  0  0  0  0
   -0.3555   -7.9765    5.1726 C   0  0  0  0  0  0  0  0  0  0  0  0
    1.7668   -3.7327    4.5937 C   0  0  0  0  0  0  0  0  0  0  0  0
    0.7443   -3.7095    3.9079 O   0  0  0  0  0  0  0  0  0  0  0  0
    2.6623   -2.6634    4.4752 N   0  0  0  0  0  0  0  0  0  0  0  0
    3.9144   -2.3336    5.1411 C   0  0  1  0  0  0  0  0  0  0  0  0
    2.4435   -1.1978    4.4807 C   0  0  2  0  0  0  0  0  0  0  0  0
    1.0585   -0.5819    4.2063 C   0  0  0  0  0  0  0  0  0  0  0  0
    0.6800   -0.7241    2.7082 C   0  0  0  0  0  0  0  0  0  0  0  0
    1.7451   -0.2452    1.7514 N   0  0  1  0  0  0  0  0  0  0  0  0
    1.6836    1.2471    1.7248 C   0  0  0  0  0  0  0  0  0  0  0  0
    6.2476   -0.0893    0.4128 H   0  0  0  0  0  0  0  0  0  0  0  0
    5.7633   -1.6836    0.9761 H   0  0  0  0  0  0  0  0  0  0  0  0
    6.1101   -0.3822    2.1293 H   0  0  0  0  0  0  0  0  0  0  0  0
    4.2074    0.9174    1.3669 H   0  0  0  0  0  0  0  0  0  0  0  0
    3.8742   -0.1563    0.0532 H   0  0  0  0  0  0  0  0  0  0  0  0
    3.9679   -2.8768    1.5764 H   0  0  0  0  0  0  0  0  0  0  0  0
    2.7654   -2.3719    0.3965 H   0  0  0  0  0  0  0  0  0  0  0  0
    2.2691   -2.9324    1.9522 H   0  0  0  0  0  0  0  0  0  0  0  0
    3.6261    0.3695    3.6124 H   0  0  0  0  0  0  0  0  0  0  0  0
    5.3304   -2.0177    3.4823 H   0  0  0  0  0  0  0  0  0  0  0  0
    6.2095   -0.9534    5.6086 H   0  0  0  0  0  0  0  0  0  0  0  0
    5.7672    0.4170    4.5921 H   0  0  0  0  0  0  0  0  0  0  0  0
    4.6584   -0.1409    7.1463 H   0  0  0  0  0  0  0  0  0  0  0  0
    3.8741    0.8739    5.9760 H   0  0  0  0  0  0  0  0  0  0  0  0
    1.2944   -1.1114    7.0327 H   0  0  0  0  0  0  0  0  0  0  0  0
    1.7412   -2.5458    8.7616 H   0  0  0  0  0  0  0  0  0  0  0  0
    0.5667   -5.8786    7.0637 H   0  0  0  0  0  0  0  0  0  0  0  0
   -0.2584   -5.0936    5.7488 H   0  0  0  0  0  0  0  0  0  0  0  0
    3.4717   -5.6547    4.1653 H   0  0  0  0  0  0  0  0  0  0  0  0
    3.6171   -6.3522    5.7775 H   0  0  0  0  0  0  0  0  0  0  0  0
    4.4536   -8.0660    4.1032 H   0  0  0  0  0  0  0  0  0  0  0  0
    4.9868  -10.2545    3.0920 H   0  0  0  0  0  0  0  0  0  0  0  0
    3.1745  -11.8232    2.4800 H   0  0  0  0  0  0  0  0  0  0  0  0
    0.8132  -11.1941    2.8494 H   0  0  0  0  0  0  0  0  0  0  0  0
   -0.4942   -8.2688    3.0385 H   0  0  0  0  0  0  0  0  0  0  0  0
   -0.8275   -9.7236    3.9468 H   0  0  0  0  0  0  0  0  0  0  0  0
   -0.2643   -8.6086    6.0611 H   0  0  0  0  0  0  0  0  0  0  0  0
   -1.3506   -7.5282    5.2053 H   0  0  0  0  0  0  0  0  0  0  0  0
    4.4683   -3.0593    5.7222 H   0  0  0  0  0  0  0  0  0  0  0  0
    0.2966   -1.0412    4.8429 H   0  0  0  0  0  0  0  0  0  0  0  0
    1.0663    0.4897    4.4793 H   0  0  0  0  0  0  0  0  0  0  0  0
    0.4570   -1.7652    2.4783 H   0  0  0  0  0  0  0  0  0  0  0  0
   -0.2564   -0.1799    2.5298 H   0  0  0  0  0  0  0  0  0  0  0  0
    2.0537    1.6917    2.6505 H   0  0  0  0  0  0  0  0  0  0  0  0
    0.6602    1.5977    1.5299 H   0  0  0  0  0  0  0  0  0  0  0  0
    2.2954    1.6408    0.8986 H   0  0  0  0  0  0  0  0  0  0  0  0
    1.4344   -0.5372    0.8247 H   0  0  0  0  0  0  0  0  0  0  0  0
  1  2  1  0
  1 36  1  0
  1 37  1  0
  1 38  1  0
  3  2  1  6
  2 39  1  0
  2 40  1  0
  3 34  1  0
  3  4  1  0
  3  5  1  0
  4 41  1  0
  4 42  1  0
  4 43  1  0
  5 31  1  0
  5  6  1  0
  5 44  1  1
  6 30  1  0
  6  7  1  0
  6 45  1  6
  7  8  1  0
  7 46  1  0
  7 47  1  0
  9  8  1  1
  8 48  1  0
  8 49  1  0
  9 30  1  0
  9 31  1  0
  9 10  1  0
 10 11  2  3
 10 50  1  0
 11 12  1  0
 11 51  1  0
 12 13  2  3
 13 14  1  0
 14 18  1  6
 14 15  1  0
 14 27  1  0
 15 16  1  0
 15 52  1  0
 15 53  1  0
 16 26  1  0
 16 17  2  0
 17 18  1  0
 17 19  1  0
 18 54  1  0
 18 55  1  0
 19 24  2  0
 19 20  1  0
 20 21  2  0
 20 56  1  0
 21 22  1  0
 21 57  1  0
 22 23  2  0
 22 58  1  0
 23 24  1  0
 23 59  1  0
 24 25  1  0
 25 26  1  0
 25 60  1  0
 25 61  1  0
 26 62  1  0
 26 63  1  0
 27 28  2  0
 27 29  1  0
 29 30  1  0
 29 31  1  0
 30 64  1  1
 31 32  1  1
 32 33  1  0
 32 65  1  0
 32 66  1  0
 33 34  1  0
 33 67  1  0
 33 68  1  0
 34 35  1  0
 34 72  1  6
 35 69  1  0
 35 70  1  0
 35 71  1  0
M  CHG  1  34   1
M  END
>  <i_m_ct_stereo_status>  (307) 
1

>  <s_m_source_file>  (307) 
/var/tmp/pbs.5076255.sched01/tmp0eyfkrct/966b1hsbd3.sdf

>  <i_m_source_file_index>  (307) 
43

>  <i_lp_mmshare_version>  (307) 
48012

>  <i_f3d_flags>  (307) 
0

>  <s_epik_input>  (307) 
W0NIMl0xW0NIMl1OKFtDSDNdKVtDQEBdKFtDSDNdKShbQ0gyXVtDSDNdKVtDQEBIXShbQ0BAXTEyW0NAQF0zNDUpW0NAQEhdKFtDSDJdW0NIMl0zKVtDQEBIXTVOMkMoPU8pW0NAQF02KFxOPU4vW0NIXT1bQ0hdXDQpW0NIMl1DNz1DKFtDSDJdNiljOGMoW0NIMl1bQ0gyXTcpW2NIXVtjSF1bY0hdW2NIXTg=

>  <s_epik_cmdline>  (307) 
J2VwaWtfcHl0aG9uJywgJy1waHQnLCAnMi4wJywgJy1waCcsICc3LjAnLCAnLXRuJywgJzgnLCAnLW1hJywgJzIwMCcsICctaW1hZScsICc8aW5maWxlLm1hZT4nLCAnLW9tYWUnLCAnPG91dGZpbGUubWFlPic=

>  <r_epik_Ionization_Penalty>  (307) 
0.00122337

>  <r_epik_Ionization_Penalty_Charging>  (307) 
0.00122337

>  <r_epik_Ionization_Penalty_Neutral>  (307) 
1.44336e-10

>  <r_epik_State_Penalty>  (307) 
0.000808394

>  <r_epik_Charging_Adjusted_Penalty>  (307) 
0.00203177

>  <i_epik_Tot_Q>  (307) 
1

>  <i_epik_Tot_abs_Q>  (307) 
1

>  <s_lp_Force_Field>  (307) 
OPLS3e

>  <r_lp_Energy>  (307) 
154.72

>  <b_lp_Chiralities_Consistent>  (307) 
1

>  <s_lp_Variant>  (307) 
89:0-4

>  <s_i_glide_gridfile>  (307) 
pfpi4k_grid

>  <i_i_glide_lignum>  (307) 
43

>  <i_i_glide_rotatable_bonds>  (307) 
1

>  <r_i_docking_score>  (307) 
-0.474287

>  <r_i_glide_ligand_efficiency>  (307) 
-0.0135511

>  <r_i_glide_ligand_efficiency_sa>  (307) 
-0.0443264

>  <r_i_glide_ligand_efficiency_ln>  (307) 
-0.104117

>  <r_i_glide_gscore>  (307) 
-0.474287

>  <r_i_glide_lipo>  (307) 
-0.389689

>  <r_i_glide_hbond>  (307) 
-0.2

>  <r_i_glide_metal>  (307) 
-0

>  <r_i_glide_rewards>  (307) 
-0.213721

>  <r_i_glide_evdw>  (307) 
-20.9679

>  <r_i_glide_ecoul>  (307) 
-3.61489

>  <r_i_glide_erotb>  (307) 
0

>  <r_i_glide_esite>  (307) 
-0.08785

>  <r_i_glide_emodel>  (307) 
-18.2669

>  <r_i_glide_energy>  (307) 
-24.5828

>  <r_i_glide_einternal>  (307) 
0.053759

>  <r_i_glide_intrahb_reward>  (307) 
-0

>  <i_i_glide_confnum>  (307) 
2

>  <i_i_glide_posenum>  (307) 
22

>  <r_i_glide_eff_state_penalty>  (307) 
0

>  <ligand_id>  (307) 
89

>  <original_smiles>  (307) 
CCC1(C)C2C3CCC45C=CN=NC6(CC7=C(C6)c6ccccc6CC7)C(=O)N(C34)C25CCN1C

>  <smiles>  (307) 
[H]C1=C([H])C23C([H])([H])C([H])([H])C4([H])C2([H])N(C(=O)C2(N=N1)C([H])([H])C1=C(C([H])([H])C([H])([H])c5c([H])c([H])c([H])c([H])c51)C2([H])[H])C31C([H])([H])C([H])([H])[N+]([H])(C([H])([H])[H])C(C([H])([H])[H])(C([H])([H])C([H])([H])[H])C41[H]

$$$$
89:3:1
     RDKit          3D

 72 79  0  0  1  0  0  0  0  0999 V2000
    1.9617    6.1015    3.2085 C   0  0  0  0  0  0  0  0  0  0  0  0
    1.9165    5.0042    4.2917 C   0  0  0  0  0  0  0  0  0  0  0  0
    1.4279    3.5864    3.8194 C   0  0  1  0  0  0  0  0  0  0  0  0
    2.3552    3.1421    2.6586 C   0  0  0  0  0  0  0  0  0  0  0  0
    1.4571    2.6336    5.0808 C   0  0  2  0  0  0  0  0  0  0  0  0
    2.7657    2.1105    5.7490 C   0  0  1  0  0  0  0  0  0  0  0  0
    2.5588    2.1431    7.2839 C   0  0  0  0  0  0  0  0  0  0  0  0
    1.3769    1.1501    7.4978 C   0  0  0  0  0  0  0  0  0  0  0  0
    1.2527    0.4056    6.1566 C   0  0  2  0  0  0  0  0  0  0  0  0
    0.6379   -0.9985    6.3072 C   0  0  0  0  0  0  0  0  0  0  0  0
    1.2845   -2.1810    6.3518 C   0  0  0  0  0  0  0  0  0  0  0  0
    1.6165   -2.6535    5.1167 N   0  0  0  0  0  0  0  0  0  0  0  0
    2.6822   -2.1925    4.7100 N   0  0  0  0  0  0  0  0  0  0  0  0
    2.6985   -1.7867    3.2920 C   0  0  2  0  0  0  0  0  0  0  0  0
    2.1016   -2.9396    2.4147 C   0  0  0  0  0  0  0  0  0  0  0  0
    3.0671   -3.0186    1.2539 C   0  0  0  0  0  0  0  0  0  0  0  0
    4.1829   -2.3227    1.4783 C   0  0  0  0  0  0  0  0  0  0  0  0
    4.1762   -1.6368    2.8236 C   0  0  0  0  0  0  0  0  0  0  0  0
    5.3138   -2.3640    0.5525 C   0  0  0  0  0  0  0  0  0  0  0  0
    6.5980   -1.9408    0.9520 C   0  0  0  0  0  0  0  0  0  0  0  0
    7.6838   -2.0883    0.0828 C   0  0  0  0  0  0  0  0  0  0  0  0
    7.4981   -2.6560   -1.1888 C   0  0  0  0  0  0  0  0  0  0  0  0
    6.2108   -3.0553   -1.6019 C   0  0  0  0  0  0  0  0  0  0  0  0
    5.1183   -2.9202   -0.7254 C   0  0  0  0  0  0  0  0  0  0  0  0
    3.7113   -3.3554   -1.1464 C   0  0  0  0  0  0  0  0  0  0  0  0
    2.8832   -3.9084    0.0372 C   0  0  0  0  0  0  0  0  0  0  0  0
    1.8985   -0.4537    3.1933 C   0  0  0  0  0  0  0  0  0  0  0  0
    1.1878   -0.2463    2.2053 O   0  0  0  0  0  0  0  0  0  0  0  0
    1.9334    0.5443    4.1963 N   0  0  0  0  0  0  0  0  0  0  0  0
    2.6144    0.6129    5.4729 C   0  0  1  0  0  0  0  0  0  0  0  0
    0.8435    1.2447    4.8908 C   0  0  2  0  0  0  0  0  0  0  0  0
   -0.5779    1.3352    4.2874 C   0  0  0  0  0  0  0  0  0  0  0  0
   -0.6146    2.2824    3.0529 C   0  0  0  0  0  0  0  0  0  0  0  0
    0.0024    3.6275    3.2998 N   0  0  1  0  0  0  0  0  0  0  0  0
   -0.9508    4.4671    4.0813 C   0  0  0  0  0  0  0  0  0  0  0  0
    2.1396    7.0812    3.6560 H   0  0  0  0  0  0  0  0  0  0  0  0
    1.0298    6.1675    2.6426 H   0  0  0  0  0  0  0  0  0  0  0  0
    2.7720    5.9273    2.4965 H   0  0  0  0  0  0  0  0  0  0  0  0
    2.9218    4.9211    4.7151 H   0  0  0  0  0  0  0  0  0  0  0  0
    1.3073    5.3653    5.1265 H   0  0  0  0  0  0  0  0  0  0  0  0
    3.4069    3.0932    2.9719 H   0  0  0  0  0  0  0  0  0  0  0  0
    2.2819    3.8301    1.8233 H   0  0  0  0  0  0  0  0  0  0  0  0
    2.0904    2.1796    2.2429 H   0  0  0  0  0  0  0  0  0  0  0  0
    0.8691    3.1664    5.8437 H   0  0  0  0  0  0  0  0  0  0  0  0
    3.6896    2.5572    5.3773 H   0  0  0  0  0  0  0  0  0  0  0  0
    3.4652    1.7768    7.7773 H   0  0  0  0  0  0  0  0  0  0  0  0
    2.3725    3.1544    7.6628 H   0  0  0  0  0  0  0  0  0  0  0  0
    1.5882    0.5131    8.3507 H   0  0  0  0  0  0  0  0  0  0  0  0
    0.4768    1.7046    7.7533 H   0  0  0  0  0  0  0  0  0  0  0  0
   -0.3714   -1.0524    5.8980 H   0  0  0  0  0  0  0  0  0  0  0  0
    0.6538   -3.0228    6.4396 H   0  0  0  0  0  0  0  0  0  0  0  0
    2.0713   -3.9175    2.9023 H   0  0  0  0  0  0  0  0  0  0  0  0
    1.0742   -2.7185    2.1493 H   0  0  0  0  0  0  0  0  0  0  0  0
    4.4796   -0.5900    2.7765 H   0  0  0  0  0  0  0  0  0  0  0  0
    4.8560   -2.1632    3.4875 H   0  0  0  0  0  0  0  0  0  0  0  0
    6.7496   -1.5214    1.9301 H   0  0  0  0  0  0  0  0  0  0  0  0
    8.6681   -1.7727    0.3896 H   0  0  0  0  0  0  0  0  0  0  0  0
    8.3327   -2.7704   -1.8608 H   0  0  0  0  0  0  0  0  0  0  0  0
    6.0712   -3.4776   -2.5802 H   0  0  0  0  0  0  0  0  0  0  0  0
    3.2002   -2.4726   -1.5409 H   0  0  0  0  0  0  0  0  0  0  0  0
    3.7618   -4.0761   -1.9579 H   0  0  0  0  0  0  0  0  0  0  0  0
    3.2521   -4.9050    0.2954 H   0  0  0  0  0  0  0  0  0  0  0  0
    1.8345   -4.0246   -0.2373 H   0  0  0  0  0  0  0  0  0  0  0  0
    3.4349   -0.0410    5.7397 H   0  0  0  0  0  0  0  0  0  0  0  0
   -0.9482    0.3365    4.0299 H   0  0  0  0  0  0  0  0  0  0  0  0
   -1.2736    1.7096    5.0598 H   0  0  0  0  0  0  0  0  0  0  0  0
   -0.1198    1.8125    2.2071 H   0  0  0  0  0  0  0  0  0  0  0  0
   -1.6557    2.3971    2.7386 H   0  0  0  0  0  0  0  0  0  0  0  0
   -1.0560    4.1026    5.1049 H   0  0  0  0  0  0  0  0  0  0  0  0
   -1.9377    4.4486    3.6122 H   0  0  0  0  0  0  0  0  0  0  0  0
   -0.6456    5.5121    4.1141 H   0  0  0  0  0  0  0  0  0  0  0  0
    0.0714    4.0490    2.3756 H   0  0  0  0  0  0  0  0  0  0  0  0
  1  2  1  0
  1 36  1  0
  1 37  1  0
  1 38  1  0
  3  2  1  1
  2 39  1  0
  2 40  1  0
  3 34  1  0
  3  4  1  0
  3  5  1  0
  4 41  1  0
  4 42  1  0
  4 43  1  0
  5 31  1  0
  5  6  1  0
  5 44  1  1
  6 30  1  0
  6  7  1  0
  6 45  1  1
  7  8  1  0
  7 46  1  0
  7 47  1  0
  9  8  1  1
  8 48  1  0
  8 49  1  0
  9 30  1  0
  9 31  1  0
  9 10  1  0
 10 11  2  3
 10 50  1  0
 11 12  1  0
 11 51  1  0
 12 13  2  3
 13 14  1  0
 14 18  1  6
 14 15  1  0
 14 27  1  0
 15 16  1  0
 15 52  1  0
 15 53  1  0
 16 26  1  0
 16 17  2  0
 17 18  1  0
 17 19  1  0
 18 54  1  0
 18 55  1  0
 19 24  2  0
 19 20  1  0
 20 21  2  0
 20 56  1  0
 21 22  1  0
 21 57  1  0
 22 23  2  0
 22 58  1  0
 23 24  1  0
 23 59  1  0
 24 25  1  0
 25 26  1  0
 25 60  1  0
 25 61  1  0
 26 62  1  0
 26 63  1  0
 27 28  2  0
 27 29  1  0
 29 30  1  0
 29 31  1  0
 30 64  1  6
 31 32  1  6
 32 33  1  0
 32 65  1  0
 32 66  1  0
 33 34  1  0
 33 67  1  0
 33 68  1  0
 34 35  1  0
 34 72  1  6
 35 69  1  0
 35 70  1  0
 35 71  1  0
M  CHG  1  34   1
M  END
>  <i_m_ct_stereo_status>  (308) 
1

>  <s_m_source_file>  (308) 
/var/tmp/pbs.5076255.sched01/tmp0eyfkrct/966b1hsbd3.sdf

>  <i_m_source_file_index>  (308) 
43

>  <i_lp_mmshare_version>  (308) 
48012

>  <i_f3d_flags>  (308) 
0

>  <s_epik_input>  (308) 
W0NIMl0xW0NIMl1OKFtDSDNdKVtDQEBdKFtDSDNdKShbQ0gyXVtDSDNdKVtDQEBIXShbQ0BAXTEyW0NAQF0zNDUpW0NAQEhdKFtDSDJdW0NIMl0zKVtDQEBIXTVOMkMoPU8pW0NAQF02KFxOPU4vW0NIXT1bQ0hdXDQpW0NIMl1DNz1DKFtDSDJdNiljOGMoW0NIMl1bQ0gyXTcpW2NIXVtjSF1bY0hdW2NIXTg=

>  <s_epik_cmdline>  (308) 
J2VwaWtfcHl0aG9uJywgJy1waHQnLCAnMi4wJywgJy1waCcsICc3LjAnLCAnLXRuJywgJzgnLCAnLW1hJywgJzIwMCcsICctaW1hZScsICc8aW5maWxlLm1hZT4nLCAnLW9tYWUnLCAnPG91dGZpbGUubWFlPic=

>  <r_epik_Ionization_Penalty>  (308) 
0.00122337

>  <r_epik_Ionization_Penalty_Charging>  (308) 
0.00122337

>  <r_epik_Ionization_Penalty_Neutral>  (308) 
1.44336e-10

>  <r_epik_State_Penalty>  (308) 
0.000808394

>  <r_epik_Charging_Adjusted_Penalty>  (308) 
0.00203177

>  <i_epik_Tot_Q>  (308) 
1

>  <i_epik_Tot_abs_Q>  (308) 
1

>  <s_lp_Force_Field>  (308) 
OPLS3e

>  <r_lp_Energy>  (308) 
154.72

>  <b_lp_Chiralities_Consistent>  (308) 
1

>  <s_lp_Variant>  (308) 
89:0-4

>  <s_i_glide_gridfile>  (308) 
pfpi4k_grid

>  <i_i_glide_lignum>  (308) 
43

>  <i_i_glide_rotatable_bonds>  (308) 
1

>  <r_i_docking_score>  (308) 
-0.252033

>  <r_i_glide_ligand_efficiency>  (308) 
-0.00720096

>  <r_i_glide_ligand_efficiency_sa>  (308) 
-0.0235548

>  <r_i_glide_ligand_efficiency_ln>  (308) 
-0.0553269

>  <r_i_glide_gscore>  (308) 
-0.252033

>  <r_i_glide_lipo>  (308) 
-0.224513

>  <r_i_glide_hbond>  (308) 
-0.2

>  <r_i_glide_metal>  (308) 
-0

>  <r_i_glide_rewards>  (308) 
-0.206993

>  <r_i_glide_evdw>  (308) 
-27.52

>  <r_i_glide_ecoul>  (308) 
-4.17263

>  <r_i_glide_erotb>  (308) 
0

>  <r_i_glide_esite>  (308) 
-0.109683

>  <r_i_glide_emodel>  (308) 
-23.4719

>  <r_i_glide_energy>  (308) 
-31.6926

>  <r_i_glide_einternal>  (308) 
1.20426

>  <r_i_glide_intrahb_reward>  (308) 
-0

>  <i_i_glide_confnum>  (308) 
1

>  <i_i_glide_posenum>  (308) 
1

>  <r_i_glide_eff_state_penalty>  (308) 
0

>  <ligand_id>  (308) 
89

>  <original_smiles>  (308) 
CCC1(C)C2C3CCC45C=CN=NC6(CC7=C(C6)c6ccccc6CC7)C(=O)N(C34)C25CCN1C

>  <smiles>  (308) 
[H]C1=C([H])C23C([H])([H])C([H])([H])C4([H])C2([H])N(C(=O)C2(N=N1)C([H])([H])C1=C(C([H])([H])C([H])([H])c5c([H])c([H])c([H])c([H])c51)C2([H])[H])C31C([H])([H])C([H])([H])[N+]([H])(C([H])([H])[H])C(C([H])([H])[H])(C([H])([H])C([H])([H])[H])C41[H]

$$$$
89:3:2
     RDKit          3D

 72 79  0  0  1  0  0  0  0  0999 V2000
   -1.9175   -9.0485    2.2906 C   0  0  0  0  0  0  0  0  0  0  0  0
   -0.8917   -9.1082    3.4417 C   0  0  0  0  0  0  0  0  0  0  0  0
    0.3689   -8.1787    3.2961 C   0  0  1  0  0  0  0  0  0  0  0  0
   -0.1134   -6.8162    2.7000 C   0  0  0  0  0  0  0  0  0  0  0  0
    1.0327   -8.0531    4.7196 C   0  0  2  0  0  0  0  0  0  0  0  0
    0.4136   -7.2568    5.9051 C   0  0  1  0  0  0  0  0  0  0  0  0
    0.6481   -8.0787    7.1944 C   0  0  0  0  0  0  0  0  0  0  0  0
    2.2050   -8.1162    7.2881 C   0  0  0  0  0  0  0  0  0  0  0  0
    2.6895   -7.0628    6.2725 C   0  0  2  0  0  0  0  0  0  0  0  0
    4.0784   -6.4876    6.6438 C   0  0  0  0  0  0  0  0  0  0  0  0
    4.3300   -5.3314    7.2932 C   0  0  0  0  0  0  0  0  0  0  0  0
    4.3792   -4.2686    6.4595 N   0  0  0  0  0  0  0  0  0  0  0  0
    3.2384   -3.8433    6.2643 N   0  0  0  0  0  0  0  0  0  0  0  0
    2.8350   -3.4505    4.8851 C   0  0  2  0  0  0  0  0  0  0  0  0
    3.9592   -2.5716    4.2480 C   0  0  0  0  0  0  0  0  0  0  0  0
    3.1963   -1.4627    3.5726 C   0  0  0  0  0  0  0  0  0  0  0  0
    1.9111   -1.4404    3.9206 C   0  0  0  0  0  0  0  0  0  0  0  0
    1.5629   -2.5334    4.9068 C   0  0  0  0  0  0  0  0  0  0  0  0
    1.0201   -0.3692    3.4948 C   0  0  0  0  0  0  0  0  0  0  0  0
   -0.2076   -0.1408    4.1422 C   0  0  0  0  0  0  0  0  0  0  0  0
   -1.0069    0.9384    3.7555 C   0  0  0  0  0  0  0  0  0  0  0  0
   -0.5769    1.7934    2.7283 C   0  0  0  0  0  0  0  0  0  0  0  0
    0.6404    1.5590    2.0770 C   0  0  0  0  0  0  0  0  0  0  0  0
    1.4529    0.4830    2.4525 C   0  0  0  0  0  0  0  0  0  0  0  0
    2.7797    0.1985    1.7507 C   0  0  0  0  0  0  0  0  0  0  0  0
    3.8401   -0.4036    2.7004 C   0  0  0  0  0  0  0  0  0  0  0  0
    2.5530   -4.7702    4.1166 C   0  0  0  0  0  0  0  0  0  0  0  0
    2.9168   -4.8831    2.9384 O   0  0  0  0  0  0  0  0  0  0  0  0
    1.9633   -5.8963    4.7191 N   0  0  0  0  0  0  0  0  0  0  0  0
    1.4674   -6.1554    6.0586 C   0  0  1  0  0  0  0  0  0  0  0  0
    2.3793   -7.3159    4.7502 C   0  0  2  0  0  0  0  0  0  0  0  0
    3.3884   -7.9009    3.7325 C   0  0  0  0  0  0  0  0  0  0  0  0
    2.7259   -8.0436    2.3355 C   0  0  0  0  0  0  0  0  0  0  0  0
    1.4076   -8.7682    2.3525 N   0  0  1  0  0  0  0  0  0  0  0  0
    1.6622  -10.2311    2.4716 C   0  0  0  0  0  0  0  0  0  0  0  0
   -2.6328   -9.8503    2.3930 H   0  0  0  0  0  0  0  0  0  0  0  0
   -1.4598   -9.1367    1.3044 H   0  0  0  0  0  0  0  0  0  0  0  0
   -2.4953   -8.1211    2.3141 H   0  0  0  0  0  0  0  0  0  0  0  0
   -1.4190   -8.8375    4.3584 H   0  0  0  0  0  0  0  0  0  0  0  0
   -0.5604  -10.1415    3.5894 H   0  0  0  0  0  0  0  0  0  0  0  0
   -0.8521   -6.3516    3.3396 H   0  0  0  0  0  0  0  0  0  0  0  0
   -0.5477   -6.9560    1.7102 H   0  0  0  0  0  0  0  0  0  0  0  0
    0.6840   -6.0973    2.5390 H   0  0  0  0  0  0  0  0  0  0  0  0
    1.1970   -9.0975    5.0368 H   0  0  0  0  0  0  0  0  0  0  0  0
   -0.5992   -6.8946    5.7311 H   0  0  0  0  0  0  0  0  0  0  0  0
    0.2174   -7.5400    8.0459 H   0  0  0  0  0  0  0  0  0  0  0  0
    0.1715   -9.0629    7.1542 H   0  0  0  0  0  0  0  0  0  0  0  0
    2.5040   -7.9421    8.3185 H   0  0  0  0  0  0  0  0  0  0  0  0
    2.5548   -9.1223    7.0586 H   0  0  0  0  0  0  0  0  0  0  0  0
    4.8767   -6.8539    5.9940 H   0  0  0  0  0  0  0  0  0  0  0  0
    5.3307   -5.1228    7.4262 H   0  0  0  0  0  0  0  0  0  0  0  0
    4.6369   -2.1298    4.9761 H   0  0  0  0  0  0  0  0  0  0  0  0
    4.5932   -3.1126    3.5452 H   0  0  0  0  0  0  0  0  0  0  0  0
    0.6530   -3.0735    4.6342 H   0  0  0  0  0  0  0  0  0  0  0  0
    1.4176   -2.0869    5.8763 H   0  0  0  0  0  0  0  0  0  0  0  0
   -0.5324   -0.7822    4.9392 H   0  0  0  0  0  0  0  0  0  0  0  0
   -1.9371    1.1281    4.2500 H   0  0  0  0  0  0  0  0  0  0  0  0
   -1.1747    2.6338    2.4355 H   0  0  0  0  0  0  0  0  0  0  0  0
    0.9655    2.2142    1.2930 H   0  0  0  0  0  0  0  0  0  0  0  0
    2.5769   -0.5210    0.9492 H   0  0  0  0  0  0  0  0  0  0  0  0
    3.1596    1.0974    1.2731 H   0  0  0  0  0  0  0  0  0  0  0  0
    4.2196    0.3860    3.3584 H   0  0  0  0  0  0  0  0  0  0  0  0
    4.7023   -0.7852    2.1462 H   0  0  0  0  0  0  0  0  0  0  0  0
    1.2767   -5.3610    6.7705 H   0  0  0  0  0  0  0  0  0  0  0  0
    4.2881   -7.2831    3.6932 H   0  0  0  0  0  0  0  0  0  0  0  0
    3.7237   -8.9026    4.0843 H   0  0  0  0  0  0  0  0  0  0  0  0
    2.5945   -7.0540    1.8864 H   0  0  0  0  0  0  0  0  0  0  0  0
    3.4418   -8.5591    1.6708 H   0  0  0  0  0  0  0  0  0  0  0  0
    2.0278  -10.5046    3.4718 H   0  0  0  0  0  0  0  0  0  0  0  0
    2.4304  -10.5337    1.7365 H   0  0  0  0  0  0  0  0  0  0  0  0
    0.7547  -10.8082    2.2455 H   0  0  0  0  0  0  0  0  0  0  0  0
    1.0185   -8.6479    1.4208 H   0  0  0  0  0  0  0  0  0  0  0  0
  1  2  1  0
  1 36  1  0
  1 37  1  0
  1 38  1  0
  3  2  1  1
  2 39  1  0
  2 40  1  0
  3 34  1  0
  3  4  1  0
  3  5  1  0
  4 41  1  0
  4 42  1  0
  4 43  1  0
  5 31  1  0
  5  6  1  0
  5 44  1  1
  6 30  1  0
  6  7  1  0
  6 45  1  6
  7  8  1  0
  7 46  1  0
  7 47  1  0
  9  8  1  1
  8 48  1  0
  8 49  1  0
  9 30  1  0
  9 31  1  0
  9 10  1  0
 10 11  2  3
 10 50  1  0
 11 12  1  0
 11 51  1  0
 12 13  2  3
 13 14  1  0
 14 18  1  1
 14 15  1  0
 14 27  1  0
 15 16  1  0
 15 52  1  0
 15 53  1  0
 16 26  1  0
 16 17  2  0
 17 18  1  0
 17 19  1  0
 18 54  1  0
 18 55  1  0
 19 24  2  0
 19 20  1  0
 20 21  2  0
 20 56  1  0
 21 22  1  0
 21 57  1  0
 22 23  2  0
 22 58  1  0
 23 24  1  0
 23 59  1  0
 24 25  1  0
 25 26  1  0
 25 60  1  0
 25 61  1  0
 26 62  1  0
 26 63  1  0
 27 28  2  0
 27 29  1  0
 29 30  1  0
 29 31  1  0
 30 64  1  1
 31 32  1  6
 32 33  1  0
 32 65  1  0
 32 66  1  0
 33 34  1  0
 33 67  1  0
 33 68  1  0
 34 35  1  0
 34 72  1  6
 35 69  1  0
 35 70  1  0
 35 71  1  0
M  CHG  1  34   1
M  END
>  <i_m_ct_stereo_status>  (309) 
1

>  <s_m_source_file>  (309) 
/var/tmp/pbs.5076255.sched01/tmp0eyfkrct/966b1hsbd3.sdf

>  <i_m_source_file_index>  (309) 
43

>  <i_lp_mmshare_version>  (309) 
48012

>  <i_f3d_flags>  (309) 
0

>  <s_epik_input>  (309) 
W0NIMl0xW0NIMl1OKFtDSDNdKVtDQEBdKFtDSDNdKShbQ0gyXVtDSDNdKVtDQEBIXShbQ0BAXTEyW0NAQF0zNDUpW0NAQEhdKFtDSDJdW0NIMl0zKVtDQEBIXTVOMkMoPU8pW0NAQF02KFxOPU4vW0NIXT1bQ0hdXDQpW0NIMl1DNz1DKFtDSDJdNiljOGMoW0NIMl1bQ0gyXTcpW2NIXVtjSF1bY0hdW2NIXTg=

>  <s_epik_cmdline>  (309) 
J2VwaWtfcHl0aG9uJywgJy1waHQnLCAnMi4wJywgJy1waCcsICc3LjAnLCAnLXRuJywgJzgnLCAnLW1hJywgJzIwMCcsICctaW1hZScsICc8aW5maWxlLm1hZT4nLCAnLW9tYWUnLCAnPG91dGZpbGUubWFlPic=

>  <r_epik_Ionization_Penalty>  (309) 
0.00122337

>  <r_epik_Ionization_Penalty_Charging>  (309) 
0.00122337

>  <r_epik_Ionization_Penalty_Neutral>  (309) 
1.44336e-10

>  <r_epik_State_Penalty>  (309) 
0.000808394

>  <r_epik_Charging_Adjusted_Penalty>  (309) 
0.00203177

>  <i_epik_Tot_Q>  (309) 
1

>  <i_epik_Tot_abs_Q>  (309) 
1

>  <s_lp_Force_Field>  (309) 
OPLS3e

>  <r_lp_Energy>  (309) 
154.72

>  <b_lp_Chiralities_Consistent>  (309) 
1

>  <s_lp_Variant>  (309) 
89:0-4

>  <s_i_glide_gridfile>  (309) 
pfpi4k_grid

>  <i_i_glide_lignum>  (309) 
43

>  <i_i_glide_rotatable_bonds>  (309) 
1

>  <r_i_docking_score>  (309) 
0.00452662

>  <r_i_glide_ligand_efficiency>  (309) 
0.000129332

>  <r_i_glide_ligand_efficiency_sa>  (309) 
0.000423054

>  <r_i_glide_ligand_efficiency_ln>  (309) 
0.000993694

>  <r_i_glide_gscore>  (309) 
0.00452662

>  <r_i_glide_lipo>  (309) 
-0.437947

>  <r_i_glide_hbond>  (309) 
0

>  <r_i_glide_metal>  (309) 
-0

>  <r_i_glide_rewards>  (309) 
-0.206993

>  <r_i_glide_evdw>  (309) 
-26.0054

>  <r_i_glide_ecoul>  (309) 
-2.36401

>  <r_i_glide_erotb>  (309) 
0

>  <r_i_glide_esite>  (309) 
-0.004028

>  <r_i_glide_emodel>  (309) 
-19.2676

>  <r_i_glide_energy>  (309) 
-28.3695

>  <r_i_glide_einternal>  (309) 
2.39581

>  <r_i_glide_intrahb_reward>  (309) 
-0

>  <i_i_glide_confnum>  (309) 
1

>  <i_i_glide_posenum>  (309) 
13

>  <r_i_glide_eff_state_penalty>  (309) 
0

>  <ligand_id>  (309) 
89

>  <original_smiles>  (309) 
CCC1(C)C2C3CCC45C=CN=NC6(CC7=C(C6)c6ccccc6CC7)C(=O)N(C34)C25CCN1C

>  <smiles>  (309) 
[H]C1=C([H])C23C([H])([H])C([H])([H])C4([H])C2([H])N(C(=O)C2(N=N1)C([H])([H])C1=C(C([H])([H])C([H])([H])c5c([H])c([H])c([H])c([H])c51)C2([H])[H])C31C([H])([H])C([H])([H])[N+]([H])(C([H])([H])[H])C(C([H])([H])[H])(C([H])([H])C([H])([H])[H])C41[H]

$$$$
90:0:0
     RDKit          3D

 67 75  0  0  1  0  0  0  0  0999 V2000
    5.7951   -2.8903    1.2510 C   0  0  0  0  0  0  0  0  0  0  0  0
    4.4175   -3.3693    0.6852 C   0  0  1  0  0  0  0  0  0  0  0  0
    4.0006   -2.5902   -0.6296 C   0  0  1  0  0  0  0  0  0  0  0  0
    2.7507   -3.1757   -1.3235 C   0  0  0  0  0  0  0  0  0  0  0  0
    3.9740   -1.0516   -0.6795 C   0  0  1  0  0  0  0  0  0  0  0  0
    4.3497   -0.2612    0.4349 O   0  0  0  0  0  0  0  0  0  0  0  0
    5.0514   -1.0138   -1.6923 C   0  0  2  0  0  0  0  0  0  0  0  0
    6.2697   -1.7339   -1.4415 O   0  0  0  0  0  0  0  0  0  0  0  0
    5.1047   -2.5286   -1.6601 C   0  0  1  0  0  0  0  0  0  0  0  0
    4.6156   -4.8985    0.4827 C   0  0  0  0  0  0  0  0  0  0  0  0
    4.3937   -5.5292    1.8605 C   0  0  0  0  0  0  0  0  0  0  0  0
    3.2564   -4.6991    2.4620 C   0  0  1  0  0  0  0  0  0  0  0  0
    3.3427   -4.4205    3.9705 C   0  0  0  0  0  0  0  0  0  0  0  0
    3.9010   -2.9632    4.0987 C   0  0  2  0  0  0  0  0  0  0  0  0
    5.2854   -3.1077    4.3995 O   0  0  0  0  0  0  0  0  0  0  0  0
    5.3346   -3.3904    5.8195 C   0  0  0  0  0  0  0  0  0  0  0  0
    4.0201   -2.8333    6.3308 C   0  0  0  0  0  0  0  0  0  0  0  0
    3.5052   -3.0409    7.4616 O   0  0  0  0  0  0  0  0  0  0  0  0
    3.4338   -2.0272    5.2303 C   0  0  1  0  0  0  0  0  0  0  0  0
    4.1526   -0.6411    5.2518 C   0  0  0  0  0  0  0  0  0  0  0  0
    1.9181   -1.8723    4.9446 C   0  0  2  0  0  0  0  0  0  0  0  0
    1.8889   -1.8569    3.3709 C   0  0  1  0  0  0  0  0  0  0  0  0
    1.4001   -0.5354    2.7258 C   0  0  0  0  0  0  0  0  0  0  0  0
    0.4215    0.2404    3.6267 C   0  0  1  0  0  0  0  0  0  0  0  0
   -0.7303   -0.6425    4.1793 C   0  0  0  0  0  0  0  0  0  0  0  0
   -0.3549   -0.7799    5.6628 C   0  0  2  0  0  0  0  0  0  0  0  0
   -0.6417    0.6030    6.2734 C   0  0  0  0  0  0  0  0  0  0  0  0
   -1.5446    0.8557    7.0621 O   0  0  0  0  0  0  0  0  0  0  0  0
    0.2924    1.4072    5.7422 O   0  0  0  0  0  0  0  0  0  0  0  0
    1.1639    0.6386    4.9168 C   0  0  1  0  0  0  0  0  0  0  0  0
    1.1685   -0.7076    5.6649 C   0  0  2  0  0  0  0  0  0  0  0  0
    3.3187   -2.2849    2.8654 C   0  0  2  0  0  0  0  0  0  0  0  0
    3.2765   -3.3383    1.7533 C   0  0  1  0  0  0  0  0  0  0  0  0
    6.6024   -3.0420    0.5306 H   0  0  0  0  0  0  0  0  0  0  0  0
    6.1225   -3.4715    2.1109 H   0  0  0  0  0  0  0  0  0  0  0  0
    5.8260   -1.8439    1.5463 H   0  0  0  0  0  0  0  0  0  0  0  0
    2.5507   -2.6889   -2.2856 H   0  0  0  0  0  0  0  0  0  0  0  0
    1.8248   -3.0729   -0.7447 H   0  0  0  0  0  0  0  0  0  0  0  0
    2.8407   -4.2215   -1.5803 H   0  0  0  0  0  0  0  0  0  0  0  0
    3.0653   -0.6607   -1.1048 H   0  0  0  0  0  0  0  0  0  0  0  0
    3.6541   -0.3160    1.0563 H   0  0  0  0  0  0  0  0  0  0  0  0
    4.8680   -0.5394   -2.6526 H   0  0  0  0  0  0  0  0  0  0  0  0
    5.0453   -3.1147   -2.5720 H   0  0  0  0  0  0  0  0  0  0  0  0
    3.8958   -5.3492   -0.1993 H   0  0  0  0  0  0  0  0  0  0  0  0
    5.5988   -5.1546    0.0819 H   0  0  0  0  0  0  0  0  0  0  0  0
    4.1401   -6.5895    1.7994 H   0  0  0  0  0  0  0  0  0  0  0  0
    5.2967   -5.4520    2.4690 H   0  0  0  0  0  0  0  0  0  0  0  0
    2.3177   -5.2026    2.2373 H   0  0  0  0  0  0  0  0  0  0  0  0
    2.3330   -4.4946    4.3763 H   0  0  0  0  0  0  0  0  0  0  0  0
    3.9224   -5.1853    4.4960 H   0  0  0  0  0  0  0  0  0  0  0  0
    5.4381   -4.4551    6.0075 H   0  0  0  0  0  0  0  0  0  0  0  0
    6.1827   -2.8742    6.2695 H   0  0  0  0  0  0  0  0  0  0  0  0
    4.0636   -0.0807    4.3244 H   0  0  0  0  0  0  0  0  0  0  0  0
    5.2197   -0.7336    5.4541 H   0  0  0  0  0  0  0  0  0  0  0  0
    3.7569   -0.0113    6.0450 H   0  0  0  0  0  0  0  0  0  0  0  0
    1.4282   -2.7848    5.2971 H   0  0  0  0  0  0  0  0  0  0  0  0
    1.1647   -2.6248    3.0846 H   0  0  0  0  0  0  0  0  0  0  0  0
    2.2419    0.1031    2.4818 H   0  0  0  0  0  0  0  0  0  0  0  0
    0.9042   -0.7564    1.7831 H   0  0  0  0  0  0  0  0  0  0  0  0
    0.0341    1.1214    3.1035 H   0  0  0  0  0  0  0  0  0  0  0  0
   -1.7018   -0.1559    4.0467 H   0  0  0  0  0  0  0  0  0  0  0  0
   -0.7846   -1.6162    3.7038 H   0  0  0  0  0  0  0  0  0  0  0  0
   -0.8174   -1.5775    6.2113 H   0  0  0  0  0  0  0  0  0  0  0  0
    2.1347    1.1061    4.7550 H   0  0  0  0  0  0  0  0  0  0  0  0
    1.5574   -0.6119    6.6789 H   0  0  0  0  0  0  0  0  0  0  0  0
    3.9022   -1.4087    2.6097 H   0  0  0  0  0  0  0  0  0  0  0  0
    2.3190   -3.2351    1.2672 H   0  0  0  0  0  0  0  0  0  0  0  0
  2  1  1  1
  1 34  1  0
  1 35  1  0
  1 36  1  0
  2 33  1  0
  2  3  1  0
  2 10  1  0
  3  9  1  0
  3  4  1  6
  3  5  1  0
  4 37  1  0
  4 38  1  0
  4 39  1  0
  5  6  1  0
  5  7  1  0
  5 40  1  6
  6 41  1  0
  7  9  1  0
  7  8  1  0
  7 42  1  6
  8  9  1  0
  9 43  1  6
 10 11  1  0
 10 44  1  0
 10 45  1  0
 11 12  1  0
 11 46  1  0
 11 47  1  0
 12 33  1  0
 12 13  1  0
 12 48  1  1
 13 14  1  0
 13 49  1  0
 13 50  1  0
 14 19  1  0
 14 32  1  0
 14 15  1  6
 15 16  1  0
 16 17  1  0
 16 51  1  0
 16 52  1  0
 17 18  2  0
 17 19  1  0
 19 20  1  6
 19 21  1  0
 20 53  1  0
 20 54  1  0
 20 55  1  0
 21 31  1  0
 21 22  1  0
 21 56  1  1
 22 23  1  0
 22 32  1  0
 22 57  1  6
 23 24  1  0
 23 58  1  0
 23 59  1  0
 24 30  1  0
 24 25  1  0
 24 60  1  6
 25 26  1  0
 25 61  1  0
 25 62  1  0
 26 31  1  0
 26 27  1  0
 26 63  1  1
 27 28  2  0
 27 29  1  0
 29 30  1  0
 30 31  1  0
 30 64  1  6
 31 65  1  1
 32 33  1  0
 32 66  1  6
 33 67  1  6
M  END
>  <i_m_ct_stereo_status>  (310) 
1

>  <s_m_source_file>  (310) 
/var/tmp/pbs.5076255.sched01/tmp0eyfkrct/966b1hsbd3.sdf

>  <i_m_source_file_index>  (310) 
44

>  <i_lp_mmshare_version>  (310) 
48012

>  <i_f3d_flags>  (310) 
0

>  <s_epik_input>  (310) 
W09IXVtDQEBIXTFbQ0BAXShbQ0gzXSkoW0NASF0oTzIpW0NAQEhdMTIpW0NAXTMoW0NIM10pW0NIMl1bQ0gyXVtDQEBIXShbQ0gyXTQpW0NASF0zW0NASF01W0NAQEhdKFtDQEhdNltDQEBdKFtDQEBdNDU3KShbQ0gzXSlDKD1PKVtDSDJdTzcpW0NIMl1bQ0BASF04W0NAQEhdOVtDQEhdNltDQEhdKFtDSDJdOClDKD1PKU85

>  <s_epik_cmdline>  (310) 
J2VwaWtfcHl0aG9uJywgJy1waHQnLCAnMi4wJywgJy1waCcsICc3LjAnLCAnLXRuJywgJzgnLCAnLW1hJywgJzIwMCcsICctaW1hZScsICc8aW5maWxlLm1hZT4nLCAnLW9tYWUnLCAnPG91dGZpbGUubWFlPic=

>  <r_lp_tautomer_probability>  (310) 
1

>  <r_epik_Ionization_Penalty>  (310) 
5.22838e-08

>  <r_epik_Ionization_Penalty_Charging>  (310) 
0

>  <r_epik_Ionization_Penalty_Neutral>  (310) 
5.22838e-08

>  <r_epik_State_Penalty>  (310) 
-0

>  <r_epik_Charging_Adjusted_Penalty>  (310) 
0

>  <i_epik_Tot_Q>  (310) 
0

>  <i_epik_Tot_abs_Q>  (310) 
0

>  <s_epik_Chemistry_Notes>  (310) 
This compound has an ester and may undergo hydrolysis at high or low pH.

>  <s_lp_Force_Field>  (310) 
OPLS3e

>  <r_lp_Energy>  (310) 
90.0588

>  <b_lp_Chiralities_Consistent>  (310) 
1

>  <s_lp_Variant>  (310) 
90:0-1

>  <s_i_glide_gridfile>  (310) 
pfpi4k_grid

>  <i_i_glide_lignum>  (310) 
44

>  <i_i_glide_rotatable_bonds>  (310) 
2

>  <r_i_docking_score>  (310) 
-2.66366

>  <r_i_glide_ligand_efficiency>  (310) 
-0.0807168

>  <r_i_glide_ligand_efficiency_sa>  (310) 
-0.258902

>  <r_i_glide_ligand_efficiency_ln>  (310) 
-0.592383

>  <r_i_glide_gscore>  (310) 
-2.66366

>  <r_i_glide_lipo>  (310) 
-0.223168

>  <r_i_glide_hbond>  (310) 
-0.299908

>  <r_i_glide_metal>  (310) 
-0

>  <r_i_glide_rewards>  (310) 
-0.30985

>  <r_i_glide_evdw>  (310) 
-19.5071

>  <r_i_glide_ecoul>  (310) 
-6.12214

>  <r_i_glide_erotb>  (310) 
0.0971929

>  <r_i_glide_esite>  (310) 
-0.0342431

>  <r_i_glide_emodel>  (310) 
-29.6232

>  <r_i_glide_energy>  (310) 
-25.6293

>  <r_i_glide_einternal>  (310) 
0.659559

>  <r_i_glide_intrahb_reward>  (310) 
-0

>  <i_i_glide_confnum>  (310) 
2

>  <i_i_glide_posenum>  (310) 
30

>  <r_i_glide_eff_state_penalty>  (310) 
0

>  <ligand_id>  (310) 
90

>  <original_smiles>  (310) 
CC1(C2(C)C(O)C3OC32)CCC2CC34OCC(=O)C3(C)C3C(CC5CC6C(=O)OC5C63)C4C21

>  <smiles>  (310) 
[H]OC1([H])C2([H])OC2([H])C1(C([H])([H])[H])C1(C([H])([H])[H])C([H])([H])C([H])([H])C2([H])C([H])([H])C34OC([H])([H])C(=O)C3(C([H])([H])[H])C3([H])C5([H])C6([H])OC(=O)C5([H])C([H])([H])C6([H])C([H])([H])C3([H])C4([H])C21[H]

$$$$
90:0:1
     RDKit          3D

 67 75  0  0  1  0  0  0  0  0999 V2000
    5.6212   -2.0770    2.3385 C   0  0  0  0  0  0  0  0  0  0  0  0
    4.3030   -2.7352    1.8209 C   0  0  1  0  0  0  0  0  0  0  0  0
    4.1113   -2.5448    0.2716 C   0  0  1  0  0  0  0  0  0  0  0  0
    2.9624   -3.4120   -0.3263 C   0  0  0  0  0  0  0  0  0  0  0  0
    4.0845   -1.1226   -0.3349 C   0  0  1  0  0  0  0  0  0  0  0  0
    4.2679    0.0761    0.4074 O   0  0  0  0  0  0  0  0  0  0  0  0
    5.3098   -1.4009   -1.1458 C   0  0  2  0  0  0  0  0  0  0  0  0
    6.4955   -1.8952   -0.5208 O   0  0  0  0  0  0  0  0  0  0  0  0
    5.3650   -2.7855   -0.5532 C   0  0  1  0  0  0  0  0  0  0  0  0
    4.4472   -4.2265    2.2559 C   0  0  0  0  0  0  0  0  0  0  0  0
    4.0236   -4.2651    3.7265 C   0  0  0  0  0  0  0  0  0  0  0  0
    2.8625   -3.2645    3.7904 C   0  0  1  0  0  0  0  0  0  0  0  0
    2.7687   -2.4245    5.0793 C   0  0  0  0  0  0  0  0  0  0  0  0
    3.3870   -1.0382    4.7134 C   0  0  2  0  0  0  0  0  0  0  0  0
    4.7155   -1.0564    5.2274 O   0  0  0  0  0  0  0  0  0  0  0  0
    4.5711   -0.7616    6.6399 C   0  0  0  0  0  0  0  0  0  0  0  0
    3.2170   -0.0443    6.7221 C   0  0  0  0  0  0  0  0  0  0  0  0
    2.5689    0.1958    7.7357 O   0  0  0  0  0  0  0  0  0  0  0  0
    2.8301    0.2663    5.3112 C   0  0  1  0  0  0  0  0  0  0  0  0
    3.6148    1.5480    4.8977 C   0  0  0  0  0  0  0  0  0  0  0  0
    1.3779    0.3020    4.7978 C   0  0  2  0  0  0  0  0  0  0  0  0
    1.5399   -0.3029    3.3443 C   0  0  1  0  0  0  0  0  0  0  0  0
    1.2153    0.6679    2.1823 C   0  0  0  0  0  0  0  0  0  0  0  0
    0.1759    1.7246    2.5677 C   0  0  1  0  0  0  0  0  0  0  0  0
   -1.0879    1.1381    3.2540 C   0  0  0  0  0  0  0  0  0  0  0  0
   -0.9185    1.5891    4.7168 C   0  0  2  0  0  0  0  0  0  0  0  0
   -1.1968    3.0879    4.6969 C   0  0  0  0  0  0  0  0  0  0  0  0
   -2.1782    3.6520    5.1981 O   0  0  0  0  0  0  0  0  0  0  0  0
   -0.1625    3.6389    4.0397 O   0  0  0  0  0  0  0  0  0  0  0  0
    0.7664    2.6073    3.6942 C   0  0  1  0  0  0  0  0  0  0  0  0
    0.5995    1.6549    4.8976 C   0  0  2  0  0  0  0  0  0  0  0  0
    3.0001   -0.8905    3.2473 C   0  0  2  0  0  0  0  0  0  0  0  0
    3.0393   -2.2975    2.6237 C   0  0  1  0  0  0  0  0  0  0  0  0
    6.5045   -2.5043    1.8469 H   0  0  0  0  0  0  0  0  0  0  0  0
    5.7883   -2.2688    3.3952 H   0  0  0  0  0  0  0  0  0  0  0  0
    5.6756   -0.9935    2.2034 H   0  0  0  0  0  0  0  0  0  0  0  0
    2.8923   -3.3161   -1.4119 H   0  0  0  0  0  0  0  0  0  0  0  0
    1.9803   -3.1281    0.0378 H   0  0  0  0  0  0  0  0  0  0  0  0
    3.0587   -4.4875   -0.1732 H   0  0  0  0  0  0  0  0  0  0  0  0
    3.2365   -0.9597   -0.9798 H   0  0  0  0  0  0  0  0  0  0  0  0
    4.7582    0.6115   -0.1703 H   0  0  0  0  0  0  0  0  0  0  0  0
    5.2381   -1.3505   -2.2358 H   0  0  0  0  0  0  0  0  0  0  0  0
    5.4115   -3.6678   -1.1909 H   0  0  0  0  0  0  0  0  0  0  0  0
    3.7958   -4.9104    1.7215 H   0  0  0  0  0  0  0  0  0  0  0  0
    5.4618   -4.6094    2.1220 H   0  0  0  0  0  0  0  0  0  0  0  0
    3.7208   -5.2635    4.0432 H   0  0  0  0  0  0  0  0  0  0  0  0
    4.8426   -3.9541    4.3769 H   0  0  0  0  0  0  0  0  0  0  0  0
    1.9315   -3.8192    3.6547 H   0  0  0  0  0  0  0  0  0  0  0  0
    1.7160   -2.3335    5.3330 H   0  0  0  0  0  0  0  0  0  0  0  0
    3.2376   -2.9268    5.9311 H   0  0  0  0  0  0  0  0  0  0  0  0
    4.5859   -1.6707    7.2403 H   0  0  0  0  0  0  0  0  0  0  0  0
    5.3754   -0.1108    6.9714 H   0  0  0  0  0  0  0  0  0  0  0  0
    3.6720    1.7122    3.8229 H   0  0  0  0  0  0  0  0  0  0  0  0
    4.6381    1.5453    5.2633 H   0  0  0  0  0  0  0  0  0  0  0  0
    3.1531    2.4407    5.3270 H   0  0  0  0  0  0  0  0  0  0  0  0
    0.7912   -0.4056    5.3991 H   0  0  0  0  0  0  0  0  0  0  0  0
    0.8144   -1.1173    3.2752 H   0  0  0  0  0  0  0  0  0  0  0  0
    2.1181    1.1547    1.8251 H   0  0  0  0  0  0  0  0  0  0  0  0
    0.8223    0.1086    1.3471 H   0  0  0  0  0  0  0  0  0  0  0  0
   -0.1066    2.3104    1.6909 H   0  0  0  0  0  0  0  0  0  0  0  0
   -1.9969    1.5552    2.8029 H   0  0  0  0  0  0  0  0  0  0  0  0
   -1.1588    0.0541    3.1703 H   0  0  0  0  0  0  0  0  0  0  0  0
   -1.4910    1.0779    5.4549 H   0  0  0  0  0  0  0  0  0  0  0  0
    1.7688    2.9709    3.4933 H   0  0  0  0  0  0  0  0  0  0  0  0
    0.8599    2.1365    5.8342 H   0  0  0  0  0  0  0  0  0  0  0  0
    3.6541   -0.1745    2.7757 H   0  0  0  0  0  0  0  0  0  0  0  0
    2.1583   -2.3787    2.0110 H   0  0  0  0  0  0  0  0  0  0  0  0
  2  1  1  1
  1 34  1  0
  1 35  1  0
  1 36  1  0
  2 33  1  0
  2  3  1  0
  2 10  1  0
  3  9  1  0
  3  4  1  6
  3  5  1  0
  4 37  1  0
  4 38  1  0
  4 39  1  0
  5  6  1  0
  5  7  1  0
  5 40  1  6
  6 41  1  0
  7  9  1  0
  7  8  1  0
  7 42  1  6
  8  9  1  0
  9 43  1  6
 10 11  1  0
 10 44  1  0
 10 45  1  0
 11 12  1  0
 11 46  1  0
 11 47  1  0
 12 33  1  0
 12 13  1  0
 12 48  1  6
 13 14  1  0
 13 49  1  0
 13 50  1  0
 14 19  1  0
 14 32  1  0
 14 15  1  6
 15 16  1  0
 16 17  1  0
 16 51  1  0
 16 52  1  0
 17 18  2  0
 17 19  1  0
 19 20  1  6
 19 21  1  0
 20 53  1  0
 20 54  1  0
 20 55  1  0
 21 31  1  0
 21 22  1  0
 21 56  1  1
 22 23  1  0
 22 32  1  0
 22 57  1  1
 23 24  1  0
 23 58  1  0
 23 59  1  0
 24 30  1  0
 24 25  1  0
 24 60  1  6
 25 26  1  0
 25 61  1  0
 25 62  1  0
 26 31  1  0
 26 27  1  0
 26 63  1  1
 27 28  2  0
 27 29  1  0
 29 30  1  0
 30 31  1  0
 30 64  1  6
 31 65  1  1
 32 33  1  0
 32 66  1  6
 33 67  1  6
M  END
>  <i_m_ct_stereo_status>  (311) 
1

>  <s_m_source_file>  (311) 
/var/tmp/pbs.5076255.sched01/tmp0eyfkrct/966b1hsbd3.sdf

>  <i_m_source_file_index>  (311) 
44

>  <i_lp_mmshare_version>  (311) 
48012

>  <i_f3d_flags>  (311) 
0

>  <s_epik_input>  (311) 
W09IXVtDQEBIXTFbQ0BAXShbQ0gzXSkoW0NASF0oTzIpW0NAQEhdMTIpW0NAXTMoW0NIM10pW0NIMl1bQ0gyXVtDQEBIXShbQ0gyXTQpW0NASF0zW0NASF01W0NAQEhdKFtDQEhdNltDQEBdKFtDQEBdNDU3KShbQ0gzXSlDKD1PKVtDSDJdTzcpW0NIMl1bQ0BASF04W0NAQEhdOVtDQEhdNltDQEhdKFtDSDJdOClDKD1PKU85

>  <s_epik_cmdline>  (311) 
J2VwaWtfcHl0aG9uJywgJy1waHQnLCAnMi4wJywgJy1waCcsICc3LjAnLCAnLXRuJywgJzgnLCAnLW1hJywgJzIwMCcsICctaW1hZScsICc8aW5maWxlLm1hZT4nLCAnLW9tYWUnLCAnPG91dGZpbGUubWFlPic=

>  <r_lp_tautomer_probability>  (311) 
1

>  <r_epik_Ionization_Penalty>  (311) 
5.22838e-08

>  <r_epik_Ionization_Penalty_Charging>  (311) 
0

>  <r_epik_Ionization_Penalty_Neutral>  (311) 
5.22838e-08

>  <r_epik_State_Penalty>  (311) 
-0

>  <r_epik_Charging_Adjusted_Penalty>  (311) 
0

>  <i_epik_Tot_Q>  (311) 
0

>  <i_epik_Tot_abs_Q>  (311) 
0

>  <s_epik_Chemistry_Notes>  (311) 
This compound has an ester and may undergo hydrolysis at high or low pH.

>  <s_lp_Force_Field>  (311) 
OPLS3e

>  <r_lp_Energy>  (311) 
90.0588

>  <b_lp_Chiralities_Consistent>  (311) 
1

>  <s_lp_Variant>  (311) 
90:0-1

>  <s_i_glide_gridfile>  (311) 
pfpi4k_grid

>  <i_i_glide_lignum>  (311) 
44

>  <i_i_glide_rotatable_bonds>  (311) 
2

>  <r_i_docking_score>  (311) 
-2.44512

>  <r_i_glide_ligand_efficiency>  (311) 
-0.0740946

>  <r_i_glide_ligand_efficiency_sa>  (311) 
-0.237661

>  <r_i_glide_ligand_efficiency_ln>  (311) 
-0.543782

>  <r_i_glide_gscore>  (311) 
-2.44512

>  <r_i_glide_lipo>  (311) 
-0.0845259

>  <r_i_glide_hbond>  (311) 
-0.108872

>  <r_i_glide_metal>  (311) 
-0

>  <r_i_glide_rewards>  (311) 
-0.30985

>  <r_i_glide_evdw>  (311) 
-20.4936

>  <r_i_glide_ecoul>  (311) 
-6.61104

>  <r_i_glide_erotb>  (311) 
0.0971929

>  <r_i_glide_esite>  (311) 
-0.0227319

>  <r_i_glide_emodel>  (311) 
-29.7809

>  <r_i_glide_energy>  (311) 
-27.1046

>  <r_i_glide_einternal>  (311) 
2.08688

>  <r_i_glide_intrahb_reward>  (311) 
-0

>  <i_i_glide_confnum>  (311) 
4

>  <i_i_glide_posenum>  (311) 
12

>  <r_i_glide_eff_state_penalty>  (311) 
0

>  <ligand_id>  (311) 
90

>  <original_smiles>  (311) 
CC1(C2(C)C(O)C3OC32)CCC2CC34OCC(=O)C3(C)C3C(CC5CC6C(=O)OC5C63)C4C21

>  <smiles>  (311) 
[H]OC1([H])C2([H])OC2([H])C1(C([H])([H])[H])C1(C([H])([H])[H])C([H])([H])C([H])([H])C2([H])C([H])([H])C34OC([H])([H])C(=O)C3(C([H])([H])[H])C3([H])C5([H])C6([H])OC(=O)C5([H])C([H])([H])C6([H])C([H])([H])C3([H])C4([H])C21[H]

$$$$
90:0:2
     RDKit          3D

 67 75  0  0  1  0  0  0  0  0999 V2000
    5.0977   -2.5541    2.4189 C   0  0  0  0  0  0  0  0  0  0  0  0
    3.8228   -2.9870    1.6395 C   0  0  1  0  0  0  0  0  0  0  0  0
    3.8784   -2.4989    0.1457 C   0  0  1  0  0  0  0  0  0  0  0  0
    2.8830   -3.2737   -0.7741 C   0  0  0  0  0  0  0  0  0  0  0  0
    3.8879   -0.9956   -0.1996 C   0  0  1  0  0  0  0  0  0  0  0  0
    3.9326    0.0083    0.8070 O   0  0  0  0  0  0  0  0  0  0  0  0
    5.2225   -1.0980   -0.8224 C   0  0  2  0  0  0  0  0  0  0  0  0
    6.3071   -1.6672   -0.1094 O   0  0  0  0  0  0  0  0  0  0  0  0
    5.2665   -2.5554   -0.5002 C   0  0  1  0  0  0  0  0  0  0  0  0
    3.7670   -4.5378    1.8156 C   0  0  0  0  0  0  0  0  0  0  0  0
    3.1356   -4.7818    3.1846 C   0  0  0  0  0  0  0  0  0  0  0  0
    2.0653   -3.6926    3.2879 C   0  0  1  0  0  0  0  0  0  0  0  0
    1.8713   -3.0958    4.6925 C   0  0  0  0  0  0  0  0  0  0  0  0
    2.6588   -1.7439    4.6860 C   0  0  2  0  0  0  0  0  0  0  0  0
    3.8948   -2.0105    5.3455 O   0  0  0  0  0  0  0  0  0  0  0  0
    3.5910   -1.9570    6.7585 C   0  0  0  0  0  0  0  0  0  0  0  0
    2.3122   -1.1198    6.8188 C   0  0  0  0  0  0  0  0  0  0  0  0
    1.5421   -1.0029    7.7812 O   0  0  0  0  0  0  0  0  0  0  0  0
    2.1514   -0.5137    5.4616 C   0  0  1  0  0  0  0  0  0  0  0  0
    3.1011    0.7253    5.4026 C   0  0  0  0  0  0  0  0  0  0  0  0
    0.7872   -0.2159    4.7902 C   0  0  2  0  0  0  0  0  0  0  0  0
    1.1032   -0.5582    3.2821 C   0  0  1  0  0  0  0  0  0  0  0  0
    1.0196    0.6390    2.3040 C   0  0  0  0  0  0  0  0  0  0  0  0
    0.0372    1.7278    2.7680 C   0  0  1  0  0  0  0  0  0  0  0  0
   -1.3463    1.1799    3.1649 C   0  0  0  0  0  0  0  0  0  0  0  0
   -1.3422    1.3094    4.6966 C   0  0  2  0  0  0  0  0  0  0  0  0
   -1.4791    2.8306    4.9436 C   0  0  0  0  0  0  0  0  0  0  0  0
   -2.4627    3.3794    5.4320 O   0  0  0  0  0  0  0  0  0  0  0  0
   -0.3167    3.3560    4.5248 O   0  0  0  0  0  0  0  0  0  0  0  0
    0.5552    2.3034    4.1044 C   0  0  1  0  0  0  0  0  0  0  0  0
    0.1398    1.1762    5.0658 C   0  0  2  0  0  0  0  0  0  0  0  0
    2.5021   -1.2866    3.2421 C   0  0  2  0  0  0  0  0  0  0  0  0
    2.5019   -2.5523    2.3594 C   0  0  1  0  0  0  0  0  0  0  0  0
    6.0012   -2.9829    1.9740 H   0  0  0  0  0  0  0  0  0  0  0  0
    5.1140   -2.9116    3.4477 H   0  0  0  0  0  0  0  0  0  0  0  0
    5.2430   -1.4714    2.4457 H   0  0  0  0  0  0  0  0  0  0  0  0
    2.9184   -2.9161   -1.8062 H   0  0  0  0  0  0  0  0  0  0  0  0
    1.8365   -3.1457   -0.4745 H   0  0  0  0  0  0  0  0  0  0  0  0
    3.0664   -4.3474   -0.8454 H   0  0  0  0  0  0  0  0  0  0  0  0
    3.1595   -0.7189   -0.9390 H   0  0  0  0  0  0  0  0  0  0  0  0
    3.0806    0.0542    1.1617 H   0  0  0  0  0  0  0  0  0  0  0  0
    5.3244   -0.8081   -1.8816 H   0  0  0  0  0  0  0  0  0  0  0  0
    5.4612   -3.2964   -1.2740 H   0  0  0  0  0  0  0  0  0  0  0  0
    3.1186   -5.0373    1.1011 H   0  0  0  0  0  0  0  0  0  0  0  0
    4.7487   -5.0076    1.7293 H   0  0  0  0  0  0  0  0  0  0  0  0
    2.7057   -5.7833    3.2605 H   0  0  0  0  0  0  0  0  0  0  0  0
    3.8803   -4.6873    3.9769 H   0  0  0  0  0  0  0  0  0  0  0  0
    1.1176   -4.1003    2.9319 H   0  0  0  0  0  0  0  0  0  0  0  0
    0.8044   -2.9324    4.8419 H   0  0  0  0  0  0  0  0  0  0  0  0
    2.1730   -3.7955    5.4780 H   0  0  0  0  0  0  0  0  0  0  0  0
    3.4449   -2.9508    7.1658 H   0  0  0  0  0  0  0  0  0  0  0  0
    4.4007   -1.4744    7.2983 H   0  0  0  0  0  0  0  0  0  0  0  0
    3.3194    1.0731    4.3954 H   0  0  0  0  0  0  0  0  0  0  0  0
    4.0631    0.5353    5.8755 H   0  0  0  0  0  0  0  0  0  0  0  0
    2.6720    1.5694    5.9366 H   0  0  0  0  0  0  0  0  0  0  0  0
    0.0701   -0.9465    5.1743 H   0  0  0  0  0  0  0  0  0  0  0  0
    0.3248   -1.2594    2.9760 H   0  0  0  0  0  0  0  0  0  0  0  0
    1.9967    1.0916    2.1780 H   0  0  0  0  0  0  0  0  0  0  0  0
    0.7032    0.2851    1.3259 H   0  0  0  0  0  0  0  0  0  0  0  0
   -0.0465    2.5198    2.0203 H   0  0  0  0  0  0  0  0  0  0  0  0
   -2.1509    1.7495    2.6997 H   0  0  0  0  0  0  0  0  0  0  0  0
   -1.4924    0.1404    2.8638 H   0  0  0  0  0  0  0  0  0  0  0  0
   -2.0517    0.7521    5.2432 H   0  0  0  0  0  0  0  0  0  0  0  0
    1.6019    2.5831    4.0985 H   0  0  0  0  0  0  0  0  0  0  0  0
    0.3138    1.4479    6.1086 H   0  0  0  0  0  0  0  0  0  0  0  0
    3.2909   -0.5871    3.0168 H   0  0  0  0  0  0  0  0  0  0  0  0
    1.7387   -2.4082    1.6140 H   0  0  0  0  0  0  0  0  0  0  0  0
  2  1  1  1
  1 34  1  0
  1 35  1  0
  1 36  1  0
  2 33  1  0
  2  3  1  0
  2 10  1  0
  3  9  1  0
  3  4  1  6
  3  5  1  0
  4 37  1  0
  4 38  1  0
  4 39  1  0
  5  6  1  0
  5  7  1  0
  5 40  1  6
  6 41  1  0
  7  9  1  0
  7  8  1  0
  7 42  1  6
  8  9  1  0
  9 43  1  6
 10 11  1  0
 10 44  1  0
 10 45  1  0
 11 12  1  0
 11 46  1  0
 11 47  1  0
 12 33  1  0
 12 13  1  0
 12 48  1  6
 13 14  1  0
 13 49  1  0
 13 50  1  0
 14 19  1  0
 14 32  1  0
 14 15  1  1
 15 16  1  0
 16 17  1  0
 16 51  1  0
 16 52  1  0
 17 18  2  0
 17 19  1  0
 19 20  1  1
 19 21  1  0
 20 53  1  0
 20 54  1  0
 20 55  1  0
 21 31  1  0
 21 22  1  0
 21 56  1  1
 22 23  1  0
 22 32  1  0
 22 57  1  6
 23 24  1  0
 23 58  1  0
 23 59  1  0
 24 30  1  0
 24 25  1  0
 24 60  1  6
 25 26  1  0
 25 61  1  0
 25 62  1  0
 26 31  1  0
 26 27  1  0
 26 63  1  1
 27 28  2  0
 27 29  1  0
 29 30  1  0
 30 31  1  0
 30 64  1  6
 31 65  1  1
 32 33  1  0
 32 66  1  6
 33 67  1  6
M  END
>  <i_m_ct_stereo_status>  (312) 
1

>  <s_m_source_file>  (312) 
/var/tmp/pbs.5076255.sched01/tmp0eyfkrct/966b1hsbd3.sdf

>  <i_m_source_file_index>  (312) 
44

>  <i_lp_mmshare_version>  (312) 
48012

>  <i_f3d_flags>  (312) 
0

>  <s_epik_input>  (312) 
W09IXVtDQEBIXTFbQ0BAXShbQ0gzXSkoW0NASF0oTzIpW0NAQEhdMTIpW0NAXTMoW0NIM10pW0NIMl1bQ0gyXVtDQEBIXShbQ0gyXTQpW0NASF0zW0NASF01W0NAQEhdKFtDQEhdNltDQEBdKFtDQEBdNDU3KShbQ0gzXSlDKD1PKVtDSDJdTzcpW0NIMl1bQ0BASF04W0NAQEhdOVtDQEhdNltDQEhdKFtDSDJdOClDKD1PKU85

>  <s_epik_cmdline>  (312) 
J2VwaWtfcHl0aG9uJywgJy1waHQnLCAnMi4wJywgJy1waCcsICc3LjAnLCAnLXRuJywgJzgnLCAnLW1hJywgJzIwMCcsICctaW1hZScsICc8aW5maWxlLm1hZT4nLCAnLW9tYWUnLCAnPG91dGZpbGUubWFlPic=

>  <r_lp_tautomer_probability>  (312) 
1

>  <r_epik_Ionization_Penalty>  (312) 
5.22838e-08

>  <r_epik_Ionization_Penalty_Charging>  (312) 
0

>  <r_epik_Ionization_Penalty_Neutral>  (312) 
5.22838e-08

>  <r_epik_State_Penalty>  (312) 
-0

>  <r_epik_Charging_Adjusted_Penalty>  (312) 
0

>  <i_epik_Tot_Q>  (312) 
0

>  <i_epik_Tot_abs_Q>  (312) 
0

>  <s_epik_Chemistry_Notes>  (312) 
This compound has an ester and may undergo hydrolysis at high or low pH.

>  <s_lp_Force_Field>  (312) 
OPLS3e

>  <r_lp_Energy>  (312) 
90.0588

>  <b_lp_Chiralities_Consistent>  (312) 
1

>  <s_lp_Variant>  (312) 
90:0-1

>  <s_i_glide_gridfile>  (312) 
pfpi4k_grid

>  <i_i_glide_lignum>  (312) 
44

>  <i_i_glide_rotatable_bonds>  (312) 
2

>  <r_i_docking_score>  (312) 
-2.11246

>  <r_i_glide_ligand_efficiency>  (312) 
-0.0640138

>  <r_i_glide_ligand_efficiency_sa>  (312) 
-0.205327

>  <r_i_glide_ligand_efficiency_ln>  (312) 
-0.469799

>  <r_i_glide_gscore>  (312) 
-2.11246

>  <r_i_glide_lipo>  (312) 
-0.0762078

>  <r_i_glide_hbond>  (312) 
-0.0144469

>  <r_i_glide_metal>  (312) 
-0

>  <r_i_glide_rewards>  (312) 
-0.30985

>  <r_i_glide_evdw>  (312) 
-22.4679

>  <r_i_glide_ecoul>  (312) 
-4.50855

>  <r_i_glide_erotb>  (312) 
0.0971929

>  <r_i_glide_esite>  (312) 
-0.00946898

>  <r_i_glide_emodel>  (312) 
-29.457

>  <r_i_glide_energy>  (312) 
-26.9764

>  <r_i_glide_einternal>  (312) 
1.13341

>  <r_i_glide_intrahb_reward>  (312) 
-0

>  <i_i_glide_confnum>  (312) 
2

>  <i_i_glide_posenum>  (312) 
33

>  <r_i_glide_eff_state_penalty>  (312) 
0

>  <ligand_id>  (312) 
90

>  <original_smiles>  (312) 
CC1(C2(C)C(O)C3OC32)CCC2CC34OCC(=O)C3(C)C3C(CC5CC6C(=O)OC5C63)C4C21

>  <smiles>  (312) 
[H]OC1([H])C2([H])OC2([H])C1(C([H])([H])[H])C1(C([H])([H])[H])C([H])([H])C([H])([H])C2([H])C([H])([H])C34OC([H])([H])C(=O)C3(C([H])([H])[H])C3([H])C5([H])C6([H])OC(=O)C5([H])C([H])([H])C6([H])C([H])([H])C3([H])C4([H])C21[H]

$$$$
91:0:0
     RDKit          3D

 65 71  0  0  1  0  0  0  0  0999 V2000
    1.7891    3.7582    3.4719 C   0  0  0  0  0  0  0  0  0  0  0  0
    2.0212    2.2789    3.8326 C   0  0  2  0  0  0  0  0  0  0  0  0
    3.4192    2.0877    4.4807 C   0  0  0  0  0  0  0  0  0  0  0  0
    3.6928    0.7517    5.2315 C   0  0  0  0  0  0  0  0  0  0  0  0
    3.1717   -0.4854    4.5001 C   0  0  0  0  0  0  0  0  0  0  0  0
    1.8444   -0.6048    4.3521 C   0  0  0  0  0  0  0  0  0  0  0  0
    1.1058   -1.4315    3.3580 C   0  0  2  0  0  0  0  0  0  0  0  0
    2.0940   -1.9585    2.3238 C   0  0  0  0  0  0  0  0  0  0  0  0
    3.3329   -2.6018    3.0102 C   0  0  2  0  0  0  0  0  0  0  0  0
    4.1562   -1.4723    3.7974 C   0  0  2  0  0  0  0  0  0  0  0  0
    4.9897   -2.1121    4.9445 C   0  0  0  0  0  0  0  0  0  0  0  0
    5.0389   -0.6063    2.8484 C   0  0  0  0  0  0  0  0  0  0  0  0
    6.1773   -1.2781    2.0625 C   0  0  0  0  0  0  0  0  0  0  0  0
    5.9551   -1.3490    0.5461 C   0  0  1  0  0  0  0  0  0  0  0  0
    7.1189   -1.8548   -0.0922 O   0  0  0  0  0  0  0  0  0  0  0  0
    4.7044   -2.1274    0.0973 C   0  0  0  0  0  0  0  0  0  0  0  0
    4.4416   -3.5624    0.6486 C   0  0  2  0  0  0  0  0  0  0  0  0
    5.6407   -4.4726    0.2509 C   0  0  0  0  0  0  0  0  0  0  0  0
    3.2290   -4.1471   -0.1223 C   0  0  0  0  0  0  0  0  0  0  0  0
    2.6907   -5.2564    0.7363 C   0  0  2  0  0  0  0  0  0  0  0  0
    1.8134   -4.9162    1.8066 O   0  0  0  0  0  0  0  0  0  0  0  0
    3.1886   -5.0269    2.1395 C   0  0  2  0  0  0  0  0  0  0  0  0
    4.0500   -3.7634    2.1800 C   0  0  2  0  0  0  0  0  0  0  0  0
    5.1465   -4.2460    2.9242 O   0  0  0  0  0  0  0  0  0  0  0  0
    0.3337   -0.0888    3.1860 C   0  0  2  0  0  0  0  0  0  0  0  0
    0.7719    0.9740    2.1583 C   0  0  0  0  0  0  0  0  0  0  0  0
    2.0067    1.5815    2.5685 O   0  0  0  0  0  0  0  0  0  0  0  0
    0.6581    0.2945    4.6381 C   0  0  2  0  0  0  0  0  0  0  0  0
    0.9308    1.7800    4.8171 C   0  0  0  0  0  0  0  0  0  0  0  0
    1.7755    4.3904    4.3588 H   0  0  0  0  0  0  0  0  0  0  0  0
    0.8337    3.8884    2.9607 H   0  0  0  0  0  0  0  0  0  0  0  0
    2.5620    4.1300    2.7987 H   0  0  0  0  0  0  0  0  0  0  0  0
    4.1709    2.2178    3.7077 H   0  0  0  0  0  0  0  0  0  0  0  0
    3.5850    2.8982    5.1944 H   0  0  0  0  0  0  0  0  0  0  0  0
    4.7545    0.6779    5.4557 H   0  0  0  0  0  0  0  0  0  0  0  0
    3.2004    0.7831    6.2058 H   0  0  0  0  0  0  0  0  0  0  0  0
    0.4707   -2.1995    3.8067 H   0  0  0  0  0  0  0  0  0  0  0  0
    1.5731   -2.6291    1.6565 H   0  0  0  0  0  0  0  0  0  0  0  0
    2.4043   -1.1352    1.6928 H   0  0  0  0  0  0  0  0  0  0  0  0
    2.8830   -3.1735    3.8207 H   0  0  0  0  0  0  0  0  0  0  0  0
    5.8626   -2.6426    4.5861 H   0  0  0  0  0  0  0  0  0  0  0  0
    4.3989   -2.8311    5.5131 H   0  0  0  0  0  0  0  0  0  0  0  0
    5.3660   -1.3839    5.6647 H   0  0  0  0  0  0  0  0  0  0  0  0
    4.3962   -0.0600    2.1573 H   0  0  0  0  0  0  0  0  0  0  0  0
    5.5231    0.1704    3.4377 H   0  0  0  0  0  0  0  0  0  0  0  0
    7.0599   -0.6604    2.2247 H   0  0  0  0  0  0  0  0  0  0  0  0
    6.4442   -2.2475    2.4647 H   0  0  0  0  0  0  0  0  0  0  0  0
    5.8540   -0.3245    0.1813 H   0  0  0  0  0  0  0  0  0  0  0  0
    7.2602   -2.7359    0.2064 H   0  0  0  0  0  0  0  0  0  0  0  0
    3.8419   -1.4981    0.2647 H   0  0  0  0  0  0  0  0  0  0  0  0
    4.7603   -2.1913   -0.9902 H   0  0  0  0  0  0  0  0  0  0  0  0
    5.4366   -5.5295    0.4422 H   0  0  0  0  0  0  0  0  0  0  0  0
    6.5496   -4.2337    0.8003 H   0  0  0  0  0  0  0  0  0  0  0  0
    5.8679   -4.3849   -0.8132 H   0  0  0  0  0  0  0  0  0  0  0  0
    2.4435   -3.4043   -0.2798 H   0  0  0  0  0  0  0  0  0  0  0  0
    3.5032   -4.5312   -1.1043 H   0  0  0  0  0  0  0  0  0  0  0  0
    2.5643   -6.2534    0.3211 H   0  0  0  0  0  0  0  0  0  0  0  0
    3.4079   -5.8635    2.8032 H   0  0  0  0  0  0  0  0  0  0  0  0
    4.8275   -4.5247    3.7702 H   0  0  0  0  0  0  0  0  0  0  0  0
   -0.7347   -0.2863    3.1014 H   0  0  0  0  0  0  0  0  0  0  0  0
    0.9065    0.5408    1.1681 H   0  0  0  0  0  0  0  0  0  0  0  0
    0.0128    1.7473    2.0394 H   0  0  0  0  0  0  0  0  0  0  0  0
   -0.0866   -0.1098    5.3202 H   0  0  0  0  0  0  0  0  0  0  0  0
    1.1772    2.0371    5.8466 H   0  0  0  0  0  0  0  0  0  0  0  0
    0.0016    2.3173    4.6026 H   0  0  0  0  0  0  0  0  0  0  0  0
  2  1  1  6
  1 30  1  0
  1 31  1  0
  1 32  1  0
  2 27  1  0
  2 29  1  0
  2  3  1  0
  3  4  1  0
  3 33  1  0
  3 34  1  0
  4  5  1  0
  4 35  1  0
  4 36  1  0
  5 10  1  0
  5  6  2  0
  6 28  1  0
  6  7  1  0
  7  8  1  0
  7 25  1  0
  7 37  1  1
  8  9  1  0
  8 38  1  0
  8 39  1  0
  9 23  1  0
  9 10  1  0
  9 40  1  1
 10 11  1  1
 10 12  1  0
 11 41  1  0
 11 42  1  0
 11 43  1  0
 12 13  1  0
 12 44  1  0
 12 45  1  0
 13 14  1  0
 13 46  1  0
 13 47  1  0
 14 15  1  0
 14 16  1  0
 14 48  1  6
 15 49  1  0
 16 17  1  0
 16 50  1  0
 16 51  1  0
 17 23  1  0
 17 18  1  6
 17 19  1  0
 18 52  1  0
 18 53  1  0
 18 54  1  0
 19 20  1  0
 19 55  1  0
 19 56  1  0
 20 22  1  0
 20 21  1  0
 20 57  1  6
 21 22  1  0
 22 23  1  0
 22 58  1  1
 23 24  1  1
 24 59  1  0
 25 26  1  0
 25 28  1  0
 25 60  1  1
 26 27  1  0
 26 61  1  0
 26 62  1  0
 28 29  1  0
 28 63  1  1
 29 64  1  0
 29 65  1  0
M  END
>  <i_m_ct_stereo_status>  (313) 
1

>  <s_m_source_file>  (313) 
/var/tmp/pbs.5076255.sched01/tmp0eyfkrct/966b1hsbd3.sdf

>  <i_m_source_file_index>  (313) 
45

>  <i_lp_mmshare_version>  (313) 
48012

>  <i_f3d_flags>  (313) 
0

>  <s_epik_input>  (313) 
W0NIM11bQ0BdMTJbQ0gyXVtDSDJdQzM9QzRbQ0BASF0oW0NASF0oW0NIMl1PMSlbQ0BASF00W0NIMl0yKVtDSDJdW0NAQEhdNVtDQEBdMyhbQ0gzXSlbQ0gyXVtDSDJdW0NAQEhdKFtPSF0pW0NIMl1bQ0BAXTYoW0NIM10pW0NAXTUoW09IXSlbQ0BASF03W0NAQEhdKE83KVtDSDJdNg==

>  <s_epik_cmdline>  (313) 
J2VwaWtfcHl0aG9uJywgJy1waHQnLCAnMi4wJywgJy1waCcsICc3LjAnLCAnLXRuJywgJzgnLCAnLW1hJywgJzIwMCcsICctaW1hZScsICc8aW5maWxlLm1hZT4nLCAnLW9tYWUnLCAnPG91dGZpbGUubWFlPic=

>  <r_lp_tautomer_probability>  (313) 
1

>  <r_epik_Ionization_Penalty>  (313) 
1.00335e-06

>  <r_epik_Ionization_Penalty_Charging>  (313) 
0

>  <r_epik_Ionization_Penalty_Neutral>  (313) 
1.00335e-06

>  <r_epik_State_Penalty>  (313) 
-0

>  <r_epik_Charging_Adjusted_Penalty>  (313) 
0

>  <i_epik_Tot_Q>  (313) 
0

>  <i_epik_Tot_abs_Q>  (313) 
0

>  <s_lp_Force_Field>  (313) 
OPLS3e

>  <r_lp_Energy>  (313) 
79.4644

>  <b_lp_Chiralities_Consistent>  (313) 
1

>  <s_lp_Variant>  (313) 
91:0-1

>  <s_i_glide_gridfile>  (313) 
pfpi4k_grid

>  <i_i_glide_lignum>  (313) 
45

>  <i_i_glide_rotatable_bonds>  (313) 
2

>  <r_i_docking_score>  (313) 
-3.07899

>  <r_i_glide_ligand_efficiency>  (313) 
-0.106172

>  <r_i_glide_ligand_efficiency_sa>  (313) 
-0.326194

>  <r_i_glide_ligand_efficiency_ln>  (313) 
-0.705011

>  <r_i_glide_gscore>  (313) 
-3.07899

>  <r_i_glide_lipo>  (313) 
-0.532804

>  <r_i_glide_hbond>  (313) 
-0.139526

>  <r_i_glide_metal>  (313) 
-0

>  <r_i_glide_rewards>  (313) 
-0.678062

>  <r_i_glide_evdw>  (313) 
-24.3201

>  <r_i_glide_ecoul>  (313) 
-3.4173

>  <r_i_glide_erotb>  (313) 
0

>  <r_i_glide_esite>  (313) 
0

>  <r_i_glide_emodel>  (313) 
-33.2016

>  <r_i_glide_energy>  (313) 
-27.7374

>  <r_i_glide_einternal>  (313) 
0.0293434

>  <r_i_glide_intrahb_reward>  (313) 
-0

>  <i_i_glide_confnum>  (313) 
2

>  <i_i_glide_posenum>  (313) 
38

>  <r_i_glide_eff_state_penalty>  (313) 
0

>  <ligand_id>  (313) 
91

>  <original_smiles>  (313) 
CC12CCC3=C4C(CC5C3(C)CCC(O)CC3(C)CC6OC6C53O)C(CO1)C4C2

>  <smiles>  (313) 
[H]OC1([H])C([H])([H])C([H])([H])C2(C([H])([H])[H])C3=C4C([H])(C([H])([H])C2([H])C2(O[H])C5([H])OC5([H])C([H])([H])C2(C([H])([H])[H])C1([H])[H])C1([H])C([H])([H])OC(C([H])([H])[H])(C([H])([H])C3([H])[H])C([H])([H])C41[H]

$$$$
91:0:1
     RDKit          3D

 65 71  0  0  1  0  0  0  0  0999 V2000
    0.5734    5.7334    3.6564 C   0  0  0  0  0  0  0  0  0  0  0  0
    0.6817    4.4957    4.5689 C   0  0  2  0  0  0  0  0  0  0  0  0
    2.0706    4.4580    5.2686 C   0  0  0  0  0  0  0  0  0  0  0  0
    2.2240    3.5101    6.4944 C   0  0  0  0  0  0  0  0  0  0  0  0
    1.5889    2.1317    6.2958 C   0  0  0  0  0  0  0  0  0  0  0  0
    0.2526    2.0735    6.1712 C   0  0  0  0  0  0  0  0  0  0  0  0
   -0.5643    0.9863    5.5639 C   0  0  2  0  0  0  0  0  0  0  0  0
    0.3613    0.0179    4.8419 C   0  0  0  0  0  0  0  0  0  0  0  0
    1.5479   -0.4008    5.7588 C   0  0  2  0  0  0  0  0  0  0  0  0
    2.4816    0.8714    6.0642 C   0  0  2  0  0  0  0  0  0  0  0  0
    3.2749    0.6671    7.3913 C   0  0  0  0  0  0  0  0  0  0  0  0
    3.4368    1.2165    4.8824 C   0  0  0  0  0  0  0  0  0  0  0  0
    4.5182    0.2002    4.4621 C   0  0  0  0  0  0  0  0  0  0  0  0
    4.2634   -0.4466    3.0938 C   0  0  1  0  0  0  0  0  0  0  0  0
    5.3818   -1.2440    2.7536 O   0  0  0  0  0  0  0  0  0  0  0  0
    2.9429   -1.2292    2.9444 C   0  0  0  0  0  0  0  0  0  0  0  0
    2.5504   -2.3072    4.0011 C   0  0  2  0  0  0  0  0  0  0  0  0
    3.6639   -3.3965    4.0284 C   0  0  0  0  0  0  0  0  0  0  0  0
    1.2851   -3.0449    3.4888 C   0  0  0  0  0  0  0  0  0  0  0  0
    0.6292   -3.6611    4.6946 C   0  0  2  0  0  0  0  0  0  0  0  0
   -0.2326   -2.8454    5.4875 O   0  0  0  0  0  0  0  0  0  0  0  0
    1.1357   -2.9287    5.9027 C   0  0  2  0  0  0  0  0  0  0  0  0
    2.1385   -1.8516    5.4706 C   0  0  2  0  0  0  0  0  0  0  0  0
    3.1911   -2.0881    6.3796 O   0  0  0  0  0  0  0  0  0  0  0  0
   -1.2228    2.2058    4.8557 C   0  0  2  0  0  0  0  0  0  0  0  0
   -0.6955    2.7426    3.5081 C   0  0  0  0  0  0  0  0  0  0  0  0
    0.5902    3.3571    3.6856 O   0  0  0  0  0  0  0  0  0  0  0  0
   -0.8516    3.1058    6.0473 C   0  0  2  0  0  0  0  0  0  0  0  0
   -0.4414    4.5134    5.6386 C   0  0  0  0  0  0  0  0  0  0  0  0
    0.6242    6.6657    4.2182 H   0  0  0  0  0  0  0  0  0  0  0  0
   -0.3650    5.7333    3.1005 H   0  0  0  0  0  0  0  0  0  0  0  0
    1.3710    5.7472    2.9127 H   0  0  0  0  0  0  0  0  0  0  0  0
    2.8298    4.2231    4.5240 H   0  0  0  0  0  0  0  0  0  0  0  0
    2.3088    5.4666    5.6164 H   0  0  0  0  0  0  0  0  0  0  0  0
    3.2748    3.4419    6.7688 H   0  0  0  0  0  0  0  0  0  0  0  0
    1.7398    3.9660    7.3599 H   0  0  0  0  0  0  0  0  0  0  0  0
   -1.2578    0.5130    6.2615 H   0  0  0  0  0  0  0  0  0  0  0  0
   -0.2258   -0.8085    4.4661 H   0  0  0  0  0  0  0  0  0  0  0  0
    0.7446    0.4996    3.9520 H   0  0  0  0  0  0  0  0  0  0  0  0
    1.0622   -0.5663    6.7201 H   0  0  0  0  0  0  0  0  0  0  0  0
    4.1246   -0.0031    7.2942 H   0  0  0  0  0  0  0  0  0  0  0  0
    2.6328    0.2646    8.1778 H   0  0  0  0  0  0  0  0  0  0  0  0
    3.6938    1.5929    7.7878 H   0  0  0  0  0  0  0  0  0  0  0  0
    2.8398    1.4946    4.0132 H   0  0  0  0  0  0  0  0  0  0  0  0
    3.9831    2.1257    5.1294 H   0  0  0  0  0  0  0  0  0  0  0  0
    5.4572    0.7529    4.3803 H   0  0  0  0  0  0  0  0  0  0  0  0
    4.7261   -0.5457    5.2204 H   0  0  0  0  0  0  0  0  0  0  0  0
    4.2461    0.3499    2.3478 H   0  0  0  0  0  0  0  0  0  0  0  0
    5.2362   -1.6161    1.9009 H   0  0  0  0  0  0  0  0  0  0  0  0
    2.1400   -0.5155    2.8261 H   0  0  0  0  0  0  0  0  0  0  0  0
    2.9798   -1.7184    1.9713 H   0  0  0  0  0  0  0  0  0  0  0  0
    3.3746   -4.2683    4.6194 H   0  0  0  0  0  0  0  0  0  0  0  0
    4.5970   -3.0295    4.4519 H   0  0  0  0  0  0  0  0  0  0  0  0
    3.8943   -3.7562    3.0242 H   0  0  0  0  0  0  0  0  0  0  0  0
    0.5803   -2.3555    3.0240 H   0  0  0  0  0  0  0  0  0  0  0  0
    1.5104   -3.8121    2.7495 H   0  0  0  0  0  0  0  0  0  0  0  0
    0.4315   -4.7304    4.7199 H   0  0  0  0  0  0  0  0  0  0  0  0
    1.2924   -3.4675    6.8383 H   0  0  0  0  0  0  0  0  0  0  0  0
    3.8731   -1.4602    6.2090 H   0  0  0  0  0  0  0  0  0  0  0  0
   -2.3023    2.0450    4.8177 H   0  0  0  0  0  0  0  0  0  0  0  0
   -0.6054    1.9449    2.7704 H   0  0  0  0  0  0  0  0  0  0  0  0
   -1.3801    3.4710    3.0730 H   0  0  0  0  0  0  0  0  0  0  0  0
   -1.6216    3.0728    6.8162 H   0  0  0  0  0  0  0  0  0  0  0  0
   -0.1711    5.1358    6.4904 H   0  0  0  0  0  0  0  0  0  0  0  0
   -1.3203    4.9896    5.1997 H   0  0  0  0  0  0  0  0  0  0  0  0
  2  1  1  6
  1 30  1  0
  1 31  1  0
  1 32  1  0
  2 27  1  0
  2 29  1  0
  2  3  1  0
  3  4  1  0
  3 33  1  0
  3 34  1  0
  4  5  1  0
  4 35  1  0
  4 36  1  0
  5 10  1  0
  5  6  2  0
  6 28  1  0
  6  7  1  0
  7  8  1  0
  7 25  1  0
  7 37  1  1
  8  9  1  0
  8 38  1  0
  8 39  1  0
  9 23  1  0
  9 10  1  0
  9 40  1  1
 10 11  1  1
 10 12  1  0
 11 41  1  0
 11 42  1  0
 11 43  1  0
 12 13  1  0
 12 44  1  0
 12 45  1  0
 13 14  1  0
 13 46  1  0
 13 47  1  0
 14 15  1  0
 14 16  1  0
 14 48  1  6
 15 49  1  0
 16 17  1  0
 16 50  1  0
 16 51  1  0
 17 23  1  0
 17 18  1  1
 17 19  1  0
 18 52  1  0
 18 53  1  0
 18 54  1  0
 19 20  1  0
 19 55  1  0
 19 56  1  0
 20 22  1  0
 20 21  1  0
 20 57  1  1
 21 22  1  0
 22 23  1  0
 22 58  1  1
 23 24  1  1
 24 59  1  0
 25 26  1  0
 25 28  1  0
 25 60  1  6
 26 27  1  0
 26 61  1  0
 26 62  1  0
 28 29  1  0
 28 63  1  1
 29 64  1  0
 29 65  1  0
M  END
>  <i_m_ct_stereo_status>  (314) 
1

>  <s_m_source_file>  (314) 
/var/tmp/pbs.5076255.sched01/tmp0eyfkrct/966b1hsbd3.sdf

>  <i_m_source_file_index>  (314) 
45

>  <i_lp_mmshare_version>  (314) 
48012

>  <i_f3d_flags>  (314) 
0

>  <s_epik_input>  (314) 
W0NIM11bQ0BdMTJbQ0gyXVtDSDJdQzM9QzRbQ0BASF0oW0NASF0oW0NIMl1PMSlbQ0BASF00W0NIMl0yKVtDSDJdW0NAQEhdNVtDQEBdMyhbQ0gzXSlbQ0gyXVtDSDJdW0NAQEhdKFtPSF0pW0NIMl1bQ0BAXTYoW0NIM10pW0NAXTUoW09IXSlbQ0BASF03W0NAQEhdKE83KVtDSDJdNg==

>  <s_epik_cmdline>  (314) 
J2VwaWtfcHl0aG9uJywgJy1waHQnLCAnMi4wJywgJy1waCcsICc3LjAnLCAnLXRuJywgJzgnLCAnLW1hJywgJzIwMCcsICctaW1hZScsICc8aW5maWxlLm1hZT4nLCAnLW9tYWUnLCAnPG91dGZpbGUubWFlPic=

>  <r_lp_tautomer_probability>  (314) 
1

>  <r_epik_Ionization_Penalty>  (314) 
1.00335e-06

>  <r_epik_Ionization_Penalty_Charging>  (314) 
0

>  <r_epik_Ionization_Penalty_Neutral>  (314) 
1.00335e-06

>  <r_epik_State_Penalty>  (314) 
-0

>  <r_epik_Charging_Adjusted_Penalty>  (314) 
0

>  <i_epik_Tot_Q>  (314) 
0

>  <i_epik_Tot_abs_Q>  (314) 
0

>  <s_lp_Force_Field>  (314) 
OPLS3e

>  <r_lp_Energy>  (314) 
79.4644

>  <b_lp_Chiralities_Consistent>  (314) 
1

>  <s_lp_Variant>  (314) 
91:0-1

>  <s_i_glide_gridfile>  (314) 
pfpi4k_grid

>  <i_i_glide_lignum>  (314) 
45

>  <i_i_glide_rotatable_bonds>  (314) 
2

>  <r_i_docking_score>  (314) 
-1.96652

>  <r_i_glide_ligand_efficiency>  (314) 
-0.0678111

>  <r_i_glide_ligand_efficiency_sa>  (314) 
-0.208337

>  <r_i_glide_ligand_efficiency_ln>  (314) 
-0.450284

>  <r_i_glide_gscore>  (314) 
-1.96652

>  <r_i_glide_lipo>  (314) 
-0.146081

>  <r_i_glide_hbond>  (314) 
0

>  <r_i_glide_metal>  (314) 
-0

>  <r_i_glide_rewards>  (314) 
-0.678062

>  <r_i_glide_evdw>  (314) 
-21.497

>  <r_i_glide_ecoul>  (314) 
-0.450214

>  <r_i_glide_erotb>  (314) 
0

>  <r_i_glide_esite>  (314) 
0

>  <r_i_glide_emodel>  (314) 
-25.2586

>  <r_i_glide_energy>  (314) 
-21.9472

>  <r_i_glide_einternal>  (314) 
0.346557

>  <r_i_glide_intrahb_reward>  (314) 
-0

>  <i_i_glide_confnum>  (314) 
2

>  <i_i_glide_posenum>  (314) 
2

>  <r_i_glide_eff_state_penalty>  (314) 
0

>  <ligand_id>  (314) 
91

>  <original_smiles>  (314) 
CC12CCC3=C4C(CC5C3(C)CCC(O)CC3(C)CC6OC6C53O)C(CO1)C4C2

>  <smiles>  (314) 
[H]OC1([H])C([H])([H])C([H])([H])C2(C([H])([H])[H])C3=C4C([H])(C([H])([H])C2([H])C2(O[H])C5([H])OC5([H])C([H])([H])C2(C([H])([H])[H])C1([H])[H])C1([H])C([H])([H])OC(C([H])([H])[H])(C([H])([H])C3([H])[H])C([H])([H])C41[H]

$$$$
92:0:0
     RDKit          3D

 72 77  0  0  1  0  0  0  0  0999 V2000
   -0.8396   -8.1860    3.9843 C   0  0  0  0  0  0  0  0  0  0  0  0
    0.5016   -8.1344    4.0593 C   0  0  0  0  0  0  0  0  0  0  0  0
    1.3594   -6.9786    4.5463 C   0  0  0  0  0  0  0  0  0  0  0  0
    2.8464   -7.1387    3.9583 C   0  0  2  0  0  0  0  0  0  0  0  0
    2.5408   -8.6414    4.6075 C   0  0  0  0  0  0  0  0  0  0  0  0
    1.4715   -9.2151    3.7300 C   0  0  2  0  0  0  0  0  0  0  0  0
    2.1446   -9.2415    2.3061 C   0  0  1  0  0  0  0  0  0  0  0  0
    1.5757   -8.3973    1.3079 O   0  0  0  0  0  0  0  0  0  0  0  0
    1.4103   -7.0189    1.5884 C   0  0  0  0  0  0  0  0  0  0  0  0
    2.5094   -6.4042    2.4941 C   0  0  2  0  0  0  0  0  0  0  0  0
    3.6628   -5.9335    1.4979 C   0  0  0  0  0  0  0  0  0  0  0  0
    5.0805   -5.4130    1.9752 C   0  0  2  0  0  0  0  0  0  0  0  0
    4.8959   -4.3812    3.1230 C   0  0  0  0  0  0  0  0  0  0  0  0
    5.7372   -4.7229    0.7285 C   0  0  1  0  0  0  0  0  0  0  0  0
    4.9817   -3.6059   -0.0183 C   0  0  0  0  0  0  0  0  0  0  0  0
    6.0378   -2.5883   -0.4967 C   0  0  1  0  0  0  0  0  0  0  0  0
    5.8054   -1.2213    0.1796 C   0  0  0  0  0  0  0  0  0  0  0  0
    7.4076   -3.2471   -0.2011 C   0  0  1  0  0  0  0  0  0  0  0  0
    8.5816   -2.2775   -0.0154 C   0  0  0  0  0  0  0  0  0  0  0  0
    7.1293   -4.1533    1.0059 C   0  0  2  0  0  0  0  0  0  0  0  0
    8.0759   -5.3329    1.2839 C   0  0  1  0  0  0  0  0  0  0  0  0
    9.3929   -4.9037    1.5734 O   0  0  0  0  0  0  0  0  0  0  0  0
    7.5653   -6.1360    2.4942 C   0  0  0  0  0  0  0  0  0  0  0  0
    6.0783   -6.6130    2.3858 C   0  0  1  0  0  0  0  0  0  0  0  0
    5.6545   -7.5902    3.6037 C   0  0  0  0  0  0  0  0  0  0  0  0
    6.5497   -8.8519    3.5520 C   0  0  0  0  0  0  0  0  0  0  0  0
    5.9654   -6.9865    5.0075 C   0  0  0  0  0  0  0  0  0  0  0  0
    4.1188   -8.0032    3.5380 C   0  0  1  0  0  0  0  0  0  0  0  0
    3.7007   -8.9783    2.3294 C   0  0  1  0  0  0  0  0  0  0  0  0
    4.2827  -10.2623    2.4827 O   0  0  0  0  0  0  0  0  0  0  0  0
   -1.3366   -9.0758    3.6282 H   0  0  0  0  0  0  0  0  0  0  0  0
   -1.4456   -7.3375    4.2644 H   0  0  0  0  0  0  0  0  0  0  0  0
    0.8630   -6.0503    4.2731 H   0  0  0  0  0  0  0  0  0  0  0  0
    1.3206   -6.8959    5.6376 H   0  0  0  0  0  0  0  0  0  0  0  0
    3.2780   -9.4507    4.7816 H   0  0  0  0  0  0  0  0  0  0  0  0
    2.2762   -8.6701    5.6759 H   0  0  0  0  0  0  0  0  0  0  0  0
    1.1223  -10.1872    4.0692 H   0  0  0  0  0  0  0  0  0  0  0  0
    1.9620  -10.2381    1.9033 H   0  0  0  0  0  0  0  0  0  0  0  0
    1.4050   -6.5221    0.6178 H   0  0  0  0  0  0  0  0  0  0  0  0
    0.4093   -6.8214    1.9626 H   0  0  0  0  0  0  0  0  0  0  0  0
    2.1247   -5.4196    2.7686 H   0  0  0  0  0  0  0  0  0  0  0  0
    3.8336   -6.6793    0.7198 H   0  0  0  0  0  0  0  0  0  0  0  0
    3.1906   -5.1212    0.9478 H   0  0  0  0  0  0  0  0  0  0  0  0
    5.8328   -4.1702    3.6320 H   0  0  0  0  0  0  0  0  0  0  0  0
    4.2023   -4.7237    3.8905 H   0  0  0  0  0  0  0  0  0  0  0  0
    4.5087   -3.4293    2.7651 H   0  0  0  0  0  0  0  0  0  0  0  0
    5.8618   -5.5046   -0.0213 H   0  0  0  0  0  0  0  0  0  0  0  0
    4.4643   -4.0390   -0.8745 H   0  0  0  0  0  0  0  0  0  0  0  0
    4.2193   -3.1205    0.5912 H   0  0  0  0  0  0  0  0  0  0  0  0
    5.9427   -2.4476   -1.5748 H   0  0  0  0  0  0  0  0  0  0  0  0
    5.9048   -1.2908    1.2626 H   0  0  0  0  0  0  0  0  0  0  0  0
    4.8009   -0.8554   -0.0402 H   0  0  0  0  0  0  0  0  0  0  0  0
    6.4994   -0.4639   -0.1762 H   0  0  0  0  0  0  0  0  0  0  0  0
    7.6496   -3.8642   -1.0690 H   0  0  0  0  0  0  0  0  0  0  0  0
    8.4730   -1.6548    0.8711 H   0  0  0  0  0  0  0  0  0  0  0  0
    8.6624   -1.6068   -0.8612 H   0  0  0  0  0  0  0  0  0  0  0  0
    9.5328   -2.8017    0.0486 H   0  0  0  0  0  0  0  0  0  0  0  0
    7.0758   -3.5016    1.8750 H   0  0  0  0  0  0  0  0  0  0  0  0
    8.1184   -5.9834    0.4111 H   0  0  0  0  0  0  0  0  0  0  0  0
    9.4035   -4.4426    2.4014 H   0  0  0  0  0  0  0  0  0  0  0  0
    8.2289   -6.9892    2.6206 H   0  0  0  0  0  0  0  0  0  0  0  0
    7.6861   -5.5214    3.3852 H   0  0  0  0  0  0  0  0  0  0  0  0
    6.0641   -7.2728    1.5173 H   0  0  0  0  0  0  0  0  0  0  0  0
    6.1676   -9.6360    4.2099 H   0  0  0  0  0  0  0  0  0  0  0  0
    7.5687   -8.6510    3.8768 H   0  0  0  0  0  0  0  0  0  0  0  0
    6.6179   -9.2614    2.5421 H   0  0  0  0  0  0  0  0  0  0  0  0
    5.6745   -7.6775    5.8004 H   0  0  0  0  0  0  0  0  0  0  0  0
    5.4519   -6.0501    5.2056 H   0  0  0  0  0  0  0  0  0  0  0  0
    7.0304   -6.7999    5.1410 H   0  0  0  0  0  0  0  0  0  0  0  0
    4.2534   -6.9765    3.4713 H   0  0  0  0  0  0  0  0  0  0  0  0
    4.0466   -8.6279    1.3633 H   0  0  0  0  0  0  0  0  0  0  0  0
    4.1346  -10.7900    1.7021 H   0  0  0  0  0  0  0  0  0  0  0  0
  1  2  2  0
  1 31  1  0
  1 32  1  0
  2  6  1  0
  2  3  1  0
  4  3  1  6
  3 33  1  0
  3 34  1  0
  4 10  1  0
  4 28  1  0
  4  5  1  0
  5  6  1  0
  5 35  1  0
  5 36  1  0
  6  7  1  0
  6 37  1  1
  7 29  1  0
  7  8  1  0
  7 38  1  6
  8  9  1  0
  9 10  1  0
  9 39  1  0
  9 40  1  0
 10 11  1  0
 10 41  1  1
 11 12  1  0
 11 42  1  0
 11 43  1  0
 12 24  1  0
 12 13  1  1
 12 14  1  0
 13 44  1  0
 13 45  1  0
 13 46  1  0
 14 20  1  0
 14 15  1  0
 14 47  1  6
 15 16  1  0
 15 48  1  0
 15 49  1  0
 16 17  1  0
 16 18  1  0
 16 50  1  6
 17 51  1  0
 17 52  1  0
 17 53  1  0
 18 19  1  0
 18 20  1  0
 18 54  1  6
 19 55  1  0
 19 56  1  0
 19 57  1  0
 20 21  1  0
 20 58  1  1
 21 22  1  0
 21 23  1  0
 21 59  1  6
 22 60  1  0
 23 24  1  0
 23 61  1  0
 23 62  1  0
 24 25  1  0
 24 63  1  6
 25 26  1  0
 25 27  1  0
 25 28  1  0
 26 64  1  0
 26 65  1  0
 26 66  1  0
 27 67  1  0
 27 68  1  0
 27 69  1  0
 28 29  1  0
 28 70  1  1
 29 30  1  0
 29 71  1  6
 30 72  1  0
M  END
>  <i_m_ct_stereo_status>  (315) 
1

>  <s_m_source_file>  (315) 
/var/tmp/pbs.5076255.sched01/tmp0eyfkrct/966b1hsbd3.sdf

>  <i_m_source_file_index>  (315) 
46

>  <i_lp_mmshare_version>  (315) 
48012

>  <i_f3d_flags>  (315) 
0

>  <s_epik_input>  (315) 
QzEyM1tDQEBIXTRbQ0gyXU9bQ0BIXShbQ0BASF0oW0NIMl0yKUMoPVtDSDJdKVtDSDJdMSlbQ0BIXShbT0hdKVtDQEBIXTNDKFtDSDNdKShbQ0gzXSlbQ0BIXTVbQ0BAXShbQ0gyXTQpKFtDSDNdKVtDQEBIXTZbQ0BASF0oW0NAQEhdKFtPSF0pW0NIMl01KVtDQEhdKFtDSDNdKVtDQEBIXShbQ0gyXTYpW0NIM10=

>  <s_epik_cmdline>  (315) 
J2VwaWtfcHl0aG9uJywgJy1waHQnLCAnMi4wJywgJy1waCcsICc3LjAnLCAnLXRuJywgJzgnLCAnLW1hJywgJzIwMCcsICctaW1hZScsICc8aW5maWxlLm1hZT4nLCAnLW9tYWUnLCAnPG91dGZpbGUubWFlPic=

>  <r_lp_tautomer_probability>  (315) 
1

>  <r_epik_Ionization_Penalty>  (315) 
3.05082e-06

>  <r_epik_Ionization_Penalty_Charging>  (315) 
0

>  <r_epik_Ionization_Penalty_Neutral>  (315) 
3.05082e-06

>  <r_epik_State_Penalty>  (315) 
-0

>  <r_epik_Charging_Adjusted_Penalty>  (315) 
0

>  <i_epik_Tot_Q>  (315) 
0

>  <i_epik_Tot_abs_Q>  (315) 
0

>  <s_lp_Force_Field>  (315) 
OPLS3e

>  <r_lp_Energy>  (315) 
306.397

>  <b_lp_Chiralities_Consistent>  (315) 
1

>  <s_lp_Variant>  (315) 
92:0-1

>  <s_i_glide_gridfile>  (315) 
pfpi4k_grid

>  <i_i_glide_lignum>  (315) 
46

>  <i_i_glide_rotatable_bonds>  (315) 
2

>  <r_i_docking_score>  (315) 
-3.67491

>  <r_i_glide_ligand_efficiency>  (315) 
-0.122497

>  <r_i_glide_ligand_efficiency_sa>  (315) 
-0.380626

>  <r_i_glide_ligand_efficiency_ln>  (315) 
-0.834979

>  <r_i_glide_gscore>  (315) 
-3.67491

>  <r_i_glide_lipo>  (315) 
-0.719175

>  <r_i_glide_hbond>  (315) 
-0.255131

>  <r_i_glide_metal>  (315) 
-0

>  <r_i_glide_rewards>  (315) 
-0.582132

>  <r_i_glide_evdw>  (315) 
-29.2379

>  <r_i_glide_ecoul>  (315) 
-4.37714

>  <r_i_glide_erotb>  (315) 
0

>  <r_i_glide_esite>  (315) 
0

>  <r_i_glide_emodel>  (315) 
-41.2175

>  <r_i_glide_energy>  (315) 
-33.6151

>  <r_i_glide_einternal>  (315) 
0.493013

>  <r_i_glide_intrahb_reward>  (315) 
-0

>  <i_i_glide_confnum>  (315) 
2

>  <i_i_glide_posenum>  (315) 
34

>  <r_i_glide_eff_state_penalty>  (315) 
0

>  <ligand_id>  (315) 
92

>  <original_smiles>  (315) 
C=C1CC23CC1C1OCC2CC2(C)C4CC(C)C(C)C4C(O)CC2C(C)(C)C3C1O

>  <smiles>  (315) 
[H]OC1([H])C([H])([H])C2([H])C(C([H])([H])[H])(C([H])([H])[H])C3([H])C([H])(O[H])C4([H])OC([H])([H])C([H])(C([H])([H])C2(C([H])([H])[H])C2([H])C([H])([H])C([H])(C([H])([H])[H])C([H])(C([H])([H])[H])C12[H])C31C([H])([H])C(=C([H])[H])C4([H])C1([H])[H]

$$$$
92:0:1
     RDKit          3D

 72 77  0  0  1  0  0  0  0  0999 V2000
   -0.8051   -8.2324    4.5228 C   0  0  0  0  0  0  0  0  0  0  0  0
    0.5346   -8.2772    4.4998 C   0  0  0  0  0  0  0  0  0  0  0  0
    1.5068   -7.2013    4.9562 C   0  0  0  0  0  0  0  0  0  0  0  0
    2.9213   -7.4306    4.2306 C   0  0  2  0  0  0  0  0  0  0  0  0
    2.5726   -8.9398    4.8416 C   0  0  0  0  0  0  0  0  0  0  0  0
    1.3951   -9.4069    4.0477 C   0  0  2  0  0  0  0  0  0  0  0  0
    1.9338   -9.4051    2.5669 C   0  0  1  0  0  0  0  0  0  0  0  0
    1.3134   -8.4907    1.6786 O   0  0  0  0  0  0  0  0  0  0  0  0
    1.2923   -7.1121    2.0022 C   0  0  0  0  0  0  0  0  0  0  0  0
    2.5122   -6.6133    2.8309 C   0  0  2  0  0  0  0  0  0  0  0  0
    3.6055   -6.1639    1.7593 C   0  0  0  0  0  0  0  0  0  0  0  0
    5.0887   -5.7601    2.1301 C   0  0  2  0  0  0  0  0  0  0  0  0
    5.0823   -4.7728    3.3301 C   0  0  0  0  0  0  0  0  0  0  0  0
    5.6858   -5.0516    0.8641 C   0  0  1  0  0  0  0  0  0  0  0  0
    4.9455   -3.8585    0.2261 C   0  0  0  0  0  0  0  0  0  0  0  0
    6.0217   -2.8880   -0.3019 C   0  0  1  0  0  0  0  0  0  0  0  0
    5.9378   -1.5398    0.4419 C   0  0  0  0  0  0  0  0  0  0  0  0
    7.3649   -3.6358   -0.1404 C   0  0  1  0  0  0  0  0  0  0  0  0
    8.6066   -2.7373   -0.0518 C   0  0  0  0  0  0  0  0  0  0  0  0
    7.1319   -4.5831    1.0473 C   0  0  2  0  0  0  0  0  0  0  0  0
    8.0047   -5.8412    1.1779 C   0  0  1  0  0  0  0  0  0  0  0  0
    9.3631   -5.5324    1.3884 O   0  0  0  0  0  0  0  0  0  0  0  0
    7.5494   -6.6612    2.3971 C   0  0  0  0  0  0  0  0  0  0  0  0
    6.0325   -7.0385    2.4030 C   0  0  1  0  0  0  0  0  0  0  0  0
    5.6501   -8.0420    3.6101 C   0  0  0  0  0  0  0  0  0  0  0  0
    6.4517   -9.3554    3.4250 C   0  0  0  0  0  0  0  0  0  0  0  0
    6.1255   -7.5256    5.0034 C   0  0  0  0  0  0  0  0  0  0  0  0
    4.0895   -8.3537    3.6641 C   0  0  1  0  0  0  0  0  0  0  0  0
    3.5036   -9.2405    2.4517 C   0  0  1  0  0  0  0  0  0  0  0  0
    4.0100  -10.5668    2.4789 O   0  0  0  0  0  0  0  0  0  0  0  0
   -1.3935   -9.0674    4.1729 H   0  0  0  0  0  0  0  0  0  0  0  0
   -1.3330   -7.3590    4.8772 H   0  0  0  0  0  0  0  0  0  0  0  0
    1.0515   -6.2313    4.7696 H   0  0  0  0  0  0  0  0  0  0  0  0
    1.5706   -7.1695    6.0482 H   0  0  0  0  0  0  0  0  0  0  0  0
    3.2671   -9.7977    4.9103 H   0  0  0  0  0  0  0  0  0  0  0  0
    2.3975   -8.9944    5.9246 H   0  0  0  0  0  0  0  0  0  0  0  0
    1.0079  -10.3705    4.3744 H   0  0  0  0  0  0  0  0  0  0  0  0
    1.6569  -10.3685    2.1410 H   0  0  0  0  0  0  0  0  0  0  0  0
    1.2430   -6.5851    1.0507 H   0  0  0  0  0  0  0  0  0  0  0  0
    0.3441   -6.8556    2.4713 H   0  0  0  0  0  0  0  0  0  0  0  0
    2.2090   -5.6221    3.1724 H   0  0  0  0  0  0  0  0  0  0  0  0
    3.6579   -6.8824    0.9424 H   0  0  0  0  0  0  0  0  0  0  0  0
    3.1423   -5.3026    1.2808 H   0  0  0  0  0  0  0  0  0  0  0  0
    6.0771   -4.6502    3.7584 H   0  0  0  0  0  0  0  0  0  0  0  0
    4.4385   -5.1055    4.1442 H   0  0  0  0  0  0  0  0  0  0  0  0
    4.7321   -3.7803    3.0504 H   0  0  0  0  0  0  0  0  0  0  0  0
    5.6949   -5.8041    0.0741 H   0  0  0  0  0  0  0  0  0  0  0  0
    4.3297   -4.2193   -0.6002 H   0  0  0  0  0  0  0  0  0  0  0  0
    4.2701   -3.3591    0.9190 H   0  0  0  0  0  0  0  0  0  0  0  0
    5.8462   -2.6942   -1.3618 H   0  0  0  0  0  0  0  0  0  0  0  0
    6.1269   -1.6631    1.5086 H   0  0  0  0  0  0  0  0  0  0  0  0
    4.9450   -1.1010    0.3271 H   0  0  0  0  0  0  0  0  0  0  0  0
    6.6520   -0.8142    0.0569 H   0  0  0  0  0  0  0  0  0  0  0  0
    7.5059   -4.2407   -1.0274 H   0  0  0  0  0  0  0  0  0  0  0  0
    8.6411   -2.1690    0.8767 H   0  0  0  0  0  0  0  0  0  0  0  0
    8.6393   -2.0344   -0.8820 H   0  0  0  0  0  0  0  0  0  0  0  0
    9.5158   -3.3283   -0.1151 H   0  0  0  0  0  0  0  0  0  0  0  0
    7.2173   -3.9806    1.9483 H   0  0  0  0  0  0  0  0  0  0  0  0
    7.9399   -6.4486    0.2753 H   0  0  0  0  0  0  0  0  0  0  0  0
    9.8136   -6.3727    1.4705 H   0  0  0  0  0  0  0  0  0  0  0  0
    8.1632   -7.5601    2.4283 H   0  0  0  0  0  0  0  0  0  0  0  0
    7.7982   -6.0954    3.2943 H   0  0  0  0  0  0  0  0  0  0  0  0
    5.9037   -7.6516    1.5110 H   0  0  0  0  0  0  0  0  0  0  0  0
    6.0748  -10.1434    4.0816 H   0  0  0  0  0  0  0  0  0  0  0  0
    7.5080   -9.2399    3.6661 H   0  0  0  0  0  0  0  0  0  0  0  0
    6.4050   -9.7234    2.3986 H   0  0  0  0  0  0  0  0  0  0  0  0
    5.8560   -8.2343    5.7874 H   0  0  0  0  0  0  0  0  0  0  0  0
    5.6966   -6.5688    5.2861 H   0  0  0  0  0  0  0  0  0  0  0  0
    7.2083   -7.4150    5.0503 H   0  0  0  0  0  0  0  0  0  0  0  0
    4.2881   -7.3336    3.6315 H   0  0  0  0  0  0  0  0  0  0  0  0
    3.7883   -8.8621    1.4758 H   0  0  0  0  0  0  0  0  0  0  0  0
    3.8654  -10.9959    1.6310 H   0  0  0  0  0  0  0  0  0  0  0  0
  1  2  2  0
  1 31  1  0
  1 32  1  0
  2  6  1  0
  2  3  1  0
  4  3  1  6
  3 33  1  0
  3 34  1  0
  4 10  1  0
  4 28  1  0
  4  5  1  0
  5  6  1  0
  5 35  1  0
  5 36  1  0
  6  7  1  0
  6 37  1  1
  7 29  1  0
  7  8  1  0
  7 38  1  6
  8  9  1  0
  9 10  1  0
  9 39  1  0
  9 40  1  0
 10 11  1  0
 10 41  1  1
 11 12  1  0
 11 42  1  0
 11 43  1  0
 12 24  1  0
 12 13  1  1
 12 14  1  0
 13 44  1  0
 13 45  1  0
 13 46  1  0
 14 20  1  0
 14 15  1  0
 14 47  1  6
 15 16  1  0
 15 48  1  0
 15 49  1  0
 16 17  1  0
 16 18  1  0
 16 50  1  6
 17 51  1  0
 17 52  1  0
 17 53  1  0
 18 19  1  0
 18 20  1  0
 18 54  1  6
 19 55  1  0
 19 56  1  0
 19 57  1  0
 20 21  1  0
 20 58  1  1
 21 22  1  0
 21 23  1  0
 21 59  1  6
 22 60  1  0
 23 24  1  0
 23 61  1  0
 23 62  1  0
 24 25  1  0
 24 63  1  6
 25 26  1  0
 25 27  1  0
 25 28  1  0
 26 64  1  0
 26 65  1  0
 26 66  1  0
 27 67  1  0
 27 68  1  0
 27 69  1  0
 28 29  1  0
 28 70  1  1
 29 30  1  0
 29 71  1  6
 30 72  1  0
M  END
>  <i_m_ct_stereo_status>  (316) 
1

>  <s_m_source_file>  (316) 
/var/tmp/pbs.5076255.sched01/tmp0eyfkrct/966b1hsbd3.sdf

>  <i_m_source_file_index>  (316) 
46

>  <i_lp_mmshare_version>  (316) 
48012

>  <i_f3d_flags>  (316) 
0

>  <s_epik_input>  (316) 
QzEyM1tDQEBIXTRbQ0gyXU9bQ0BIXShbQ0BASF0oW0NIMl0yKUMoPVtDSDJdKVtDSDJdMSlbQ0BIXShbT0hdKVtDQEBIXTNDKFtDSDNdKShbQ0gzXSlbQ0BIXTVbQ0BAXShbQ0gyXTQpKFtDSDNdKVtDQEBIXTZbQ0BASF0oW0NAQEhdKFtPSF0pW0NIMl01KVtDQEhdKFtDSDNdKVtDQEBIXShbQ0gyXTYpW0NIM10=

>  <s_epik_cmdline>  (316) 
J2VwaWtfcHl0aG9uJywgJy1waHQnLCAnMi4wJywgJy1waCcsICc3LjAnLCAnLXRuJywgJzgnLCAnLW1hJywgJzIwMCcsICctaW1hZScsICc8aW5maWxlLm1hZT4nLCAnLW9tYWUnLCAnPG91dGZpbGUubWFlPic=

>  <r_lp_tautomer_probability>  (316) 
1

>  <r_epik_Ionization_Penalty>  (316) 
3.05082e-06

>  <r_epik_Ionization_Penalty_Charging>  (316) 
0

>  <r_epik_Ionization_Penalty_Neutral>  (316) 
3.05082e-06

>  <r_epik_State_Penalty>  (316) 
-0

>  <r_epik_Charging_Adjusted_Penalty>  (316) 
0

>  <i_epik_Tot_Q>  (316) 
0

>  <i_epik_Tot_abs_Q>  (316) 
0

>  <s_lp_Force_Field>  (316) 
OPLS3e

>  <r_lp_Energy>  (316) 
306.397

>  <b_lp_Chiralities_Consistent>  (316) 
1

>  <s_lp_Variant>  (316) 
92:0-1

>  <s_i_glide_gridfile>  (316) 
pfpi4k_grid

>  <i_i_glide_lignum>  (316) 
46

>  <i_i_glide_rotatable_bonds>  (316) 
2

>  <r_i_docking_score>  (316) 
-3.50931

>  <r_i_glide_ligand_efficiency>  (316) 
-0.116977

>  <r_i_glide_ligand_efficiency_sa>  (316) 
-0.363475

>  <r_i_glide_ligand_efficiency_ln>  (316) 
-0.797354

>  <r_i_glide_gscore>  (316) 
-3.50931

>  <r_i_glide_lipo>  (316) 
-0.67803

>  <r_i_glide_hbond>  (316) 
-0.20653

>  <r_i_glide_metal>  (316) 
-0

>  <r_i_glide_rewards>  (316) 
-0.582132

>  <r_i_glide_evdw>  (316) 
-26.7819

>  <r_i_glide_ecoul>  (316) 
-4.69019

>  <r_i_glide_erotb>  (316) 
0

>  <r_i_glide_esite>  (316) 
0

>  <r_i_glide_emodel>  (316) 
-38.4745

>  <r_i_glide_energy>  (316) 
-31.4721

>  <r_i_glide_einternal>  (316) 
0.847705

>  <r_i_glide_intrahb_reward>  (316) 
-0

>  <i_i_glide_confnum>  (316) 
1

>  <i_i_glide_posenum>  (316) 
1

>  <r_i_glide_eff_state_penalty>  (316) 
0

>  <ligand_id>  (316) 
92

>  <original_smiles>  (316) 
C=C1CC23CC1C1OCC2CC2(C)C4CC(C)C(C)C4C(O)CC2C(C)(C)C3C1O

>  <smiles>  (316) 
[H]OC1([H])C([H])([H])C2([H])C(C([H])([H])[H])(C([H])([H])[H])C3([H])C([H])(O[H])C4([H])OC([H])([H])C([H])(C([H])([H])C2(C([H])([H])[H])C2([H])C([H])([H])C([H])(C([H])([H])[H])C([H])(C([H])([H])[H])C12[H])C31C([H])([H])C(=C([H])[H])C4([H])C1([H])[H]

$$$$
92:0:2
     RDKit          3D

 72 77  0  0  1  0  0  0  0  0999 V2000
   -1.3394   -7.4567    4.0331 C   0  0  0  0  0  0  0  0  0  0  0  0
    0.0006   -7.5117    4.1005 C   0  0  0  0  0  0  0  0  0  0  0  0
    0.9548   -6.4332    4.5859 C   0  0  0  0  0  0  0  0  0  0  0  0
    2.4195   -6.7163    3.9887 C   0  0  2  0  0  0  0  0  0  0  0  0
    1.9912   -8.1894    4.6344 C   0  0  0  0  0  0  0  0  0  0  0  0
    0.8731   -8.6696    3.7619 C   0  0  2  0  0  0  0  0  0  0  0  0
    1.5268   -8.7404    2.3306 C   0  0  1  0  0  0  0  0  0  0  0  0
    1.0081   -7.8548    1.3428 O   0  0  0  0  0  0  0  0  0  0  0  0
    0.9908   -6.4704    1.6232 C   0  0  0  0  0  0  0  0  0  0  0  0
    2.1407   -5.9571    2.5245 C   0  0  2  0  0  0  0  0  0  0  0  0
    3.3272   -5.5800    1.5251 C   0  0  0  0  0  0  0  0  0  0  0  0
    4.7872   -5.1864    1.9931 C   0  0  2  0  0  0  0  0  0  0  0  0
    4.7078   -4.1455    3.1433 C   0  0  0  0  0  0  0  0  0  0  0  0
    5.4927   -4.5499    0.7447 C   0  0  1  0  0  0  0  0  0  0  0  0
    4.8304   -3.3715    0.0030 C   0  0  0  0  0  0  0  0  0  0  0  0
    5.9648   -2.4466   -0.4796 C   0  0  1  0  0  0  0  0  0  0  0  0
    5.8522   -1.0686    0.2039 C   0  0  0  0  0  0  0  0  0  0  0  0
    7.2734   -3.2245   -0.1988 C   0  0  1  0  0  0  0  0  0  0  0  0
    8.5286   -2.3553   -0.0213 C   0  0  0  0  0  0  0  0  0  0  0  0
    6.9326   -4.1021    1.0145 C   0  0  2  0  0  0  0  0  0  0  0  0
    7.7703   -5.3640    1.2765 C   0  0  1  0  0  0  0  0  0  0  0  0
    9.1230   -5.0489    1.5449 O   0  0  0  0  0  0  0  0  0  0  0  0
    7.2023   -6.1205    2.4921 C   0  0  0  0  0  0  0  0  0  0  0  0
    5.6781   -6.4681    2.3934 C   0  0  1  0  0  0  0  0  0  0  0  0
    5.1791   -7.4072    3.6124 C   0  0  0  0  0  0  0  0  0  0  0  0
    5.9619   -8.7423    3.5503 C   0  0  0  0  0  0  0  0  0  0  0  0
    5.5532   -6.8386    5.0159 C   0  0  0  0  0  0  0  0  0  0  0  0
    3.6122   -7.6818    3.5588 C   0  0  1  0  0  0  0  0  0  0  0  0
    3.1020   -8.6080    2.3482 C   0  0  1  0  0  0  0  0  0  0  0  0
    3.5673   -9.9353    2.4791 O   0  0  0  0  0  0  0  0  0  0  0  0
   -1.9100   -8.2991    3.6698 H   0  0  0  0  0  0  0  0  0  0  0  0
   -1.8722   -6.5644    4.3280 H   0  0  0  0  0  0  0  0  0  0  0  0
    0.5388   -5.4621    4.3180 H   0  0  0  0  0  0  0  0  0  0  0  0
    0.9330   -6.3501    5.6781 H   0  0  0  0  0  0  0  0  0  0  0  0
    2.6598   -9.0556    4.8056 H   0  0  0  0  0  0  0  0  0  0  0  0
    1.7288   -8.1977    5.7035 H   0  0  0  0  0  0  0  0  0  0  0  0
    0.4390   -9.6099    4.0969 H   0  0  0  0  0  0  0  0  0  0  0  0
    1.2675   -9.7203    1.9254 H   0  0  0  0  0  0  0  0  0  0  0  0
    1.0288   -5.9775    0.6514 H   0  0  0  0  0  0  0  0  0  0  0  0
    0.0146   -6.1871    2.0050 H   0  0  0  0  0  0  0  0  0  0  0  0
    1.8425   -4.9420    2.8020 H   0  0  0  0  0  0  0  0  0  0  0  0
    3.4273   -6.3333    0.7451 H   0  0  0  0  0  0  0  0  0  0  0  0
    2.9223   -4.7291    0.9786 H   0  0  0  0  0  0  0  0  0  0  0  0
    5.6689   -4.0170    3.6412 H   0  0  0  0  0  0  0  0  0  0  0  0
    3.9944   -4.4283    3.9183 H   0  0  0  0  0  0  0  0  0  0  0  0
    4.3986   -3.1612    2.7922 H   0  0  0  0  0  0  0  0  0  0  0  0
    5.5456   -5.3362   -0.0085 H   0  0  0  0  0  0  0  0  0  0  0  0
    4.2717   -3.7566   -0.8518 H   0  0  0  0  0  0  0  0  0  0  0  0
    4.1153   -2.8249    0.6182 H   0  0  0  0  0  0  0  0  0  0  0  0
    5.8751   -2.2944   -1.5568 H   0  0  0  0  0  0  0  0  0  0  0  0
    5.9507   -1.1521    1.2863 H   0  0  0  0  0  0  0  0  0  0  0  0
    4.8840   -0.6145   -0.0098 H   0  0  0  0  0  0  0  0  0  0  0  0
    6.6098   -0.3740   -0.1471 H   0  0  0  0  0  0  0  0  0  0  0  0
    7.4510   -3.8623   -1.0624 H   0  0  0  0  0  0  0  0  0  0  0  0
    8.4840   -1.7334    0.8719 H   0  0  0  0  0  0  0  0  0  0  0  0
    8.6599   -1.6992   -0.8739 H   0  0  0  0  0  0  0  0  0  0  0  0
    9.4317   -2.9602    0.0279 H   0  0  0  0  0  0  0  0  0  0  0  0
    6.9576   -3.4533    1.8855 H   0  0  0  0  0  0  0  0  0  0  0  0
    7.7472   -6.0136    0.4025 H   0  0  0  0  0  0  0  0  0  0  0  0
    9.1797   -4.5689    2.3579 H   0  0  0  0  0  0  0  0  0  0  0  0
    7.7894   -7.0295    2.6116 H   0  0  0  0  0  0  0  0  0  0  0  0
    7.3831   -5.5220    3.3833 H   0  0  0  0  0  0  0  0  0  0  0  0
    5.6015   -7.1210    1.5240 H   0  0  0  0  0  0  0  0  0  0  0  0
    5.5224   -9.4943    4.2092 H   0  0  0  0  0  0  0  0  0  0  0  0
    6.9984   -8.6320    3.8667 H   0  0  0  0  0  0  0  0  0  0  0  0
    5.9890   -9.1535    2.5390 H   0  0  0  0  0  0  0  0  0  0  0  0
    5.2089   -7.5060    5.8077 H   0  0  0  0  0  0  0  0  0  0  0  0
    5.1240   -5.8624    5.2193 H   0  0  0  0  0  0  0  0  0  0  0  0
    6.6314   -6.7467    5.1403 H   0  0  0  0  0  0  0  0  0  0  0  0
    3.8366   -6.6695    3.4997 H   0  0  0  0  0  0  0  0  0  0  0  0
    3.4720   -8.2796    1.3819 H   0  0  0  0  0  0  0  0  0  0  0  0
    3.1375  -10.3408    3.2181 H   0  0  0  0  0  0  0  0  0  0  0  0
  1  2  2  0
  1 31  1  0
  1 32  1  0
  2  6  1  0
  2  3  1  0
  4  3  1  6
  3 33  1  0
  3 34  1  0
  4 10  1  0
  4 28  1  0
  4  5  1  0
  5  6  1  0
  5 35  1  0
  5 36  1  0
  6  7  1  0
  6 37  1  1
  7 29  1  0
  7  8  1  0
  7 38  1  6
  8  9  1  0
  9 10  1  0
  9 39  1  0
  9 40  1  0
 10 11  1  0
 10 41  1  1
 11 12  1  0
 11 42  1  0
 11 43  1  0
 12 24  1  0
 12 13  1  1
 12 14  1  0
 13 44  1  0
 13 45  1  0
 13 46  1  0
 14 20  1  0
 14 15  1  0
 14 47  1  6
 15 16  1  0
 15 48  1  0
 15 49  1  0
 16 17  1  0
 16 18  1  0
 16 50  1  6
 17 51  1  0
 17 52  1  0
 17 53  1  0
 18 19  1  0
 18 20  1  0
 18 54  1  6
 19 55  1  0
 19 56  1  0
 19 57  1  0
 20 21  1  0
 20 58  1  1
 21 22  1  0
 21 23  1  0
 21 59  1  6
 22 60  1  0
 23 24  1  0
 23 61  1  0
 23 62  1  0
 24 25  1  0
 24 63  1  6
 25 26  1  0
 25 27  1  0
 25 28  1  0
 26 64  1  0
 26 65  1  0
 26 66  1  0
 27 67  1  0
 27 68  1  0
 27 69  1  0
 28 29  1  0
 28 70  1  1
 29 30  1  0
 29 71  1  6
 30 72  1  0
M  END
>  <i_m_ct_stereo_status>  (317) 
1

>  <s_m_source_file>  (317) 
/var/tmp/pbs.5076255.sched01/tmp0eyfkrct/966b1hsbd3.sdf

>  <i_m_source_file_index>  (317) 
46

>  <i_lp_mmshare_version>  (317) 
48012

>  <i_f3d_flags>  (317) 
0

>  <s_epik_input>  (317) 
QzEyM1tDQEBIXTRbQ0gyXU9bQ0BIXShbQ0BASF0oW0NIMl0yKUMoPVtDSDJdKVtDSDJdMSlbQ0BIXShbT0hdKVtDQEBIXTNDKFtDSDNdKShbQ0gzXSlbQ0BIXTVbQ0BAXShbQ0gyXTQpKFtDSDNdKVtDQEBIXTZbQ0BASF0oW0NAQEhdKFtPSF0pW0NIMl01KVtDQEhdKFtDSDNdKVtDQEBIXShbQ0gyXTYpW0NIM10=

>  <s_epik_cmdline>  (317) 
J2VwaWtfcHl0aG9uJywgJy1waHQnLCAnMi4wJywgJy1waCcsICc3LjAnLCAnLXRuJywgJzgnLCAnLW1hJywgJzIwMCcsICctaW1hZScsICc8aW5maWxlLm1hZT4nLCAnLW9tYWUnLCAnPG91dGZpbGUubWFlPic=

>  <r_lp_tautomer_probability>  (317) 
1

>  <r_epik_Ionization_Penalty>  (317) 
3.05082e-06

>  <r_epik_Ionization_Penalty_Charging>  (317) 
0

>  <r_epik_Ionization_Penalty_Neutral>  (317) 
3.05082e-06

>  <r_epik_State_Penalty>  (317) 
-0

>  <r_epik_Charging_Adjusted_Penalty>  (317) 
0

>  <i_epik_Tot_Q>  (317) 
0

>  <i_epik_Tot_abs_Q>  (317) 
0

>  <s_lp_Force_Field>  (317) 
OPLS3e

>  <r_lp_Energy>  (317) 
306.397

>  <b_lp_Chiralities_Consistent>  (317) 
1

>  <s_lp_Variant>  (317) 
92:0-1

>  <s_i_glide_gridfile>  (317) 
pfpi4k_grid

>  <i_i_glide_lignum>  (317) 
46

>  <i_i_glide_rotatable_bonds>  (317) 
2

>  <r_i_docking_score>  (317) 
-2.96653

>  <r_i_glide_ligand_efficiency>  (317) 
-0.0988842

>  <r_i_glide_ligand_efficiency_sa>  (317) 
-0.307256

>  <r_i_glide_ligand_efficiency_ln>  (317) 
-0.674027

>  <r_i_glide_gscore>  (317) 
-2.96653

>  <r_i_glide_lipo>  (317) 
-0.596935

>  <r_i_glide_hbond>  (317) 
-0.0935096

>  <r_i_glide_metal>  (317) 
-0

>  <r_i_glide_rewards>  (317) 
-0.582132

>  <r_i_glide_evdw>  (317) 
-31.6957

>  <r_i_glide_ecoul>  (317) 
-0.727766

>  <r_i_glide_erotb>  (317) 
0

>  <r_i_glide_esite>  (317) 
0

>  <r_i_glide_emodel>  (317) 
-38.6127

>  <r_i_glide_energy>  (317) 
-32.4235

>  <r_i_glide_einternal>  (317) 
0.183045

>  <r_i_glide_intrahb_reward>  (317) 
-0

>  <i_i_glide_confnum>  (317) 
2

>  <i_i_glide_posenum>  (317) 
8

>  <r_i_glide_eff_state_penalty>  (317) 
0

>  <ligand_id>  (317) 
92

>  <original_smiles>  (317) 
C=C1CC23CC1C1OCC2CC2(C)C4CC(C)C(C)C4C(O)CC2C(C)(C)C3C1O

>  <smiles>  (317) 
[H]OC1([H])C([H])([H])C2([H])C(C([H])([H])[H])(C([H])([H])[H])C3([H])C([H])(O[H])C4([H])OC([H])([H])C([H])(C([H])([H])C2(C([H])([H])[H])C2([H])C([H])([H])C([H])(C([H])([H])[H])C([H])(C([H])([H])[H])C12[H])C31C([H])([H])C(=C([H])[H])C4([H])C1([H])[H]

$$$$
94:0:0
     RDKit          3D

 24 26  0  0  1  0  0  0  0  0999 V2000
    3.4437   -0.9897    0.8121 C   0  0  0  0  0  0  0  0  0  0  0  0
    4.7396   -1.7972    0.6175 C   0  0  2  0  0  0  0  0  0  0  0  0
    5.5432   -1.3232   -0.6070 C   0  0  0  0  0  0  0  0  0  0  0  0
    4.8126   -1.5634   -1.8351 N   0  0  0  0  0  0  0  0  0  0  0  0
    4.2522   -0.5799   -2.5673 N   0  0  0  0  0  0  0  0  0  0  0  0
    3.6217   -1.2590   -3.5244 C   0  0  0  0  0  0  0  0  0  0  0  0
    3.8025   -2.6143   -3.5089 N   0  0  0  0  0  0  0  0  0  0  0  0
    4.5216   -2.7301   -2.3966 C   0  0  0  0  0  0  0  0  0  0  0  0
    4.9939   -3.9876   -1.7543 C   0  0  0  0  0  0  0  0  0  0  0  0
    4.5077   -4.2000   -0.3462 C   0  0  0  0  0  0  0  0  0  0  0  0
    4.1083   -5.4043    0.0882 N   0  0  0  0  0  0  0  0  0  0  0  0
    3.7375   -5.2301    1.4025 N   0  0  0  0  0  0  0  0  0  0  0  0
    3.9700   -3.9429    1.6461 C   0  0  0  0  0  0  0  0  0  0  0  0
    4.4449   -3.2333    0.6102 N   0  0  0  0  0  0  0  0  0  0  0  0
    3.6393    0.0812    0.8261 H   0  0  0  0  0  0  0  0  0  0  0  0
    2.9429   -1.2454    1.7452 H   0  0  0  0  0  0  0  0  0  0  0  0
    2.7354   -1.1837    0.0084 H   0  0  0  0  0  0  0  0  0  0  0  0
    5.3627   -1.6179    1.4947 H   0  0  0  0  0  0  0  0  0  0  0  0
    5.7730   -0.2628   -0.5233 H   0  0  0  0  0  0  0  0  0  0  0  0
    6.4965   -1.8481   -0.6562 H   0  0  0  0  0  0  0  0  0  0  0  0
    3.0279   -0.7491   -4.2675 H   0  0  0  0  0  0  0  0  0  0  0  0
    4.6788   -4.8208   -2.3781 H   0  0  0  0  0  0  0  0  0  0  0  0
    6.0825   -3.9960   -1.7516 H   0  0  0  0  0  0  0  0  0  0  0  0
    3.7777   -3.4886    2.6071 H   0  0  0  0  0  0  0  0  0  0  0  0
  1  2  1  0
  1 15  1  0
  1 16  1  0
  1 17  1  0
  2 14  1  0
  2  3  1  0
  2 18  1  1
  3  4  1  0
  3 19  1  0
  3 20  1  0
  4  8  1  0
  4  5  1  0
  5  6  2  0
  6  7  1  0
  6 21  1  0
  7  8  2  0
  8  9  1  0
  9 10  1  0
  9 22  1  0
  9 23  1  0
 10 14  1  0
 10 11  2  0
 11 12  1  0
 12 13  2  0
 13 14  1  0
 13 24  1  0
M  END
>  <i_m_ct_stereo_status>  (318) 
1

>  <s_m_source_file>  (318) 
/var/tmp/pbs.5076255.sched01/tmp0eyfkrct/966b1hsbd3.sdf

>  <i_m_source_file_index>  (318) 
48

>  <i_lp_mmshare_version>  (318) 
48012

>  <i_f3d_flags>  (318) 
0

>  <s_epik_input>  (318) 
bjFuW2NIXW4oW0NASF0oW0NIM10pW0NIMl0yKWMxW0NIMl1jKG4yMyluW2NIXW4z

>  <s_epik_cmdline>  (318) 
J2VwaWtfcHl0aG9uJywgJy1waHQnLCAnMi4wJywgJy1waCcsICc3LjAnLCAnLXRuJywgJzgnLCAnLW1hJywgJzIwMCcsICctaW1hZScsICc8aW5maWxlLm1hZT4nLCAnLW9tYWUnLCAnPG91dGZpbGUubWFlPic=

>  <r_lp_tautomer_probability>  (318) 
1

>  <r_epik_Ionization_Penalty>  (318) 
5.45891e-05

>  <r_epik_Ionization_Penalty_Charging>  (318) 
0

>  <r_epik_Ionization_Penalty_Neutral>  (318) 
5.45891e-05

>  <r_epik_State_Penalty>  (318) 
-0

>  <r_epik_Charging_Adjusted_Penalty>  (318) 
0

>  <i_epik_Tot_Q>  (318) 
0

>  <i_epik_Tot_abs_Q>  (318) 
0

>  <s_lp_Force_Field>  (318) 
OPLS3e

>  <r_lp_Energy>  (318) 
7.05191

>  <b_lp_Chiralities_Consistent>  (318) 
1

>  <s_lp_Variant>  (318) 
94:0-1

>  <s_i_glide_gridfile>  (318) 
pfpi4k_grid

>  <i_i_glide_lignum>  (318) 
48

>  <i_i_glide_rotatable_bonds>  (318) 
0

>  <r_i_docking_score>  (318) 
-3.7394

>  <r_i_glide_ligand_efficiency>  (318) 
-0.2671

>  <r_i_glide_ligand_efficiency_sa>  (318) 
-0.643749

>  <r_i_glide_ligand_efficiency_ln>  (318) 
-1.02757

>  <r_i_glide_gscore>  (318) 
-3.7394

>  <r_i_glide_lipo>  (318) 
-0.0139574

>  <r_i_glide_hbond>  (318) 
0

>  <r_i_glide_metal>  (318) 
-0

>  <r_i_glide_rewards>  (318) 
-2.50763

>  <r_i_glide_evdw>  (318) 
-20.961

>  <r_i_glide_ecoul>  (318) 
-0.808285

>  <r_i_glide_erotb>  (318) 
0

>  <r_i_glide_esite>  (318) 
-0.0485217

>  <r_i_glide_emodel>  (318) 
-26.5807

>  <r_i_glide_energy>  (318) 
-21.7693

>  <r_i_glide_einternal>  (318) 
0

>  <r_i_glide_intrahb_reward>  (318) 
-0

>  <i_i_glide_confnum>  (318) 
2

>  <i_i_glide_posenum>  (318) 
20

>  <r_i_glide_eff_state_penalty>  (318) 
0

>  <ligand_id>  (318) 
94

>  <original_smiles>  (318) 
CC1Cn2ncnc2Cc2nncn21

>  <smiles>  (318) 
[H]c1nc2n(n1)C([H])([H])C([H])(C([H])([H])[H])n1c([H])nnc1C2([H])[H]

$$$$
94:0:1
     RDKit          3D

 24 26  0  0  1  0  0  0  0  0999 V2000
    5.1366   -0.5300    1.1463 C   0  0  0  0  0  0  0  0  0  0  0  0
    5.5046   -1.9922    0.8328 C   0  0  2  0  0  0  0  0  0  0  0  0
    6.0272   -2.1675   -0.6036 C   0  0  0  0  0  0  0  0  0  0  0  0
    4.9951   -1.8494   -1.5676 N   0  0  0  0  0  0  0  0  0  0  0  0
    4.9990   -0.7226   -2.3114 N   0  0  0  0  0  0  0  0  0  0  0  0
    3.8499   -0.8173   -2.9783 C   0  0  0  0  0  0  0  0  0  0  0  0
    3.1274   -1.9557   -2.7607 N   0  0  0  0  0  0  0  0  0  0  0  0
    3.8840   -2.5250   -1.8260 C   0  0  0  0  0  0  0  0  0  0  0  0
    3.5943   -3.7802   -1.0791 C   0  0  0  0  0  0  0  0  0  0  0  0
    3.5339   -3.6351    0.4141 C   0  0  0  0  0  0  0  0  0  0  0  0
    2.6160   -4.2853    1.1430 N   0  0  0  0  0  0  0  0  0  0  0  0
    2.8418   -3.9143    2.4485 N   0  0  0  0  0  0  0  0  0  0  0  0
    3.8904   -3.0983    2.3859 C   0  0  0  0  0  0  0  0  0  0  0  0
    4.3809   -2.8741    1.1581 N   0  0  0  0  0  0  0  0  0  0  0  0
    5.9652    0.1400    0.9192 H   0  0  0  0  0  0  0  0  0  0  0  0
    4.8921   -0.3978    2.2012 H   0  0  0  0  0  0  0  0  0  0  0  0
    4.2751   -0.1914    0.5682 H   0  0  0  0  0  0  0  0  0  0  0  0
    6.3173   -2.2739    1.5034 H   0  0  0  0  0  0  0  0  0  0  0  0
    6.8930   -1.5319   -0.7665 H   0  0  0  0  0  0  0  0  0  0  0  0
    6.3633   -3.1929   -0.7694 H   0  0  0  0  0  0  0  0  0  0  0  0
    3.5335   -0.0372   -3.6558 H   0  0  0  0  0  0  0  0  0  0  0  0
    2.6465   -4.1803   -1.4358 H   0  0  0  0  0  0  0  0  0  0  0  0
    4.3584   -4.5208   -1.3209 H   0  0  0  0  0  0  0  0  0  0  0  0
    4.3164   -2.6390    3.2652 H   0  0  0  0  0  0  0  0  0  0  0  0
  1  2  1  0
  1 15  1  0
  1 16  1  0
  1 17  1  0
  2 14  1  0
  2  3  1  0
  2 18  1  1
  3  4  1  0
  3 19  1  0
  3 20  1  0
  4  8  1  0
  4  5  1  0
  5  6  2  0
  6  7  1  0
  6 21  1  0
  7  8  2  0
  8  9  1  0
  9 10  1  0
  9 22  1  0
  9 23  1  0
 10 14  1  0
 10 11  2  0
 11 12  1  0
 12 13  2  0
 13 14  1  0
 13 24  1  0
M  END
>  <i_m_ct_stereo_status>  (319) 
1

>  <s_m_source_file>  (319) 
/var/tmp/pbs.5076255.sched01/tmp0eyfkrct/966b1hsbd3.sdf

>  <i_m_source_file_index>  (319) 
48

>  <i_lp_mmshare_version>  (319) 
48012

>  <i_f3d_flags>  (319) 
0

>  <s_epik_input>  (319) 
bjFuW2NIXW4oW0NASF0oW0NIM10pW0NIMl0yKWMxW0NIMl1jKG4yMyluW2NIXW4z

>  <s_epik_cmdline>  (319) 
J2VwaWtfcHl0aG9uJywgJy1waHQnLCAnMi4wJywgJy1waCcsICc3LjAnLCAnLXRuJywgJzgnLCAnLW1hJywgJzIwMCcsICctaW1hZScsICc8aW5maWxlLm1hZT4nLCAnLW9tYWUnLCAnPG91dGZpbGUubWFlPic=

>  <r_lp_tautomer_probability>  (319) 
1

>  <r_epik_Ionization_Penalty>  (319) 
5.45891e-05

>  <r_epik_Ionization_Penalty_Charging>  (319) 
0

>  <r_epik_Ionization_Penalty_Neutral>  (319) 
5.45891e-05

>  <r_epik_State_Penalty>  (319) 
-0

>  <r_epik_Charging_Adjusted_Penalty>  (319) 
0

>  <i_epik_Tot_Q>  (319) 
0

>  <i_epik_Tot_abs_Q>  (319) 
0

>  <s_lp_Force_Field>  (319) 
OPLS3e

>  <r_lp_Energy>  (319) 
7.05191

>  <b_lp_Chiralities_Consistent>  (319) 
1

>  <s_lp_Variant>  (319) 
94:0-1

>  <s_i_glide_gridfile>  (319) 
pfpi4k_grid

>  <i_i_glide_lignum>  (319) 
48

>  <i_i_glide_rotatable_bonds>  (319) 
0

>  <r_i_docking_score>  (319) 
-3.51177

>  <r_i_glide_ligand_efficiency>  (319) 
-0.250841

>  <r_i_glide_ligand_efficiency_sa>  (319) 
-0.604562

>  <r_i_glide_ligand_efficiency_ln>  (319) 
-0.965023

>  <r_i_glide_gscore>  (319) 
-3.51177

>  <r_i_glide_lipo>  (319) 
-0.238836

>  <r_i_glide_hbond>  (319) 
0

>  <r_i_glide_metal>  (319) 
-0

>  <r_i_glide_rewards>  (319) 
-2.24109

>  <r_i_glide_evdw>  (319) 
-18.4799

>  <r_i_glide_ecoul>  (319) 
-0.162668

>  <r_i_glide_erotb>  (319) 
0

>  <r_i_glide_esite>  (319) 
-0.0834459

>  <r_i_glide_emodel>  (319) 
-23.1569

>  <r_i_glide_energy>  (319) 
-18.6426

>  <r_i_glide_einternal>  (319) 
0

>  <r_i_glide_intrahb_reward>  (319) 
-0

>  <i_i_glide_confnum>  (319) 
1

>  <i_i_glide_posenum>  (319) 
13

>  <r_i_glide_eff_state_penalty>  (319) 
0

>  <ligand_id>  (319) 
94

>  <original_smiles>  (319) 
CC1Cn2ncnc2Cc2nncn21

>  <smiles>  (319) 
[H]c1nc2n(n1)C([H])([H])C([H])(C([H])([H])[H])n1c([H])nnc1C2([H])[H]

$$$$
94:0:2
     RDKit          3D

 24 26  0  0  1  0  0  0  0  0999 V2000
    3.5462   -0.2581    0.9651 C   0  0  0  0  0  0  0  0  0  0  0  0
    4.6668   -1.3074    1.0625 C   0  0  2  0  0  0  0  0  0  0  0  0
    5.6289   -1.2471   -0.1402 C   0  0  0  0  0  0  0  0  0  0  0  0
    4.9418   -1.5891   -1.3685 N   0  0  0  0  0  0  0  0  0  0  0  0
    4.6210   -0.6784   -2.3159 N   0  0  0  0  0  0  0  0  0  0  0  0
    3.9377   -1.4155   -3.1911 C   0  0  0  0  0  0  0  0  0  0  0  0
    3.8405   -2.7488   -2.9038 N   0  0  0  0  0  0  0  0  0  0  0  0
    4.4588   -2.7724   -1.7276 C   0  0  0  0  0  0  0  0  0  0  0  0
    4.6228   -3.9471   -0.8174 C   0  0  0  0  0  0  0  0  0  0  0  0
    4.0139   -3.7715    0.5474 C   0  0  0  0  0  0  0  0  0  0  0  0
    3.3423   -4.7629    1.1511 N   0  0  0  0  0  0  0  0  0  0  0  0
    2.9435   -4.2621    2.3711 N   0  0  0  0  0  0  0  0  0  0  0  0
    3.4190   -3.0191    2.3929 C   0  0  0  0  0  0  0  0  0  0  0  0
    4.0920   -2.6358    1.2958 N   0  0  0  0  0  0  0  0  0  0  0  0
    3.9529    0.7407    0.8068 H   0  0  0  0  0  0  0  0  0  0  0  0
    2.9471   -0.2199    1.8747 H   0  0  0  0  0  0  0  0  0  0  0  0
    2.8662   -0.4737    0.1408 H   0  0  0  0  0  0  0  0  0  0  0  0
    5.2550   -1.0686    1.9495 H   0  0  0  0  0  0  0  0  0  0  0  0
    6.0622   -0.2545   -0.2317 H   0  0  0  0  0  0  0  0  0  0  0  0
    6.4599   -1.9372    0.0050 H   0  0  0  0  0  0  0  0  0  0  0  0
    3.5101   -0.9748   -4.0785 H   0  0  0  0  0  0  0  0  0  0  0  0
    4.1995   -4.8257   -1.2909 H   0  0  0  0  0  0  0  0  0  0  0  0
    5.6844   -4.1681   -0.7027 H   0  0  0  0  0  0  0  0  0  0  0  0
    3.2632   -2.3505    3.2279 H   0  0  0  0  0  0  0  0  0  0  0  0
  1  2  1  0
  1 15  1  0
  1 16  1  0
  1 17  1  0
  2 14  1  0
  2  3  1  0
  2 18  1  1
  3  4  1  0
  3 19  1  0
  3 20  1  0
  4  8  1  0
  4  5  1  0
  5  6  2  0
  6  7  1  0
  6 21  1  0
  7  8  2  0
  8  9  1  0
  9 10  1  0
  9 22  1  0
  9 23  1  0
 10 14  1  0
 10 11  2  0
 11 12  1  0
 12 13  2  0
 13 14  1  0
 13 24  1  0
M  END
>  <i_m_ct_stereo_status>  (320) 
1

>  <s_m_source_file>  (320) 
/var/tmp/pbs.5076255.sched01/tmp0eyfkrct/966b1hsbd3.sdf

>  <i_m_source_file_index>  (320) 
48

>  <i_lp_mmshare_version>  (320) 
48012

>  <i_f3d_flags>  (320) 
0

>  <s_epik_input>  (320) 
bjFuW2NIXW4oW0NASF0oW0NIM10pW0NIMl0yKWMxW0NIMl1jKG4yMyluW2NIXW4z

>  <s_epik_cmdline>  (320) 
J2VwaWtfcHl0aG9uJywgJy1waHQnLCAnMi4wJywgJy1waCcsICc3LjAnLCAnLXRuJywgJzgnLCAnLW1hJywgJzIwMCcsICctaW1hZScsICc8aW5maWxlLm1hZT4nLCAnLW9tYWUnLCAnPG91dGZpbGUubWFlPic=

>  <r_lp_tautomer_probability>  (320) 
1

>  <r_epik_Ionization_Penalty>  (320) 
5.45891e-05

>  <r_epik_Ionization_Penalty_Charging>  (320) 
0

>  <r_epik_Ionization_Penalty_Neutral>  (320) 
5.45891e-05

>  <r_epik_State_Penalty>  (320) 
-0

>  <r_epik_Charging_Adjusted_Penalty>  (320) 
0

>  <i_epik_Tot_Q>  (320) 
0

>  <i_epik_Tot_abs_Q>  (320) 
0

>  <s_lp_Force_Field>  (320) 
OPLS3e

>  <r_lp_Energy>  (320) 
7.05191

>  <b_lp_Chiralities_Consistent>  (320) 
1

>  <s_lp_Variant>  (320) 
94:0-1

>  <s_i_glide_gridfile>  (320) 
pfpi4k_grid

>  <i_i_glide_lignum>  (320) 
48

>  <i_i_glide_rotatable_bonds>  (320) 
0

>  <r_i_docking_score>  (320) 
-3.34087

>  <r_i_glide_ligand_efficiency>  (320) 
-0.238634

>  <r_i_glide_ligand_efficiency_sa>  (320) 
-0.575141

>  <r_i_glide_ligand_efficiency_ln>  (320) 
-0.91806

>  <r_i_glide_gscore>  (320) 
-3.34087

>  <r_i_glide_lipo>  (320) 
-0.0321249

>  <r_i_glide_hbond>  (320) 
0

>  <r_i_glide_metal>  (320) 
-0

>  <r_i_glide_rewards>  (320) 
-2.23545

>  <r_i_glide_evdw>  (320) 
-20.3345

>  <r_i_glide_ecoul>  (320) 
-0.0191619

>  <r_i_glide_erotb>  (320) 
0

>  <r_i_glide_esite>  (320) 
-0.0536951

>  <r_i_glide_emodel>  (320) 
-24.6458

>  <r_i_glide_energy>  (320) 
-20.3537

>  <r_i_glide_einternal>  (320) 
0

>  <r_i_glide_intrahb_reward>  (320) 
-0

>  <i_i_glide_confnum>  (320) 
2

>  <i_i_glide_posenum>  (320) 
36

>  <r_i_glide_eff_state_penalty>  (320) 
0

>  <ligand_id>  (320) 
94

>  <original_smiles>  (320) 
CC1Cn2ncnc2Cc2nncn21

>  <smiles>  (320) 
[H]c1nc2n(n1)C([H])([H])C([H])(C([H])([H])[H])n1c([H])nnc1C2([H])[H]

$$$$
95:0:0
     RDKit          3D

 81 86  0  0  1  0  0  0  0  0999 V2000
    3.7868   -1.3987    1.5119 C   0  0  0  0  0  0  0  0  0  0  0  0
    3.7298   -2.6132    2.2500 O   0  0  0  0  0  0  0  0  0  0  0  0
    4.0090   -3.7886    1.4918 C   0  0  2  0  0  0  0  0  0  0  0  0
    2.8156   -4.1425    0.5926 C   0  0  0  0  0  0  0  0  0  0  0  0
    2.2582   -5.4089    1.2132 C   0  0  0  0  0  0  0  0  0  0  0  0
    1.5768   -6.1933    0.5549 O   0  0  0  0  0  0  0  0  0  0  0  0
    2.7193   -5.5791    2.6784 C   0  0  1  0  0  0  0  0  0  0  0  0
    1.9045   -4.6612    3.6300 C   0  0  0  0  0  0  0  0  0  0  0  0
    2.7703   -7.0368    3.2323 C   0  0  0  0  0  0  0  0  0  0  0  0
    1.7254   -7.9310    3.2775 C   0  0  0  0  0  0  0  0  0  0  0  0
    0.3058   -7.6621    2.9001 C   0  0  0  0  0  0  0  0  0  0  0  0
   -0.2167   -6.5976    2.5822 O   0  0  0  0  0  0  0  0  0  0  0  0
   -0.4738   -8.8748    3.0525 C   0  0  0  0  0  0  0  0  0  0  0  0
   -1.9543   -8.8839    2.7330 C   0  0  0  0  0  0  0  0  0  0  0  0
    0.3145   -9.8484    3.4940 C   0  0  0  0  0  0  0  0  0  0  0  0
    1.7453   -9.4160    3.7059 C   0  0  2  0  0  0  0  0  0  0  0  0
    2.2736   -9.8416    5.1176 C   0  0  1  0  0  0  0  0  0  0  0  0
    3.0442  -11.1330    4.9070 C   0  0  0  0  0  0  0  0  0  0  0  0
    4.2739  -11.0933    4.3690 C   0  0  0  0  0  0  0  0  0  0  0  0
    5.0986  -12.3322    4.0824 C   0  0  0  0  0  0  0  0  0  0  0  0
    4.8636   -9.7458    3.9509 C   0  0  0  0  0  0  0  0  0  0  0  0
    4.4008   -8.5072    4.8127 C   0  0  2  0  0  0  0  0  0  0  0  0
    5.5484   -8.2698    5.7965 C   0  0  0  0  0  0  0  0  0  0  0  0
    5.3357   -8.7889    7.0109 C   0  0  0  0  0  0  0  0  0  0  0  0
    6.2479   -8.8433    8.2237 C   0  0  0  0  0  0  0  0  0  0  0  0
    3.9884   -9.3408    7.0304 C   0  0  0  0  0  0  0  0  0  0  0  0
    3.5086  -10.0683    7.8957 O   0  0  0  0  0  0  0  0  0  0  0  0
    3.2106   -8.8068    5.8043 C   0  0  2  0  0  0  0  0  0  0  0  0
    2.4511   -7.5458    6.3699 C   0  0  0  0  0  0  0  0  0  0  0  0
    1.4367   -7.8170    7.4828 C   0  0  0  0  0  0  0  0  0  0  0  0
    1.4348   -7.3455    8.7493 C   0  0  0  0  0  0  0  0  0  0  0  0
    2.4944   -6.4414    9.3615 C   0  0  0  0  0  0  0  0  0  0  0  0
    0.3109   -7.6915    9.7090 C   0  0  0  0  0  0  0  0  0  0  0  0
    4.1505   -7.2661    3.9052 C   0  0  1  0  0  0  0  0  0  0  0  0
    5.2162   -7.1584    2.9697 O   0  0  0  0  0  0  0  0  0  0  0  0
    5.2502   -6.0148    2.1211 C   0  0  0  0  0  0  0  0  0  0  0  0
    6.6562   -5.4409    2.3605 C   0  0  0  0  0  0  0  0  0  0  0  0
    5.1600   -6.5988    0.6970 C   0  0  0  0  0  0  0  0  0  0  0  0
    4.1467   -4.9634    2.5014 C   0  0  1  0  0  0  0  0  0  0  0  0
    3.5649   -0.5607    2.1728 H   0  0  0  0  0  0  0  0  0  0  0  0
    3.0572   -1.3788    0.7030 H   0  0  0  0  0  0  0  0  0  0  0  0
    4.7813   -1.2391    1.0947 H   0  0  0  0  0  0  0  0  0  0  0  0
    4.9185   -3.6441    0.9054 H   0  0  0  0  0  0  0  0  0  0  0  0
    2.0526   -3.3648    0.6130 H   0  0  0  0  0  0  0  0  0  0  0  0
    3.1102   -4.3039   -0.4469 H   0  0  0  0  0  0  0  0  0  0  0  0
    1.0259   -5.1424    4.0500 H   0  0  0  0  0  0  0  0  0  0  0  0
    1.5559   -3.7539    3.1355 H   0  0  0  0  0  0  0  0  0  0  0  0
    2.5025   -4.3527    4.4863 H   0  0  0  0  0  0  0  0  0  0  0  0
   -2.4758   -8.1731    3.3715 H   0  0  0  0  0  0  0  0  0  0  0  0
   -2.3982   -9.8550    2.9008 H   0  0  0  0  0  0  0  0  0  0  0  0
   -2.1178   -8.6103    1.6917 H   0  0  0  0  0  0  0  0  0  0  0  0
   -0.0064  -10.8613    3.6936 H   0  0  0  0  0  0  0  0  0  0  0  0
    2.3096   -9.9219    2.9226 H   0  0  0  0  0  0  0  0  0  0  0  0
    1.4501  -10.0821    5.7918 H   0  0  0  0  0  0  0  0  0  0  0  0
    2.5780  -12.0647    5.1975 H   0  0  0  0  0  0  0  0  0  0  0  0
    5.3795  -12.3811    3.0270 H   0  0  0  0  0  0  0  0  0  0  0  0
    4.5296  -13.2302    4.3249 H   0  0  0  0  0  0  0  0  0  0  0  0
    6.0078  -12.3350    4.6860 H   0  0  0  0  0  0  0  0  0  0  0  0
    5.9553   -9.8068    3.9312 H   0  0  0  0  0  0  0  0  0  0  0  0
    4.5753   -9.6031    2.9074 H   0  0  0  0  0  0  0  0  0  0  0  0
    6.4590   -7.7670    5.4985 H   0  0  0  0  0  0  0  0  0  0  0  0
    5.7816   -8.3544    9.0769 H   0  0  0  0  0  0  0  0  0  0  0  0
    7.2117   -8.3731    8.0367 H   0  0  0  0  0  0  0  0  0  0  0  0
    6.4249   -9.8811    8.4973 H   0  0  0  0  0  0  0  0  0  0  0  0
    3.1859   -6.8125    6.6995 H   0  0  0  0  0  0  0  0  0  0  0  0
    1.8723   -7.0202    5.6195 H   0  0  0  0  0  0  0  0  0  0  0  0
    0.6266   -8.4679    7.1926 H   0  0  0  0  0  0  0  0  0  0  0  0
    2.8726   -6.8866   10.2836 H   0  0  0  0  0  0  0  0  0  0  0  0
    2.0551   -5.4757    9.6174 H   0  0  0  0  0  0  0  0  0  0  0  0
    3.3513   -6.2615    8.7184 H   0  0  0  0  0  0  0  0  0  0  0  0
   -0.1773   -6.7761   10.0475 H   0  0  0  0  0  0  0  0  0  0  0  0
    0.6998   -8.2082   10.5889 H   0  0  0  0  0  0  0  0  0  0  0  0
   -0.4378   -8.3340    9.2419 H   0  0  0  0  0  0  0  0  0  0  0  0
    4.2522   -6.4252    4.5917 H   0  0  0  0  0  0  0  0  0  0  0  0
    6.8583   -4.5770    1.7278 H   0  0  0  0  0  0  0  0  0  0  0  0
    7.4299   -6.1856    2.1589 H   0  0  0  0  0  0  0  0  0  0  0  0
    6.7714   -5.1329    3.4001 H   0  0  0  0  0  0  0  0  0  0  0  0
    5.1882   -5.8326   -0.0775 H   0  0  0  0  0  0  0  0  0  0  0  0
    4.2650   -7.2037    0.5482 H   0  0  0  0  0  0  0  0  0  0  0  0
    6.0048   -7.2603    0.5241 H   0  0  0  0  0  0  0  0  0  0  0  0
    4.4663   -4.5282    3.4504 H   0  0  0  0  0  0  0  0  0  0  0  0
  1  2  1  0
  1 40  1  0
  1 41  1  0
  1 42  1  0
  2  3  1  0
  3 39  1  0
  3  4  1  0
  3 43  1  6
  4  5  1  0
  4 44  1  0
  4 45  1  0
  5  6  2  0
  5  7  1  0
  7 39  1  0
  7  8  1  1
  7  9  1  0
  8 46  1  0
  8 47  1  0
  8 48  1  0
  9 34  1  0
  9 10  2  0
 10 16  1  0
 10 11  1  0
 11 12  2  0
 11 13  1  0
 13 14  1  0
 13 15  2  0
 14 49  1  0
 14 50  1  0
 14 51  1  0
 15 16  1  0
 15 52  1  0
 16 17  1  0
 16 53  1  6
 17 28  1  0
 17 18  1  0
 17 54  1  1
 18 19  2  0
 18 55  1  0
 19 20  1  0
 19 21  1  0
 20 56  1  0
 20 57  1  0
 20 58  1  0
 22 21  1  6
 21 59  1  0
 21 60  1  0
 22 28  1  0
 22 23  1  0
 22 34  1  0
 23 24  2  0
 23 61  1  0
 24 25  1  0
 24 26  1  0
 25 62  1  0
 25 63  1  0
 25 64  1  0
 26 27  2  0
 26 28  1  0
 28 29  1  1
 29 30  1  0
 29 65  1  0
 29 66  1  0
 30 31  2  3
 30 67  1  0
 31 32  1  0
 31 33  1  0
 32 68  1  0
 32 69  1  0
 32 70  1  0
 33 71  1  0
 33 72  1  0
 33 73  1  0
 34 35  1  0
 34 74  1  1
 35 36  1  0
 36 37  1  0
 36 38  1  0
 36 39  1  0
 37 75  1  0
 37 76  1  0
 37 77  1  0
 38 78  1  0
 38 79  1  0
 38 80  1  0
 39 81  1  1
M  END
>  <i_m_ct_stereo_status>  (321) 
1

>  <s_m_source_file>  (321) 
/var/tmp/pbs.5076255.sched01/tmpm28zzdm2/1449lyhn0we.sdf

>  <i_m_source_file_index>  (321) 
1

>  <i_lp_mmshare_version>  (321) 
48012

>  <i_f3d_flags>  (321) 
0

>  <s_epik_input>  (321) 
Tz1DMVtDSDJdW0NAQEhdKE9bQ0gzXSlbQ0BIXShDKFtDSDNdKShbQ0gzXSlPW0NAQEhdMjMpW0NAXTEoW0NIM10pQzI9QyhDKD1PKUMoW0NIM10pPVtDSF00KVtDQEhdNFtDQEBIXShbQ0hdPUMoW0NIM10pW0NIMl01KVtDQF0oW0NAXTM1NikoQyg9TylDKD1bQ0hdNilbQ0gzXSlbQ0gyXVtDSF09QyhbQ0gzXSlbQ0gzXQ==

>  <s_epik_cmdline>  (321) 
J2VwaWtfcHl0aG9uJywgJy1waHQnLCAnMi4wJywgJy1waCcsICc3LjAnLCAnLXRuJywgJzgnLCAnLW1hJywgJzIwMCcsICctaW1hZScsICc8aW5maWxlLm1hZT4nLCAnLW9tYWUnLCAnPG91dGZpbGUubWFlPic=

>  <r_lp_tautomer_probability>  (321) 
0.951455

>  <r_epik_Ionization_Penalty>  (321) 
1.22207e-10

>  <r_epik_Ionization_Penalty_Charging>  (321) 
0

>  <r_epik_Ionization_Penalty_Neutral>  (321) 
1.22207e-10

>  <r_epik_State_Penalty>  (321) 
0.0242319

>  <r_epik_Charging_Adjusted_Penalty>  (321) 
0.0242319

>  <i_epik_Tot_Q>  (321) 
0

>  <i_epik_Tot_abs_Q>  (321) 
0

>  <s_lp_Force_Field>  (321) 
OPLS3e

>  <r_lp_Energy>  (321) 
56.2034

>  <b_lp_Chiralities_Consistent>  (321) 
1

>  <s_lp_Variant>  (321) 
95:0-1

>  <s_i_glide_gridfile>  (321) 
pfpi4k_grid

>  <i_i_glide_lignum>  (321) 
1

>  <i_i_glide_rotatable_bonds>  (321) 
3

>  <r_i_docking_score>  (321) 
-2.22937

>  <r_i_glide_ligand_efficiency>  (321) 
-0.0571632

>  <r_i_glide_ligand_efficiency_sa>  (321) 
-0.193853

>  <r_i_glide_ligand_efficiency_ln>  (321) 
-0.478039

>  <r_i_glide_gscore>  (321) 
-2.22937

>  <r_i_glide_lipo>  (321) 
-0.232005

>  <r_i_glide_hbond>  (321) 
-0.227069

>  <r_i_glide_metal>  (321) 
-0

>  <r_i_glide_rewards>  (321) 
0

>  <r_i_glide_evdw>  (321) 
-24.1148

>  <r_i_glide_ecoul>  (321) 
-4.10426

>  <r_i_glide_erotb>  (321) 
0.146397

>  <r_i_glide_esite>  (321) 
-0.0953116

>  <r_i_glide_emodel>  (321) 
-32.2641

>  <r_i_glide_energy>  (321) 
-28.2191

>  <r_i_glide_einternal>  (321) 
0.0435001

>  <r_i_glide_intrahb_reward>  (321) 
-0

>  <i_i_glide_confnum>  (321) 
5

>  <i_i_glide_posenum>  (321) 
7

>  <r_i_glide_eff_state_penalty>  (321) 
0

>  <ligand_id>  (321) 
95

>  <original_smiles>  (321) 
COC1CC(=O)C2(C)C3=C4C(=O)C(C)=CC4C4C=C(C)CC5(C=C(C)C(=O)C45CC=C(C)C)C3OC(C)(C)C12

>  <smiles>  (321) 
[H]C(=C(C([H])([H])[H])C([H])([H])[H])C([H])([H])C12C(=O)C(C([H])([H])[H])=C([H])C13C([H])([H])C(C([H])([H])[H])=C([H])C2([H])C1([H])C([H])=C(C([H])([H])[H])C(=O)C1=C1C3([H])OC(C([H])([H])[H])(C([H])([H])[H])C2([H])C([H])(OC([H])([H])[H])C([H])([H])C(=O)C12C([H])([H])[H]

$$$$
95:0:1
     RDKit          3D

 81 86  0  0  1  0  0  0  0  0999 V2000
    3.6686   -0.8511   -3.1026 C   0  0  0  0  0  0  0  0  0  0  0  0
    3.4327   -1.5639   -1.8984 O   0  0  0  0  0  0  0  0  0  0  0  0
    4.4876   -1.4933   -0.9441 C   0  0  2  0  0  0  0  0  0  0  0  0
    5.6058   -2.4721   -1.3384 C   0  0  0  0  0  0  0  0  0  0  0  0
    5.5347   -3.5414   -0.2620 C   0  0  0  0  0  0  0  0  0  0  0  0
    6.5294   -4.1845    0.0715 O   0  0  0  0  0  0  0  0  0  0  0  0
    4.1626   -3.5537    0.4450 C   0  0  1  0  0  0  0  0  0  0  0  0
    3.0804   -4.2350   -0.4338 C   0  0  0  0  0  0  0  0  0  0  0  0
    4.1346   -4.1277    1.8962 C   0  0  0  0  0  0  0  0  0  0  0  0
    4.5269   -5.3858    2.2850 C   0  0  0  0  0  0  0  0  0  0  0  0
    4.9807   -6.4945    1.3921 C   0  0  0  0  0  0  0  0  0  0  0  0
    4.9650   -6.5288    0.1645 O   0  0  0  0  0  0  0  0  0  0  0  0
    5.3773   -7.6401    2.1986 C   0  0  0  0  0  0  0  0  0  0  0  0
    5.8974   -8.9160    1.5639 C   0  0  0  0  0  0  0  0  0  0  0  0
    5.1924   -7.3490    3.4823 C   0  0  0  0  0  0  0  0  0  0  0  0
    4.6462   -5.9603    3.7133 C   0  0  2  0  0  0  0  0  0  0  0  0
    3.4103   -5.9826    4.6668 C   0  0  1  0  0  0  0  0  0  0  0  0
    3.9339   -5.6491    6.0517 C   0  0  0  0  0  0  0  0  0  0  0  0
    4.2404   -4.3790    6.3595 C   0  0  0  0  0  0  0  0  0  0  0  0
    4.8028   -3.9632    7.7037 C   0  0  0  0  0  0  0  0  0  0  0  0
    4.0866   -3.2944    5.2928 C   0  0  0  0  0  0  0  0  0  0  0  0
    2.9325   -3.5335    4.2421 C   0  0  2  0  0  0  0  0  0  0  0  0
    1.7706   -2.6708    4.7373 C   0  0  0  0  0  0  0  0  0  0  0  0
    0.8527   -3.3507    5.4320 C   0  0  0  0  0  0  0  0  0  0  0  0
   -0.3828   -2.8457    6.1579 C   0  0  0  0  0  0  0  0  0  0  0  0
    1.2260   -4.7610    5.4014 C   0  0  0  0  0  0  0  0  0  0  0  0
    0.7666   -5.6621    6.1016 O   0  0  0  0  0  0  0  0  0  0  0  0
    2.2855   -4.9704    4.2958 C   0  0  2  0  0  0  0  0  0  0  0  0
    1.4215   -5.3955    3.0403 C   0  0  0  0  0  0  0  0  0  0  0  0
    1.1192   -6.8845    2.9107 C   0  0  0  0  0  0  0  0  0  0  0  0
    0.0041   -7.5566    3.2661 C   0  0  0  0  0  0  0  0  0  0  0  0
   -1.2107   -6.9476    3.9371 C   0  0  0  0  0  0  0  0  0  0  0  0
   -0.1192   -9.0476    3.0142 C   0  0  0  0  0  0  0  0  0  0  0  0
    3.3989   -3.1149    2.8164 C   0  0  1  0  0  0  0  0  0  0  0  0
    4.0876   -1.8759    2.8953 O   0  0  0  0  0  0  0  0  0  0  0  0
    4.4772   -1.2505    1.6751 C   0  0  0  0  0  0  0  0  0  0  0  0
    3.8522    0.1472    1.7772 C   0  0  0  0  0  0  0  0  0  0  0  0
    6.0140   -1.1495    1.7918 C   0  0  0  0  0  0  0  0  0  0  0  0
    3.9243   -2.0093    0.4121 C   0  0  1  0  0  0  0  0  0  0  0  0
    2.8013   -0.9538   -3.7558 H   0  0  0  0  0  0  0  0  0  0  0  0
    4.5353   -1.2401   -3.6365 H   0  0  0  0  0  0  0  0  0  0  0  0
    3.8171    0.2113   -2.9133 H   0  0  0  0  0  0  0  0  0  0  0  0
    4.8542   -0.4684   -0.8627 H   0  0  0  0  0  0  0  0  0  0  0  0
    5.4326   -2.9153   -2.3212 H   0  0  0  0  0  0  0  0  0  0  0  0
    6.5863   -1.9945   -1.3464 H   0  0  0  0  0  0  0  0  0  0  0  0
    2.9734   -5.3008   -0.2503 H   0  0  0  0  0  0  0  0  0  0  0  0
    3.2884   -4.1261   -1.4980 H   0  0  0  0  0  0  0  0  0  0  0  0
    2.0972   -3.8066   -0.2536 H   0  0  0  0  0  0  0  0  0  0  0  0
    5.1418   -9.3253    0.8991 H   0  0  0  0  0  0  0  0  0  0  0  0
    6.1448   -9.6725    2.3054 H   0  0  0  0  0  0  0  0  0  0  0  0
    6.7862   -8.7078    0.9733 H   0  0  0  0  0  0  0  0  0  0  0  0
    5.4045   -8.0176    4.3018 H   0  0  0  0  0  0  0  0  0  0  0  0
    5.4670   -5.4092    4.1711 H   0  0  0  0  0  0  0  0  0  0  0  0
    2.9883   -6.9854    4.7453 H   0  0  0  0  0  0  0  0  0  0  0  0
    4.0477   -6.4527    6.7663 H   0  0  0  0  0  0  0  0  0  0  0  0
    5.7595   -3.4504    7.5826 H   0  0  0  0  0  0  0  0  0  0  0  0
    4.9605   -4.8368    8.3370 H   0  0  0  0  0  0  0  0  0  0  0  0
    4.1111   -3.2934    8.2174 H   0  0  0  0  0  0  0  0  0  0  0  0
    3.9698   -2.3181    5.7690 H   0  0  0  0  0  0  0  0  0  0  0  0
    5.0496   -3.2433    4.7807 H   0  0  0  0  0  0  0  0  0  0  0  0
    1.7477   -1.6014    4.5696 H   0  0  0  0  0  0  0  0  0  0  0  0
   -1.2790   -3.3211    5.7710 H   0  0  0  0  0  0  0  0  0  0  0  0
   -0.5021   -1.7676    6.0650 H   0  0  0  0  0  0  0  0  0  0  0  0
   -0.3118   -3.0933    7.2151 H   0  0  0  0  0  0  0  0  0  0  0  0
    0.4849   -4.8380    3.0154 H   0  0  0  0  0  0  0  0  0  0  0  0
    1.8693   -5.1347    2.0880 H   0  0  0  0  0  0  0  0  0  0  0  0
    1.9242   -7.4491    2.4682 H   0  0  0  0  0  0  0  0  0  0  0  0
   -1.4156   -7.4775    4.8695 H   0  0  0  0  0  0  0  0  0  0  0  0
   -2.0903   -7.0426    3.2994 H   0  0  0  0  0  0  0  0  0  0  0  0
   -1.0616   -5.9013    4.1852 H   0  0  0  0  0  0  0  0  0  0  0  0
   -0.9797   -9.2562    2.3749 H   0  0  0  0  0  0  0  0  0  0  0  0
   -0.2584   -9.5824    3.9564 H   0  0  0  0  0  0  0  0  0  0  0  0
    0.7683   -9.4480    2.5228 H   0  0  0  0  0  0  0  0  0  0  0  0
    2.4623   -2.9153    2.2932 H   0  0  0  0  0  0  0  0  0  0  0  0
    4.1254    0.7742    0.9287 H   0  0  0  0  0  0  0  0  0  0  0  0
    4.1797    0.6527    2.6887 H   0  0  0  0  0  0  0  0  0  0  0  0
    2.7627    0.0922    1.8147 H   0  0  0  0  0  0  0  0  0  0  0  0
    6.4659   -0.6784    0.9208 H   0  0  0  0  0  0  0  0  0  0  0  0
    6.4770   -2.1268    1.9288 H   0  0  0  0  0  0  0  0  0  0  0  0
    6.2998   -0.5543    2.6613 H   0  0  0  0  0  0  0  0  0  0  0  0
    2.8504   -1.8187    0.3965 H   0  0  0  0  0  0  0  0  0  0  0  0
  1  2  1  0
  1 40  1  0
  1 41  1  0
  1 42  1  0
  2  3  1  0
  3 39  1  0
  3  4  1  0
  3 43  1  1
  4  5  1  0
  4 44  1  0
  4 45  1  0
  5  6  2  0
  5  7  1  0
  7 39  1  0
  7  8  1  6
  7  9  1  0
  8 46  1  0
  8 47  1  0
  8 48  1  0
  9 34  1  0
  9 10  2  0
 10 16  1  0
 10 11  1  0
 11 12  2  0
 11 13  1  0
 13 14  1  0
 13 15  2  0
 14 49  1  0
 14 50  1  0
 14 51  1  0
 15 16  1  0
 15 52  1  0
 16 17  1  0
 16 53  1  1
 17 28  1  0
 17 18  1  0
 17 54  1  1
 18 19  2  0
 18 55  1  0
 19 20  1  0
 19 21  1  0
 20 56  1  0
 20 57  1  0
 20 58  1  0
 22 21  1  1
 21 59  1  0
 21 60  1  0
 22 28  1  0
 22 23  1  0
 22 34  1  0
 23 24  2  0
 23 61  1  0
 24 25  1  0
 24 26  1  0
 25 62  1  0
 25 63  1  0
 25 64  1  0
 26 27  2  0
 26 28  1  0
 28 29  1  6
 29 30  1  0
 29 65  1  0
 29 66  1  0
 30 31  2  3
 30 67  1  0
 31 32  1  0
 31 33  1  0
 32 68  1  0
 32 69  1  0
 32 70  1  0
 33 71  1  0
 33 72  1  0
 33 73  1  0
 34 35  1  0
 34 74  1  6
 35 36  1  0
 36 37  1  0
 36 38  1  0
 36 39  1  0
 37 75  1  0
 37 76  1  0
 37 77  1  0
 38 78  1  0
 38 79  1  0
 38 80  1  0
 39 81  1  6
M  END
>  <i_m_ct_stereo_status>  (322) 
1

>  <s_m_source_file>  (322) 
/var/tmp/pbs.5076255.sched01/tmpm28zzdm2/1449lyhn0we.sdf

>  <i_m_source_file_index>  (322) 
1

>  <i_lp_mmshare_version>  (322) 
48012

>  <i_f3d_flags>  (322) 
0

>  <s_epik_input>  (322) 
Tz1DMVtDSDJdW0NAQEhdKE9bQ0gzXSlbQ0BIXShDKFtDSDNdKShbQ0gzXSlPW0NAQEhdMjMpW0NAXTEoW0NIM10pQzI9QyhDKD1PKUMoW0NIM10pPVtDSF00KVtDQEhdNFtDQEBIXShbQ0hdPUMoW0NIM10pW0NIMl01KVtDQF0oW0NAXTM1NikoQyg9TylDKD1bQ0hdNilbQ0gzXSlbQ0gyXVtDSF09QyhbQ0gzXSlbQ0gzXQ==

>  <s_epik_cmdline>  (322) 
J2VwaWtfcHl0aG9uJywgJy1waHQnLCAnMi4wJywgJy1waCcsICc3LjAnLCAnLXRuJywgJzgnLCAnLW1hJywgJzIwMCcsICctaW1hZScsICc8aW5maWxlLm1hZT4nLCAnLW9tYWUnLCAnPG91dGZpbGUubWFlPic=

>  <r_lp_tautomer_probability>  (322) 
0.951455

>  <r_epik_Ionization_Penalty>  (322) 
1.22207e-10

>  <r_epik_Ionization_Penalty_Charging>  (322) 
0

>  <r_epik_Ionization_Penalty_Neutral>  (322) 
1.22207e-10

>  <r_epik_State_Penalty>  (322) 
0.0242319

>  <r_epik_Charging_Adjusted_Penalty>  (322) 
0.0242319

>  <i_epik_Tot_Q>  (322) 
0

>  <i_epik_Tot_abs_Q>  (322) 
0

>  <s_lp_Force_Field>  (322) 
OPLS3e

>  <r_lp_Energy>  (322) 
56.2034

>  <b_lp_Chiralities_Consistent>  (322) 
1

>  <s_lp_Variant>  (322) 
95:0-1

>  <s_i_glide_gridfile>  (322) 
pfpi4k_grid

>  <i_i_glide_lignum>  (322) 
1

>  <i_i_glide_rotatable_bonds>  (322) 
3

>  <r_i_docking_score>  (322) 
-2.02545

>  <r_i_glide_ligand_efficiency>  (322) 
-0.0519346

>  <r_i_glide_ligand_efficiency_sa>  (322) 
-0.176121

>  <r_i_glide_ligand_efficiency_ln>  (322) 
-0.434314

>  <r_i_glide_gscore>  (322) 
-2.02545

>  <r_i_glide_lipo>  (322) 
-0.40862

>  <r_i_glide_hbond>  (322) 
0

>  <r_i_glide_metal>  (322) 
-0

>  <r_i_glide_rewards>  (322) 
-0.191322

>  <r_i_glide_evdw>  (322) 
-29.8599

>  <r_i_glide_ecoul>  (322) 
-0.526054

>  <r_i_glide_erotb>  (322) 
0.146397

>  <r_i_glide_esite>  (322) 
0

>  <r_i_glide_emodel>  (322) 
-32.6032

>  <r_i_glide_energy>  (322) 
-30.386

>  <r_i_glide_einternal>  (322) 
2.76329

>  <r_i_glide_intrahb_reward>  (322) 
-0

>  <i_i_glide_confnum>  (322) 
5

>  <i_i_glide_posenum>  (322) 
24

>  <r_i_glide_eff_state_penalty>  (322) 
0

>  <ligand_id>  (322) 
95

>  <original_smiles>  (322) 
COC1CC(=O)C2(C)C3=C4C(=O)C(C)=CC4C4C=C(C)CC5(C=C(C)C(=O)C45CC=C(C)C)C3OC(C)(C)C12

>  <smiles>  (322) 
[H]C(=C(C([H])([H])[H])C([H])([H])[H])C([H])([H])C12C(=O)C(C([H])([H])[H])=C([H])C13C([H])([H])C(C([H])([H])[H])=C([H])C2([H])C1([H])C([H])=C(C([H])([H])[H])C(=O)C1=C1C3([H])OC(C([H])([H])[H])(C([H])([H])[H])C2([H])C([H])(OC([H])([H])[H])C([H])([H])C(=O)C12C([H])([H])[H]

$$$$
95:0:2
     RDKit          3D

 81 86  0  0  1  0  0  0  0  0999 V2000
    2.7787   -2.4936   -2.7915 C   0  0  0  0  0  0  0  0  0  0  0  0
    2.7921   -3.0818   -1.4991 O   0  0  0  0  0  0  0  0  0  0  0  0
    3.6488   -2.4316   -0.5653 C   0  0  2  0  0  0  0  0  0  0  0  0
    5.1016   -2.8855   -0.7873 C   0  0  0  0  0  0  0  0  0  0  0  0
    5.4064   -3.7167    0.4448 C   0  0  0  0  0  0  0  0  0  0  0  0
    6.5529   -3.8332    0.8716 O   0  0  0  0  0  0  0  0  0  0  0  0
    4.1157   -4.2130    1.1334 C   0  0  1  0  0  0  0  0  0  0  0  0
    3.4970   -5.4123    0.3661 C   0  0  0  0  0  0  0  0  0  0  0  0
    4.2117   -4.5311    2.6573 C   0  0  0  0  0  0  0  0  0  0  0  0
    5.0718   -5.4247    3.2517 C   0  0  0  0  0  0  0  0  0  0  0  0
    6.0217   -6.3493    2.5580 C   0  0  0  0  0  0  0  0  0  0  0  0
    6.1347   -6.5606    1.3511 O   0  0  0  0  0  0  0  0  0  0  0  0
    6.7853   -7.0892    3.5502 C   0  0  0  0  0  0  0  0  0  0  0  0
    7.8382   -8.0985    3.1417 C   0  0  0  0  0  0  0  0  0  0  0  0
    6.3869   -6.7268    4.7655 C   0  0  0  0  0  0  0  0  0  0  0  0
    5.2911   -5.6878    4.7585 C   0  0  2  0  0  0  0  0  0  0  0  0
    4.0988   -6.1013    5.6850 C   0  0  1  0  0  0  0  0  0  0  0  0
    4.3183   -5.3828    7.0056 C   0  0  0  0  0  0  0  0  0  0  0  0
    4.0412   -4.0721    7.1047 C   0  0  0  0  0  0  0  0  0  0  0  0
    4.2681   -3.2685    8.3706 C   0  0  0  0  0  0  0  0  0  0  0  0
    3.5369   -3.3219    5.8736 C   0  0  0  0  0  0  0  0  0  0  0  0
    2.6798   -4.1803    4.8613 C   0  0  2  0  0  0  0  0  0  0  0  0
    1.2269   -3.8315    5.1931 C   0  0  0  0  0  0  0  0  0  0  0  0
    0.6179   -4.7308    5.9712 C   0  0  0  0  0  0  0  0  0  0  0  0
   -0.7676   -4.7072    6.5938 C   0  0  0  0  0  0  0  0  0  0  0  0
    1.5405   -5.8408    6.1787 C   0  0  0  0  0  0  0  0  0  0  0  0
    1.4352   -6.7414    7.0101 O   0  0  0  0  0  0  0  0  0  0  0  0
    2.6864   -5.7313    5.1449 C   0  0  2  0  0  0  0  0  0  0  0  0
    2.2053   -6.6507    3.9574 C   0  0  0  0  0  0  0  0  0  0  0  0
    2.0321   -8.1361    4.2821 C   0  0  0  0  0  0  0  0  0  0  0  0
    0.9437   -8.9165    4.1050 C   0  0  0  0  0  0  0  0  0  0  0  0
   -0.3958   -8.4543    3.5510 C   0  0  0  0  0  0  0  0  0  0  0  0
    0.9795  -10.3952    4.4494 C   0  0  0  0  0  0  0  0  0  0  0  0
    3.0420   -3.8176    3.3901 C   0  0  1  0  0  0  0  0  0  0  0  0
    3.1329   -2.4032    3.2759 O   0  0  0  0  0  0  0  0  0  0  0  0
    3.3309   -1.8450    1.9778 C   0  0  0  0  0  0  0  0  0  0  0  0
    2.1746   -0.8408    1.8409 C   0  0  0  0  0  0  0  0  0  0  0  0
    4.6696   -1.0813    2.0946 C   0  0  0  0  0  0  0  0  0  0  0  0
    3.2533   -2.9383    0.8498 C   0  0  1  0  0  0  0  0  0  0  0  0
    2.0971   -3.0465   -3.4387 H   0  0  0  0  0  0  0  0  0  0  0  0
    3.7663   -2.5138   -3.2516 H   0  0  0  0  0  0  0  0  0  0  0  0
    2.4349   -1.4603   -2.7474 H   0  0  0  0  0  0  0  0  0  0  0  0
    3.5460   -1.3483   -0.6493 H   0  0  0  0  0  0  0  0  0  0  0  0
    5.2073   -3.4963   -1.6867 H   0  0  0  0  0  0  0  0  0  0  0  0
    5.7857   -2.0404   -0.8626 H   0  0  0  0  0  0  0  0  0  0  0  0
    3.8308   -6.3824    0.7228 H   0  0  0  0  0  0  0  0  0  0  0  0
    3.7386   -5.3764   -0.6947 H   0  0  0  0  0  0  0  0  0  0  0  0
    2.4128   -5.4295    0.4564 H   0  0  0  0  0  0  0  0  0  0  0  0
    7.3778   -8.8774    2.5376 H   0  0  0  0  0  0  0  0  0  0  0  0
    8.3172   -8.5657    3.9995 H   0  0  0  0  0  0  0  0  0  0  0  0
    8.6044   -7.6182    2.5341 H   0  0  0  0  0  0  0  0  0  0  0  0
    6.7889   -7.1154    5.6884 H   0  0  0  0  0  0  0  0  0  0  0  0
    5.7634   -4.7822    5.1355 H   0  0  0  0  0  0  0  0  0  0  0  0
    4.1276   -7.1682    5.9075 H   0  0  0  0  0  0  0  0  0  0  0  0
    4.7032   -5.9479    7.8437 H   0  0  0  0  0  0  0  0  0  0  0  0
    4.9272   -2.4191    8.1820 H   0  0  0  0  0  0  0  0  0  0  0  0
    4.7263   -3.8881    9.1416 H   0  0  0  0  0  0  0  0  0  0  0  0
    3.3217   -2.8923    8.7599 H   0  0  0  0  0  0  0  0  0  0  0  0
    2.9875   -2.4298    6.1830 H   0  0  0  0  0  0  0  0  0  0  0  0
    4.4294   -2.9382    5.3740 H   0  0  0  0  0  0  0  0  0  0  0  0
    0.7763   -2.9046    4.8560 H   0  0  0  0  0  0  0  0  0  0  0  0
   -1.3451   -5.5711    6.2701 H   0  0  0  0  0  0  0  0  0  0  0  0
   -1.3193   -3.8044    6.3362 H   0  0  0  0  0  0  0  0  0  0  0  0
   -0.6854   -4.7527    7.6790 H   0  0  0  0  0  0  0  0  0  0  0  0
    1.2807   -6.2388    3.5566 H   0  0  0  0  0  0  0  0  0  0  0  0
    2.8844   -6.6522    3.1138 H   0  0  0  0  0  0  0  0  0  0  0  0
    2.9115   -8.6092    4.6928 H   0  0  0  0  0  0  0  0  0  0  0  0
   -1.1936   -8.7271    4.2447 H   0  0  0  0  0  0  0  0  0  0  0  0
   -0.5933   -8.9616    2.6052 H   0  0  0  0  0  0  0  0  0  0  0  0
   -0.4641   -7.3839    3.3794 H   0  0  0  0  0  0  0  0  0  0  0  0
    0.7755  -10.9952    3.5610 H   0  0  0  0  0  0  0  0  0  0  0  0
    0.2233  -10.6400    5.1980 H   0  0  0  0  0  0  0  0  0  0  0  0
    1.9505  -10.7033    4.8417 H   0  0  0  0  0  0  0  0  0  0  0  0
    2.1559   -4.1194    2.8288 H   0  0  0  0  0  0  0  0  0  0  0  0
    2.2312   -0.2847    0.9056 H   0  0  0  0  0  0  0  0  0  0  0  0
    2.1828   -0.1142    2.6558 H   0  0  0  0  0  0  0  0  0  0  0  0
    1.2088   -1.3483    1.8692 H   0  0  0  0  0  0  0  0  0  0  0  0
    4.9477   -0.5933    1.1617 H   0  0  0  0  0  0  0  0  0  0  0  0
    5.4897   -1.7348    2.3953 H   0  0  0  0  0  0  0  0  0  0  0  0
    4.6066   -0.3011    2.8553 H   0  0  0  0  0  0  0  0  0  0  0  0
    2.2062   -3.2289    0.7926 H   0  0  0  0  0  0  0  0  0  0  0  0
  1  2  1  0
  1 40  1  0
  1 41  1  0
  1 42  1  0
  2  3  1  0
  3 39  1  0
  3  4  1  0
  3 43  1  1
  4  5  1  0
  4 44  1  0
  4 45  1  0
  5  6  2  0
  5  7  1  0
  7 39  1  0
  7  8  1  6
  7  9  1  0
  8 46  1  0
  8 47  1  0
  8 48  1  0
  9 34  1  0
  9 10  2  0
 10 16  1  0
 10 11  1  0
 11 12  2  0
 11 13  1  0
 13 14  1  0
 13 15  2  0
 14 49  1  0
 14 50  1  0
 14 51  1  0
 15 16  1  0
 15 52  1  0
 16 17  1  0
 16 53  1  1
 17 28  1  0
 17 18  1  0
 17 54  1  1
 18 19  2  0
 18 55  1  0
 19 20  1  0
 19 21  1  0
 20 56  1  0
 20 57  1  0
 20 58  1  0
 22 21  1  1
 21 59  1  0
 21 60  1  0
 22 28  1  0
 22 23  1  0
 22 34  1  0
 23 24  2  0
 23 61  1  0
 24 25  1  0
 24 26  1  0
 25 62  1  0
 25 63  1  0
 25 64  1  0
 26 27  2  0
 26 28  1  0
 28 29  1  6
 29 30  1  0
 29 65  1  0
 29 66  1  0
 30 31  2  3
 30 67  1  0
 31 32  1  0
 31 33  1  0
 32 68  1  0
 32 69  1  0
 32 70  1  0
 33 71  1  0
 33 72  1  0
 33 73  1  0
 34 35  1  0
 34 74  1  6
 35 36  1  0
 36 37  1  0
 36 38  1  0
 36 39  1  0
 37 75  1  0
 37 76  1  0
 37 77  1  0
 38 78  1  0
 38 79  1  0
 38 80  1  0
 39 81  1  6
M  END
>  <i_m_ct_stereo_status>  (323) 
1

>  <s_m_source_file>  (323) 
/var/tmp/pbs.5076255.sched01/tmpm28zzdm2/1449lyhn0we.sdf

>  <i_m_source_file_index>  (323) 
1

>  <i_lp_mmshare_version>  (323) 
48012

>  <i_f3d_flags>  (323) 
0

>  <s_epik_input>  (323) 
Tz1DMVtDSDJdW0NAQEhdKE9bQ0gzXSlbQ0BIXShDKFtDSDNdKShbQ0gzXSlPW0NAQEhdMjMpW0NAXTEoW0NIM10pQzI9QyhDKD1PKUMoW0NIM10pPVtDSF00KVtDQEhdNFtDQEBIXShbQ0hdPUMoW0NIM10pW0NIMl01KVtDQF0oW0NAXTM1NikoQyg9TylDKD1bQ0hdNilbQ0gzXSlbQ0gyXVtDSF09QyhbQ0gzXSlbQ0gzXQ==

>  <s_epik_cmdline>  (323) 
J2VwaWtfcHl0aG9uJywgJy1waHQnLCAnMi4wJywgJy1waCcsICc3LjAnLCAnLXRuJywgJzgnLCAnLW1hJywgJzIwMCcsICctaW1hZScsICc8aW5maWxlLm1hZT4nLCAnLW9tYWUnLCAnPG91dGZpbGUubWFlPic=

>  <r_lp_tautomer_probability>  (323) 
0.951455

>  <r_epik_Ionization_Penalty>  (323) 
1.22207e-10

>  <r_epik_Ionization_Penalty_Charging>  (323) 
0

>  <r_epik_Ionization_Penalty_Neutral>  (323) 
1.22207e-10

>  <r_epik_State_Penalty>  (323) 
0.0242319

>  <r_epik_Charging_Adjusted_Penalty>  (323) 
0.0242319

>  <i_epik_Tot_Q>  (323) 
0

>  <i_epik_Tot_abs_Q>  (323) 
0

>  <s_lp_Force_Field>  (323) 
OPLS3e

>  <r_lp_Energy>  (323) 
56.2034

>  <b_lp_Chiralities_Consistent>  (323) 
1

>  <s_lp_Variant>  (323) 
95:0-1

>  <s_i_glide_gridfile>  (323) 
pfpi4k_grid

>  <i_i_glide_lignum>  (323) 
1

>  <i_i_glide_rotatable_bonds>  (323) 
3

>  <r_i_docking_score>  (323) 
-1.41834

>  <r_i_glide_ligand_efficiency>  (323) 
-0.0363676

>  <r_i_glide_ligand_efficiency_sa>  (323) 
-0.12333

>  <r_i_glide_ligand_efficiency_ln>  (323) 
-0.304132

>  <r_i_glide_gscore>  (323) 
-1.41834

>  <r_i_glide_lipo>  (323) 
-0.10813

>  <r_i_glide_hbond>  (323) 
0

>  <r_i_glide_metal>  (323) 
-0

>  <r_i_glide_rewards>  (323) 
-0.0876915

>  <r_i_glide_evdw>  (323) 
-25.4703

>  <r_i_glide_ecoul>  (323) 
-0.635722

>  <r_i_glide_erotb>  (323) 
0.146397

>  <r_i_glide_esite>  (323) 
-3.90781e-05

>  <r_i_glide_emodel>  (323) 
-28.6225

>  <r_i_glide_energy>  (323) 
-26.106

>  <r_i_glide_einternal>  (323) 
0.0481715

>  <r_i_glide_intrahb_reward>  (323) 
-0

>  <i_i_glide_confnum>  (323) 
1

>  <i_i_glide_posenum>  (323) 
11

>  <r_i_glide_eff_state_penalty>  (323) 
0

>  <ligand_id>  (323) 
95

>  <original_smiles>  (323) 
COC1CC(=O)C2(C)C3=C4C(=O)C(C)=CC4C4C=C(C)CC5(C=C(C)C(=O)C45CC=C(C)C)C3OC(C)(C)C12

>  <smiles>  (323) 
[H]C(=C(C([H])([H])[H])C([H])([H])[H])C([H])([H])C12C(=O)C(C([H])([H])[H])=C([H])C13C([H])([H])C(C([H])([H])[H])=C([H])C2([H])C1([H])C([H])=C(C([H])([H])[H])C(=O)C1=C1C3([H])OC(C([H])([H])[H])(C([H])([H])[H])C2([H])C([H])(OC([H])([H])[H])C([H])([H])C(=O)C12C([H])([H])[H]

$$$$
95:1:0
     RDKit          3D

 81 86  0  0  1  0  0  0  0  0999 V2000
    6.7128    0.2560    3.7389 C   0  0  0  0  0  0  0  0  0  0  0  0
    5.5500    0.0737    2.9555 O   0  0  0  0  0  0  0  0  0  0  0  0
    5.1290   -1.2787    2.9161 C   0  0  2  0  0  0  0  0  0  0  0  0
    6.0882   -2.1444    2.0979 C   0  0  0  0  0  0  0  0  0  0  0  0
    5.2008   -2.5758    0.9831 C   0  0  0  0  0  0  0  0  0  0  0  0
    5.6004   -2.6245   -0.1804 O   0  0  0  0  0  0  0  0  0  0  0  0
    3.7401   -2.7097    1.4378 C   0  0  1  0  0  0  0  0  0  0  0  0
    2.8220   -2.7336    0.2000 C   0  0  0  0  0  0  0  0  0  0  0  0
    3.4426   -3.9187    2.4078 C   0  0  0  0  0  0  0  0  0  0  0  0
    3.9668   -5.1989    2.2533 C   0  0  0  0  0  0  0  0  0  0  0  0
    4.6878   -5.7540    1.0677 C   0  0  0  0  0  0  0  0  0  0  0  0
    4.7561   -5.2986   -0.0639 O   0  0  0  0  0  0  0  0  0  0  0  0
    5.2228   -7.1550    1.3353 C   0  0  1  0  0  0  0  0  0  0  0  0
    6.7516   -7.1707    1.4411 C   0  0  0  0  0  0  0  0  0  0  0  0
    4.5413   -7.4245    2.6434 C   0  0  0  0  0  0  0  0  0  0  0  0
    3.8779   -6.3816    3.1382 C   0  0  0  0  0  0  0  0  0  0  0  0
    3.1081   -6.4519    4.4322 C   0  0  2  0  0  0  0  0  0  0  0  0
    3.7016   -6.4562    5.8281 C   0  0  0  0  0  0  0  0  0  0  0  0
    3.5451   -5.3520    6.5975 C   0  0  0  0  0  0  0  0  0  0  0  0
    4.0565   -5.2297    8.0204 C   0  0  0  0  0  0  0  0  0  0  0  0
    2.8946   -4.0982    5.9746 C   0  0  0  0  0  0  0  0  0  0  0  0
    1.9235   -4.3423    4.7197 C   0  0  2  0  0  0  0  0  0  0  0  0
    0.5422   -3.9941    5.2701 C   0  0  0  0  0  0  0  0  0  0  0  0
   -0.0981   -5.0514    5.7699 C   0  0  0  0  0  0  0  0  0  0  0  0
   -1.4308   -5.1296    6.4898 C   0  0  0  0  0  0  0  0  0  0  0  0
    0.7014   -6.2388    5.4659 C   0  0  0  0  0  0  0  0  0  0  0  0
    0.5840   -7.3660    5.9373 O   0  0  0  0  0  0  0  0  0  0  0  0
    1.7014   -5.8465    4.3622 C   0  0  2  0  0  0  0  0  0  0  0  0
    0.9488   -6.1332    3.0084 C   0  0  0  0  0  0  0  0  0  0  0  0
    0.6581   -7.6043    2.7262 C   0  0  0  0  0  0  0  0  0  0  0  0
   -0.5216   -8.2535    2.8286 C   0  0  0  0  0  0  0  0  0  0  0  0
   -1.8293   -7.6457    3.3041 C   0  0  0  0  0  0  0  0  0  0  0  0
   -0.6402   -9.7198    2.4784 C   0  0  0  0  0  0  0  0  0  0  0  0
    2.3306   -3.4899    3.4648 C   0  0  1  0  0  0  0  0  0  0  0  0
    2.5010   -2.1916    4.0229 O   0  0  0  0  0  0  0  0  0  0  0  0
    2.5542   -1.0875    3.1503 C   0  0  0  0  0  0  0  0  0  0  0  0
    1.2076   -0.8550    2.4359 C   0  0  0  0  0  0  0  0  0  0  0  0
    2.7786    0.1234    4.0762 C   0  0  0  0  0  0  0  0  0  0  0  0
    3.7438   -1.3491    2.2045 C   0  0  1  0  0  0  0  0  0  0  0  0
    6.9977    1.2987    3.7699 H   0  0  0  0  0  0  0  0  0  0  0  0
    7.5615   -0.2526    3.2860 H   0  0  0  0  0  0  0  0  0  0  0  0
    6.5818   -0.0572    4.7726 H   0  0  0  0  0  0  0  0  0  0  0  0
    5.0681   -1.6904    3.9219 H   0  0  0  0  0  0  0  0  0  0  0  0
    6.9586   -1.6226    1.6985 H   0  0  0  0  0  0  0  0  0  0  0  0
    6.3881   -3.0444    2.6290 H   0  0  0  0  0  0  0  0  0  0  0  0
    1.8319   -3.0732    0.4545 H   0  0  0  0  0  0  0  0  0  0  0  0
    3.1577   -3.4102   -0.5838 H   0  0  0  0  0  0  0  0  0  0  0  0
    2.7279   -1.7531   -0.2607 H   0  0  0  0  0  0  0  0  0  0  0  0
    7.0905   -6.4548    2.1863 H   0  0  0  0  0  0  0  0  0  0  0  0
    7.2209   -6.8888    0.5004 H   0  0  0  0  0  0  0  0  0  0  0  0
    7.1234   -8.1533    1.7263 H   0  0  0  0  0  0  0  0  0  0  0  0
    4.5906   -8.3936    3.1173 H   0  0  0  0  0  0  0  0  0  0  0  0
    4.8582   -7.8450    0.5719 H   0  0  0  0  0  0  0  0  0  0  0  0
    3.7679   -5.6008    4.4116 H   0  0  0  0  0  0  0  0  0  0  0  0
    4.1520   -7.3608    6.2041 H   0  0  0  0  0  0  0  0  0  0  0  0
    4.7255   -4.3714    8.1263 H   0  0  0  0  0  0  0  0  0  0  0  0
    4.6052   -6.1262    8.3092 H   0  0  0  0  0  0  0  0  0  0  0  0
    3.2275   -5.1041    8.7194 H   0  0  0  0  0  0  0  0  0  0  0  0
    2.3780   -3.5351    6.7552 H   0  0  0  0  0  0  0  0  0  0  0  0
    3.7371   -3.4735    5.6662 H   0  0  0  0  0  0  0  0  0  0  0  0
    0.1900   -2.9686    5.3050 H   0  0  0  0  0  0  0  0  0  0  0  0
   -2.0892   -5.8403    5.9827 H   0  0  0  0  0  0  0  0  0  0  0  0
   -1.9124   -4.1492    6.5652 H   0  0  0  0  0  0  0  0  0  0  0  0
   -1.2671   -5.5035    7.4980 H   0  0  0  0  0  0  0  0  0  0  0  0
    0.0161   -5.5829    3.0067 H   0  0  0  0  0  0  0  0  0  0  0  0
    1.4682   -5.7605    2.1301 H   0  0  0  0  0  0  0  0  0  0  0  0
    1.5153   -8.1801    2.4044 H   0  0  0  0  0  0  0  0  0  0  0  0
   -2.5734   -7.6581    2.5063 H   0  0  0  0  0  0  0  0  0  0  0  0
   -1.7276   -6.6327    3.6790 H   0  0  0  0  0  0  0  0  0  0  0  0
   -2.2135   -8.2511    4.1262 H   0  0  0  0  0  0  0  0  0  0  0  0
   -0.9589  -10.2711    3.3581 H   0  0  0  0  0  0  0  0  0  0  0  0
    0.3077  -10.1358    2.1331 H   0  0  0  0  0  0  0  0  0  0  0  0
   -1.3850   -9.8693    1.6940 H   0  0  0  0  0  0  0  0  0  0  0  0
    1.4306   -3.4555    2.8519 H   0  0  0  0  0  0  0  0  0  0  0  0
    1.2462    0.0441    1.8226 H   0  0  0  0  0  0  0  0  0  0  0  0
    0.4026   -0.7298    3.1595 H   0  0  0  0  0  0  0  0  0  0  0  0
    0.9173   -1.6612    1.7748 H   0  0  0  0  0  0  0  0  0  0  0  0
    2.9344    1.0353    3.4995 H   0  0  0  0  0  0  0  0  0  0  0  0
    3.6342   -0.0098    4.7393 H   0  0  0  0  0  0  0  0  0  0  0  0
    1.9100    0.2791    4.7153 H   0  0  0  0  0  0  0  0  0  0  0  0
    3.7354   -0.5461    1.4636 H   0  0  0  0  0  0  0  0  0  0  0  0
  1  2  1  0
  1 40  1  0
  1 41  1  0
  1 42  1  0
  2  3  1  0
  3 39  1  0
  3  4  1  0
  3 43  1  1
  4  5  1  0
  4 44  1  0
  4 45  1  0
  5  6  2  0
  5  7  1  0
  7 39  1  0
  7  8  1  6
  7  9  1  0
  8 46  1  0
  8 47  1  0
  8 48  1  0
  9 10  2  0
  9 34  1  0
 10 16  1  0
 10 11  1  0
 11 12  2  0
 11 13  1  0
 13 14  1  0
 13 53  1  6
 13 15  1  0
 14 49  1  0
 14 50  1  0
 14 51  1  0
 15 16  2  0
 15 52  1  0
 16 17  1  0
 17 28  1  0
 17 18  1  0
 17 54  1  6
 18 19  2  0
 18 55  1  0
 19 20  1  0
 19 21  1  0
 20 56  1  0
 20 57  1  0
 20 58  1  0
 22 21  1  1
 21 59  1  0
 21 60  1  0
 22 28  1  0
 22 23  1  0
 22 34  1  0
 23 24  2  0
 23 61  1  0
 24 25  1  0
 24 26  1  0
 25 62  1  0
 25 63  1  0
 25 64  1  0
 26 27  2  0
 26 28  1  0
 28 29  1  6
 29 30  1  0
 29 65  1  0
 29 66  1  0
 30 31  2  3
 30 67  1  0
 31 32  1  0
 31 33  1  0
 32 68  1  0
 32 69  1  0
 32 70  1  0
 33 71  1  0
 33 72  1  0
 33 73  1  0
 34 35  1  0
 34 74  1  6
 35 36  1  0
 36 37  1  0
 36 38  1  0
 36 39  1  0
 37 75  1  0
 37 76  1  0
 37 77  1  0
 38 78  1  0
 38 79  1  0
 38 80  1  0
 39 81  1  6
M  END
>  <i_m_ct_stereo_status>  (324) 
1

>  <s_m_source_file>  (324) 
/var/tmp/pbs.5076255.sched01/tmpm28zzdm2/1449lyhn0we.sdf

>  <i_m_source_file_index>  (324) 
2

>  <i_lp_mmshare_version>  (324) 
48012

>  <i_f3d_flags>  (324) 
0

>  <s_epik_input>  (324) 
Tz1DMVtDSDJdW0NAQEhdKE9bQ0gzXSlbQ0BIXShDKFtDSDNdKShbQ0gzXSlPW0NAQEhdMjMpW0NAXTEoW0NIM10pQzI9QyhDKD1PKUMoW0NIM10pPVtDSF00KVtDQEhdNFtDQEBIXShbQ0hdPUMoW0NIM10pW0NIMl01KVtDQF0oW0NAXTM1NikoQyg9TylDKD1bQ0hdNilbQ0gzXSlbQ0gyXVtDSF09QyhbQ0gzXSlbQ0gzXQ==

>  <s_epik_cmdline>  (324) 
J2VwaWtfcHl0aG9uJywgJy1waHQnLCAnMi4wJywgJy1waCcsICc3LjAnLCAnLXRuJywgJzgnLCAnLW1hJywgJzIwMCcsICctaW1hZScsICc8aW5maWxlLm1hZT4nLCAnLW9tYWUnLCAnPG91dGZpbGUubWFlPic=

>  <r_lp_tautomer_probability>  (324) 
0.0484977

>  <r_epik_Ionization_Penalty>  (324) 
2.48361e-10

>  <r_epik_Ionization_Penalty_Charging>  (324) 
0

>  <r_epik_Ionization_Penalty_Neutral>  (324) 
2.48361e-10

>  <r_epik_State_Penalty>  (324) 
1.90605

>  <r_epik_Charging_Adjusted_Penalty>  (324) 
1.90605

>  <i_epik_Tot_Q>  (324) 
0

>  <i_epik_Tot_abs_Q>  (324) 
0

>  <s_lp_Force_Field>  (324) 
OPLS3e

>  <r_lp_Energy>  (324) 
108.095

>  <b_lp_Chiralities_Consistent>  (324) 
1

>  <s_lp_Variant>  (324) 
95:0-2

>  <s_i_glide_gridfile>  (324) 
pfpi4k_grid

>  <i_i_glide_lignum>  (324) 
2

>  <i_i_glide_rotatable_bonds>  (324) 
3

>  <r_i_docking_score>  (324) 
-1.87706

>  <r_i_glide_ligand_efficiency>  (324) 
-0.0481296

>  <r_i_glide_ligand_efficiency_sa>  (324) 
-0.163218

>  <r_i_glide_ligand_efficiency_ln>  (324) 
-0.402494

>  <r_i_glide_gscore>  (324) 
-1.87706

>  <r_i_glide_lipo>  (324) 
-0.546403

>  <r_i_glide_hbond>  (324) 
-0.179311

>  <r_i_glide_metal>  (324) 
-0

>  <r_i_glide_rewards>  (324) 
-0.149303

>  <r_i_glide_evdw>  (324) 
-21.1527

>  <r_i_glide_ecoul>  (324) 
-0.574316

>  <r_i_glide_erotb>  (324) 
0.146397

>  <r_i_glide_esite>  (324) 
-0.00465376

>  <r_i_glide_emodel>  (324) 
-24.0637

>  <r_i_glide_energy>  (324) 
-21.727

>  <r_i_glide_einternal>  (324) 
0.600959

>  <r_i_glide_intrahb_reward>  (324) 
-0

>  <i_i_glide_confnum>  (324) 
1

>  <i_i_glide_posenum>  (324) 
32

>  <r_i_glide_eff_state_penalty>  (324) 
0

>  <ligand_id>  (324) 
95

>  <original_smiles>  (324) 
COC1CC(=O)C2(C)C3=C4C(=O)C(C)=CC4C4C=C(C)CC5(C=C(C)C(=O)C45CC=C(C)C)C3OC(C)(C)C12

>  <smiles>  (324) 
[H]C(=C(C([H])([H])[H])C([H])([H])[H])C([H])([H])C12C(=O)C(C([H])([H])[H])=C([H])C13C([H])([H])C(C([H])([H])[H])=C([H])C2([H])C1=C([H])C([H])(C([H])([H])[H])C(=O)C1=C1C3([H])OC(C([H])([H])[H])(C([H])([H])[H])C2([H])C([H])(OC([H])([H])[H])C([H])([H])C(=O)C12C([H])([H])[H]

$$$$
95:1:1
     RDKit          3D

 81 86  0  0  1  0  0  0  0  0999 V2000
    7.1068    0.6217    4.9050 C   0  0  0  0  0  0  0  0  0  0  0  0
    5.7682    0.6745    4.4274 O   0  0  0  0  0  0  0  0  0  0  0  0
    5.1722   -0.5930    4.1756 C   0  0  2  0  0  0  0  0  0  0  0  0
    5.8131   -1.2683    2.9622 C   0  0  0  0  0  0  0  0  0  0  0  0
    4.6505   -1.3358    2.0198 C   0  0  0  0  0  0  0  0  0  0  0  0
    4.7711   -1.0984    0.8174 O   0  0  0  0  0  0  0  0  0  0  0  0
    3.3178   -1.4975    2.7717 C   0  0  1  0  0  0  0  0  0  0  0  0
    2.1275   -1.1474    1.8457 C   0  0  0  0  0  0  0  0  0  0  0  0
    3.1203   -2.9045    3.4613 C   0  0  0  0  0  0  0  0  0  0  0  0
    3.4624   -4.1226    2.8789 C   0  0  0  0  0  0  0  0  0  0  0  0
    3.8287   -4.3794    1.4584 C   0  0  0  0  0  0  0  0  0  0  0  0
    3.6627   -3.6560    0.4836 O   0  0  0  0  0  0  0  0  0  0  0  0
    4.2496   -5.8273    1.2380 C   0  0  1  0  0  0  0  0  0  0  0  0
    5.7422   -5.9556    0.9460 C   0  0  0  0  0  0  0  0  0  0  0  0
    3.8652   -6.4020    2.5691 C   0  0  0  0  0  0  0  0  0  0  0  0
    3.4429   -5.4937    3.4471 C   0  0  0  0  0  0  0  0  0  0  0  0
    2.9628   -5.8704    4.8292 C   0  0  2  0  0  0  0  0  0  0  0  0
    3.8406   -6.2710    5.9985 C   0  0  0  0  0  0  0  0  0  0  0  0
    3.9855   -5.3995    7.0236 C   0  0  0  0  0  0  0  0  0  0  0  0
    4.8129   -5.6845    8.2602 C   0  0  0  0  0  0  0  0  0  0  0  0
    3.3570   -3.9919    6.8986 C   0  0  0  0  0  0  0  0  0  0  0  0
    2.1102   -3.8472    5.8978 C   0  0  2  0  0  0  0  0  0  0  0  0
    0.9324   -3.5847    6.8334 C   0  0  0  0  0  0  0  0  0  0  0  0
    0.2938   -4.7034    7.1957 C   0  0  0  0  0  0  0  0  0  0  0  0
   -0.8426   -4.9119    8.1757 C   0  0  0  0  0  0  0  0  0  0  0  0
    0.8754   -5.8085    6.4401 C   0  0  0  0  0  0  0  0  0  0  0  0
    0.7352   -7.0109    6.6463 O   0  0  0  0  0  0  0  0  0  0  0  0
    1.6469   -5.1944    5.2538 C   0  0  2  0  0  0  0  0  0  0  0  0
    0.5947   -5.0684    4.0872 C   0  0  0  0  0  0  0  0  0  0  0  0
   -0.0891   -6.3781    3.6791 C   0  0  0  0  0  0  0  0  0  0  0  0
    0.0079   -7.0476    2.5123 C   0  0  0  0  0  0  0  0  0  0  0  0
    0.8325   -6.6069    1.3161 C   0  0  0  0  0  0  0  0  0  0  0  0
   -0.7149   -8.3608    2.2907 C   0  0  0  0  0  0  0  0  0  0  0  0
    2.3229   -2.7178    4.8265 C   0  0  1  0  0  0  0  0  0  0  0  0
    2.7589   -1.6211    5.6230 O   0  0  0  0  0  0  0  0  0  0  0  0
    2.7402   -0.3297    5.0604 C   0  0  0  0  0  0  0  0  0  0  0  0
    1.2967    0.1493    4.7755 C   0  0  0  0  0  0  0  0  0  0  0  0
    3.2981    0.5802    6.1736 C   0  0  0  0  0  0  0  0  0  0  0  0
    3.6598   -0.3927    3.8225 C   0  0  1  0  0  0  0  0  0  0  0  0
    7.4708    1.6321    5.0786 H   0  0  0  0  0  0  0  0  0  0  0  0
    7.7854    0.1642    4.1862 H   0  0  0  0  0  0  0  0  0  0  0  0
    7.1648    0.0789    5.8475 H   0  0  0  0  0  0  0  0  0  0  0  0
    5.2811   -1.2519    5.0358 H   0  0  0  0  0  0  0  0  0  0  0  0
    6.6190   -0.6944    2.5114 H   0  0  0  0  0  0  0  0  0  0  0  0
    6.1512   -2.2808    3.1814 H   0  0  0  0  0  0  0  0  0  0  0  0
    1.1745   -1.4925    2.2328 H   0  0  0  0  0  0  0  0  0  0  0  0
    2.2184   -1.6154    0.8689 H   0  0  0  0  0  0  0  0  0  0  0  0
    2.0466   -0.0770    1.6580 H   0  0  0  0  0  0  0  0  0  0  0  0
    6.3237   -5.4751    1.7301 H   0  0  0  0  0  0  0  0  0  0  0  0
    5.9907   -5.4744    0.0013 H   0  0  0  0  0  0  0  0  0  0  0  0
    6.0445   -7.0008    0.8888 H   0  0  0  0  0  0  0  0  0  0  0  0
    3.9010   -7.4631    2.7624 H   0  0  0  0  0  0  0  0  0  0  0  0
    3.6489   -6.2714    0.4429 H   0  0  0  0  0  0  0  0  0  0  0  0
    3.6955   -5.0784    4.8582 H   0  0  0  0  0  0  0  0  0  0  0  0
    4.2651   -7.2630    6.0182 H   0  0  0  0  0  0  0  0  0  0  0  0
    5.5796   -4.9198    8.4012 H   0  0  0  0  0  0  0  0  0  0  0  0
    5.3098   -6.6526    8.1762 H   0  0  0  0  0  0  0  0  0  0  0  0
    4.1825   -5.7071    9.1505 H   0  0  0  0  0  0  0  0  0  0  0  0
    3.1031   -3.6235    7.8957 H   0  0  0  0  0  0  0  0  0  0  0  0
    4.1785   -3.3568    6.5544 H   0  0  0  0  0  0  0  0  0  0  0  0
    0.7124   -2.5893    7.2011 H   0  0  0  0  0  0  0  0  0  0  0  0
   -1.6745   -5.4235    7.6929 H   0  0  0  0  0  0  0  0  0  0  0  0
   -1.2014   -3.9729    8.5951 H   0  0  0  0  0  0  0  0  0  0  0  0
   -0.4939   -5.5400    8.9934 H   0  0  0  0  0  0  0  0  0  0  0  0
   -0.2006   -4.4050    4.4190 H   0  0  0  0  0  0  0  0  0  0  0  0
    0.9863   -4.5531    3.2175 H   0  0  0  0  0  0  0  0  0  0  0  0
   -0.7232   -6.8152    4.4372 H   0  0  0  0  0  0  0  0  0  0  0  0
    1.6320   -7.3320    1.1652 H   0  0  0  0  0  0  0  0  0  0  0  0
    1.2811   -5.6268    1.4335 H   0  0  0  0  0  0  0  0  0  0  0  0
    0.2230   -6.5953    0.4132 H   0  0  0  0  0  0  0  0  0  0  0  0
   -1.3836   -8.2878    1.4314 H   0  0  0  0  0  0  0  0  0  0  0  0
   -1.3004   -8.6684    3.1617 H   0  0  0  0  0  0  0  0  0  0  0  0
    0.0100   -9.1497    2.0817 H   0  0  0  0  0  0  0  0  0  0  0  0
    1.3203   -2.4770    4.4777 H   0  0  0  0  0  0  0  0  0  0  0  0
    1.2981    1.1757    4.4124 H   0  0  0  0  0  0  0  0  0  0  0  0
    0.6982    0.1215    5.6856 H   0  0  0  0  0  0  0  0  0  0  0  0
    0.7633   -0.4412    4.0390 H   0  0  0  0  0  0  0  0  0  0  0  0
    3.4264    1.6033    5.8214 H   0  0  0  0  0  0  0  0  0  0  0  0
    4.2587    0.2308    6.5536 H   0  0  0  0  0  0  0  0  0  0  0  0
    2.6188    0.6045    7.0253 H   0  0  0  0  0  0  0  0  0  0  0  0
    3.5780    0.5774    3.3252 H   0  0  0  0  0  0  0  0  0  0  0  0
  1  2  1  0
  1 40  1  0
  1 41  1  0
  1 42  1  0
  2  3  1  0
  3 39  1  0
  3  4  1  0
  3 43  1  1
  4  5  1  0
  4 44  1  0
  4 45  1  0
  5  6  2  0
  5  7  1  0
  7 39  1  0
  7  8  1  6
  7  9  1  0
  8 46  1  0
  8 47  1  0
  8 48  1  0
  9 10  2  0
  9 34  1  0
 10 16  1  0
 10 11  1  0
 11 12  2  0
 11 13  1  0
 13 14  1  0
 13 53  1  6
 13 15  1  0
 14 49  1  0
 14 50  1  0
 14 51  1  0
 15 16  2  0
 15 52  1  0
 16 17  1  0
 17 28  1  0
 17 18  1  0
 17 54  1  6
 18 19  2  0
 18 55  1  0
 19 20  1  0
 19 21  1  0
 20 56  1  0
 20 57  1  0
 20 58  1  0
 22 21  1  1
 21 59  1  0
 21 60  1  0
 22 28  1  0
 22 23  1  0
 22 34  1  0
 23 24  2  0
 23 61  1  0
 24 25  1  0
 24 26  1  0
 25 62  1  0
 25 63  1  0
 25 64  1  0
 26 27  2  0
 26 28  1  0
 28 29  1  6
 29 30  1  0
 29 65  1  0
 29 66  1  0
 30 31  2  3
 30 67  1  0
 31 32  1  0
 31 33  1  0
 32 68  1  0
 32 69  1  0
 32 70  1  0
 33 71  1  0
 33 72  1  0
 33 73  1  0
 34 35  1  0
 34 74  1  6
 35 36  1  0
 36 37  1  0
 36 38  1  0
 36 39  1  0
 37 75  1  0
 37 76  1  0
 37 77  1  0
 38 78  1  0
 38 79  1  0
 38 80  1  0
 39 81  1  6
M  END
>  <i_m_ct_stereo_status>  (325) 
1

>  <s_m_source_file>  (325) 
/var/tmp/pbs.5076255.sched01/tmpm28zzdm2/1449lyhn0we.sdf

>  <i_m_source_file_index>  (325) 
2

>  <i_lp_mmshare_version>  (325) 
48012

>  <i_f3d_flags>  (325) 
0

>  <s_epik_input>  (325) 
Tz1DMVtDSDJdW0NAQEhdKE9bQ0gzXSlbQ0BIXShDKFtDSDNdKShbQ0gzXSlPW0NAQEhdMjMpW0NAXTEoW0NIM10pQzI9QyhDKD1PKUMoW0NIM10pPVtDSF00KVtDQEhdNFtDQEBIXShbQ0hdPUMoW0NIM10pW0NIMl01KVtDQF0oW0NAXTM1NikoQyg9TylDKD1bQ0hdNilbQ0gzXSlbQ0gyXVtDSF09QyhbQ0gzXSlbQ0gzXQ==

>  <s_epik_cmdline>  (325) 
J2VwaWtfcHl0aG9uJywgJy1waHQnLCAnMi4wJywgJy1waCcsICc3LjAnLCAnLXRuJywgJzgnLCAnLW1hJywgJzIwMCcsICctaW1hZScsICc8aW5maWxlLm1hZT4nLCAnLW9tYWUnLCAnPG91dGZpbGUubWFlPic=

>  <r_lp_tautomer_probability>  (325) 
0.0484977

>  <r_epik_Ionization_Penalty>  (325) 
2.48361e-10

>  <r_epik_Ionization_Penalty_Charging>  (325) 
0

>  <r_epik_Ionization_Penalty_Neutral>  (325) 
2.48361e-10

>  <r_epik_State_Penalty>  (325) 
1.90605

>  <r_epik_Charging_Adjusted_Penalty>  (325) 
1.90605

>  <i_epik_Tot_Q>  (325) 
0

>  <i_epik_Tot_abs_Q>  (325) 
0

>  <s_lp_Force_Field>  (325) 
OPLS3e

>  <r_lp_Energy>  (325) 
108.095

>  <b_lp_Chiralities_Consistent>  (325) 
1

>  <s_lp_Variant>  (325) 
95:0-2

>  <s_i_glide_gridfile>  (325) 
pfpi4k_grid

>  <i_i_glide_lignum>  (325) 
2

>  <i_i_glide_rotatable_bonds>  (325) 
3

>  <r_i_docking_score>  (325) 
-1.74859

>  <r_i_glide_ligand_efficiency>  (325) 
-0.0448356

>  <r_i_glide_ligand_efficiency_sa>  (325) 
-0.152047

>  <r_i_glide_ligand_efficiency_ln>  (325) 
-0.374947

>  <r_i_glide_gscore>  (325) 
-1.74859

>  <r_i_glide_lipo>  (325) 
-0.586101

>  <r_i_glide_hbond>  (325) 
0

>  <r_i_glide_metal>  (325) 
-0

>  <r_i_glide_rewards>  (325) 
-0.084428

>  <r_i_glide_evdw>  (325) 
-24.6998

>  <r_i_glide_ecoul>  (325) 
0.0769545

>  <r_i_glide_erotb>  (325) 
0.146397

>  <r_i_glide_esite>  (325) 
-0.00100716

>  <r_i_glide_emodel>  (325) 
-26.619

>  <r_i_glide_energy>  (325) 
-24.6229

>  <r_i_glide_einternal>  (325) 
0.822388

>  <r_i_glide_intrahb_reward>  (325) 
-0

>  <i_i_glide_confnum>  (325) 
4

>  <i_i_glide_posenum>  (325) 
2

>  <r_i_glide_eff_state_penalty>  (325) 
0

>  <ligand_id>  (325) 
95

>  <original_smiles>  (325) 
COC1CC(=O)C2(C)C3=C4C(=O)C(C)=CC4C4C=C(C)CC5(C=C(C)C(=O)C45CC=C(C)C)C3OC(C)(C)C12

>  <smiles>  (325) 
[H]C(=C(C([H])([H])[H])C([H])([H])[H])C([H])([H])C12C(=O)C(C([H])([H])[H])=C([H])C13C([H])([H])C(C([H])([H])[H])=C([H])C2([H])C1=C([H])C([H])(C([H])([H])[H])C(=O)C1=C1C3([H])OC(C([H])([H])[H])(C([H])([H])[H])C2([H])C([H])(OC([H])([H])[H])C([H])([H])C(=O)C12C([H])([H])[H]

$$$$
95:1:2
     RDKit          3D

 81 86  0  0  1  0  0  0  0  0999 V2000
    8.5855   -5.9150    0.9562 C   0  0  0  0  0  0  0  0  0  0  0  0
    7.2928   -5.5853    0.4667 O   0  0  0  0  0  0  0  0  0  0  0  0
    6.2915   -5.5408    1.4731 C   0  0  2  0  0  0  0  0  0  0  0  0
    5.9633   -6.9511    1.9958 C   0  0  0  0  0  0  0  0  0  0  0  0
    4.5431   -7.0753    1.5629 C   0  0  0  0  0  0  0  0  0  0  0  0
    4.0913   -8.1295    1.0770 O   0  0  0  0  0  0  0  0  0  0  0  0
    3.8080   -5.7384    1.5825 C   0  0  1  0  0  0  0  0  0  0  0  0
    2.4882   -5.8198    0.7737 C   0  0  0  0  0  0  0  0  0  0  0  0
    3.5718   -5.1556    3.0217 C   0  0  0  0  0  0  0  0  0  0  0  0
    3.1728   -5.9295    4.1113 C   0  0  0  0  0  0  0  0  0  0  0  0
    2.6826   -7.3252    4.0916 C   0  0  0  0  0  0  0  0  0  0  0  0
    2.2328   -7.9700    3.1532 O   0  0  0  0  0  0  0  0  0  0  0  0
    2.4580   -7.8591    5.5114 C   0  0  1  0  0  0  0  0  0  0  0  0
    3.4360   -8.9566    5.9275 C   0  0  0  0  0  0  0  0  0  0  0  0
    2.6198   -6.5753    6.2882 C   0  0  0  0  0  0  0  0  0  0  0  0
    2.9861   -5.5518    5.5388 C   0  0  0  0  0  0  0  0  0  0  0  0
    3.1530   -4.1547    6.0948 C   0  0  2  0  0  0  0  0  0  0  0  0
    4.3094   -3.6897    6.9635 C   0  0  0  0  0  0  0  0  0  0  0  0
    5.2218   -2.8602    6.4138 C   0  0  0  0  0  0  0  0  0  0  0  0
    6.4287   -2.3237    7.1610 C   0  0  0  0  0  0  0  0  0  0  0  0
    5.1110   -2.5151    4.9091 C   0  0  0  0  0  0  0  0  0  0  0  0
    3.6601   -2.6411    4.2376 C   0  0  2  0  0  0  0  0  0  0  0  0
    3.2802   -1.1915    3.9587 C   0  0  0  0  0  0  0  0  0  0  0  0
    2.5869   -0.6340    4.9455 C   0  0  0  0  0  0  0  0  0  0  0  0
    2.1202    0.8126    5.1075 C   0  0  0  0  0  0  0  0  0  0  0  0
    2.3031   -1.6642    5.9358 C   0  0  0  0  0  0  0  0  0  0  0  0
    1.8886   -1.5197    7.0932 O   0  0  0  0  0  0  0  0  0  0  0  0
    2.5219   -3.0254    5.2543 C   0  0  2  0  0  0  0  0  0  0  0  0
    1.1235   -3.3967    4.6126 C   0  0  0  0  0  0  0  0  0  0  0  0
   -0.0119   -3.5950    5.6329 C   0  0  0  0  0  0  0  0  0  0  0  0
   -0.6628   -4.7334    5.9563 C   0  0  0  0  0  0  0  0  0  0  0  0
   -0.4371   -6.1006    5.3488 C   0  0  0  0  0  0  0  0  0  0  0  0
   -1.7349   -4.7751    7.0137 C   0  0  0  0  0  0  0  0  0  0  0  0
    3.6516   -3.5649    2.9754 C   0  0  1  0  0  0  0  0  0  0  0  0
    4.7614   -3.0665    2.2260 O   0  0  0  0  0  0  0  0  0  0  0  0
    4.8770   -3.4383    0.8766 C   0  0  0  0  0  0  0  0  0  0  0  0
    3.7314   -2.8389    0.0244 C   0  0  0  0  0  0  0  0  0  0  0  0
    6.1793   -2.7675    0.4146 C   0  0  0  0  0  0  0  0  0  0  0  0
    4.9653   -4.9818    0.8649 C   0  0  1  0  0  0  0  0  0  0  0  0
    9.2868   -5.9193    0.1282 H   0  0  0  0  0  0  0  0  0  0  0  0
    8.6124   -6.9045    1.4128 H   0  0  0  0  0  0  0  0  0  0  0  0
    8.9271   -5.1845    1.6912 H   0  0  0  0  0  0  0  0  0  0  0  0
    6.5990   -4.9344    2.3319 H   0  0  0  0  0  0  0  0  0  0  0  0
    6.5540   -7.7370    1.5315 H   0  0  0  0  0  0  0  0  0  0  0  0
    6.0517   -7.0279    3.0860 H   0  0  0  0  0  0  0  0  0  0  0  0
    1.8056   -4.9933    0.9639 H   0  0  0  0  0  0  0  0  0  0  0  0
    1.9063   -6.7226    0.9845 H   0  0  0  0  0  0  0  0  0  0  0  0
    2.6711   -5.8436   -0.2966 H   0  0  0  0  0  0  0  0  0  0  0  0
    4.4553   -8.6161    5.8095 H   0  0  0  0  0  0  0  0  0  0  0  0
    3.2771   -9.8422    5.3148 H   0  0  0  0  0  0  0  0  0  0  0  0
    3.2656   -9.2408    6.9656 H   0  0  0  0  0  0  0  0  0  0  0  0
    2.4343   -6.5162    7.3426 H   0  0  0  0  0  0  0  0  0  0  0  0
    1.4319   -8.2309    5.5932 H   0  0  0  0  0  0  0  0  0  0  0  0
    4.0145   -4.4578    5.5064 H   0  0  0  0  0  0  0  0  0  0  0  0
    4.3231   -3.9838    7.9999 H   0  0  0  0  0  0  0  0  0  0  0  0
    7.3597   -2.5847    6.6483 H   0  0  0  0  0  0  0  0  0  0  0  0
    6.4611   -2.7344    8.1729 H   0  0  0  0  0  0  0  0  0  0  0  0
    6.3622   -1.2363    7.2306 H   0  0  0  0  0  0  0  0  0  0  0  0
    5.5247   -1.5125    4.7492 H   0  0  0  0  0  0  0  0  0  0  0  0
    5.8028   -3.2105    4.4097 H   0  0  0  0  0  0  0  0  0  0  0  0
    3.6306   -0.6799    3.0581 H   0  0  0  0  0  0  0  0  0  0  0  0
    1.0486    0.8377    5.2732 H   0  0  0  0  0  0  0  0  0  0  0  0
    2.3450    1.4132    4.2289 H   0  0  0  0  0  0  0  0  0  0  0  0
    2.6119    1.2632    5.9638 H   0  0  0  0  0  0  0  0  0  0  0  0
    0.7841   -2.5691    3.9921 H   0  0  0  0  0  0  0  0  0  0  0  0
    1.1975   -4.2294    3.9060 H   0  0  0  0  0  0  0  0  0  0  0  0
   -0.2841   -2.6866    6.1441 H   0  0  0  0  0  0  0  0  0  0  0  0
   -0.0926   -6.7212    6.1779 H   0  0  0  0  0  0  0  0  0  0  0  0
    0.3118   -6.0670    4.5693 H   0  0  0  0  0  0  0  0  0  0  0  0
   -1.3616   -6.5338    4.9402 H   0  0  0  0  0  0  0  0  0  0  0  0
   -2.6400   -5.2082    6.5766 H   0  0  0  0  0  0  0  0  0  0  0  0
   -1.9665   -3.7905    7.4360 H   0  0  0  0  0  0  0  0  0  0  0  0
   -1.4067   -5.4382    7.8188 H   0  0  0  0  0  0  0  0  0  0  0  0
    2.7478   -3.2756    2.4375 H   0  0  0  0  0  0  0  0  0  0  0  0
    3.8953   -3.0783   -1.0230 H   0  0  0  0  0  0  0  0  0  0  0  0
    3.7101   -1.7523    0.1248 H   0  0  0  0  0  0  0  0  0  0  0  0
    2.7403   -3.1950    0.2813 H   0  0  0  0  0  0  0  0  0  0  0  0
    6.4213   -3.0715   -0.6034 H   0  0  0  0  0  0  0  0  0  0  0  0
    7.0278   -3.0158    1.0584 H   0  0  0  0  0  0  0  0  0  0  0  0
    6.0746   -1.6809    0.4324 H   0  0  0  0  0  0  0  0  0  0  0  0
    4.9439   -5.2722   -0.1848 H   0  0  0  0  0  0  0  0  0  0  0  0
  1  2  1  0
  1 40  1  0
  1 41  1  0
  1 42  1  0
  2  3  1  0
  3 39  1  0
  3  4  1  0
  3 43  1  1
  4  5  1  0
  4 44  1  0
  4 45  1  0
  5  6  2  0
  5  7  1  0
  7 39  1  0
  7  8  1  6
  7  9  1  0
  8 46  1  0
  8 47  1  0
  8 48  1  0
  9 10  2  0
  9 34  1  0
 10 16  1  0
 10 11  1  0
 11 12  2  0
 11 13  1  0
 13 14  1  0
 13 53  1  6
 13 15  1  0
 14 49  1  0
 14 50  1  0
 14 51  1  0
 15 16  2  0
 15 52  1  0
 16 17  1  0
 17 28  1  0
 17 18  1  0
 17 54  1  1
 18 19  2  0
 18 55  1  0
 19 20  1  0
 19 21  1  0
 20 56  1  0
 20 57  1  0
 20 58  1  0
 22 21  1  1
 21 59  1  0
 21 60  1  0
 22 28  1  0
 22 23  1  0
 22 34  1  0
 23 24  2  0
 23 61  1  0
 24 25  1  0
 24 26  1  0
 25 62  1  0
 25 63  1  0
 25 64  1  0
 26 27  2  0
 26 28  1  0
 28 29  1  6
 29 30  1  0
 29 65  1  0
 29 66  1  0
 30 31  2  3
 30 67  1  0
 31 32  1  0
 31 33  1  0
 32 68  1  0
 32 69  1  0
 32 70  1  0
 33 71  1  0
 33 72  1  0
 33 73  1  0
 34 35  1  0
 34 74  1  6
 35 36  1  0
 36 37  1  0
 36 38  1  0
 36 39  1  0
 37 75  1  0
 37 76  1  0
 37 77  1  0
 38 78  1  0
 38 79  1  0
 38 80  1  0
 39 81  1  6
M  END
>  <i_m_ct_stereo_status>  (326) 
1

>  <s_m_source_file>  (326) 
/var/tmp/pbs.5076255.sched01/tmpm28zzdm2/1449lyhn0we.sdf

>  <i_m_source_file_index>  (326) 
2

>  <i_lp_mmshare_version>  (326) 
48012

>  <i_f3d_flags>  (326) 
0

>  <s_epik_input>  (326) 
Tz1DMVtDSDJdW0NAQEhdKE9bQ0gzXSlbQ0BIXShDKFtDSDNdKShbQ0gzXSlPW0NAQEhdMjMpW0NAXTEoW0NIM10pQzI9QyhDKD1PKUMoW0NIM10pPVtDSF00KVtDQEhdNFtDQEBIXShbQ0hdPUMoW0NIM10pW0NIMl01KVtDQF0oW0NAXTM1NikoQyg9TylDKD1bQ0hdNilbQ0gzXSlbQ0gyXVtDSF09QyhbQ0gzXSlbQ0gzXQ==

>  <s_epik_cmdline>  (326) 
J2VwaWtfcHl0aG9uJywgJy1waHQnLCAnMi4wJywgJy1waCcsICc3LjAnLCAnLXRuJywgJzgnLCAnLW1hJywgJzIwMCcsICctaW1hZScsICc8aW5maWxlLm1hZT4nLCAnLW9tYWUnLCAnPG91dGZpbGUubWFlPic=

>  <r_lp_tautomer_probability>  (326) 
0.0484977

>  <r_epik_Ionization_Penalty>  (326) 
2.48361e-10

>  <r_epik_Ionization_Penalty_Charging>  (326) 
0

>  <r_epik_Ionization_Penalty_Neutral>  (326) 
2.48361e-10

>  <r_epik_State_Penalty>  (326) 
1.90605

>  <r_epik_Charging_Adjusted_Penalty>  (326) 
1.90605

>  <i_epik_Tot_Q>  (326) 
0

>  <i_epik_Tot_abs_Q>  (326) 
0

>  <s_lp_Force_Field>  (326) 
OPLS3e

>  <r_lp_Energy>  (326) 
108.095

>  <b_lp_Chiralities_Consistent>  (326) 
1

>  <s_lp_Variant>  (326) 
95:0-2

>  <s_i_glide_gridfile>  (326) 
pfpi4k_grid

>  <i_i_glide_lignum>  (326) 
2

>  <i_i_glide_rotatable_bonds>  (326) 
3

>  <r_i_docking_score>  (326) 
-1.71513

>  <r_i_glide_ligand_efficiency>  (326) 
-0.0439778

>  <r_i_glide_ligand_efficiency_sa>  (326) 
-0.149138

>  <r_i_glide_ligand_efficiency_ln>  (326) 
-0.367773

>  <r_i_glide_gscore>  (326) 
-1.71513

>  <r_i_glide_lipo>  (326) 
-0.453208

>  <r_i_glide_hbond>  (326) 
0

>  <r_i_glide_metal>  (326) 
-0

>  <r_i_glide_rewards>  (326) 
-0.0949304

>  <r_i_glide_evdw>  (326) 
-22.5181

>  <r_i_glide_ecoul>  (326) 
-1.24704

>  <r_i_glide_erotb>  (326) 
0.146397

>  <r_i_glide_esite>  (326) 
-0.00042818

>  <r_i_glide_emodel>  (326) 
-25.2579

>  <r_i_glide_energy>  (326) 
-23.7652

>  <r_i_glide_einternal>  (326) 
0.505863

>  <r_i_glide_intrahb_reward>  (326) 
-0

>  <i_i_glide_confnum>  (326) 
3

>  <i_i_glide_posenum>  (326) 
13

>  <r_i_glide_eff_state_penalty>  (326) 
0

>  <ligand_id>  (326) 
95

>  <original_smiles>  (326) 
COC1CC(=O)C2(C)C3=C4C(=O)C(C)=CC4C4C=C(C)CC5(C=C(C)C(=O)C45CC=C(C)C)C3OC(C)(C)C12

>  <smiles>  (326) 
[H]C(=C(C([H])([H])[H])C([H])([H])[H])C([H])([H])C12C(=O)C(C([H])([H])[H])=C([H])C13C([H])([H])C(C([H])([H])[H])=C([H])C2([H])C1=C([H])C([H])(C([H])([H])[H])C(=O)C1=C1C3([H])OC(C([H])([H])[H])(C([H])([H])[H])C2([H])C([H])(OC([H])([H])[H])C([H])([H])C(=O)C12C([H])([H])[H]

$$$$
96:0:0
     RDKit          3D

 47 52  0  0  1  0  0  0  0  0999 V2000
    2.4869   -3.4478   -3.7246 C   0  0  0  0  0  0  0  0  0  0  0  0
    3.2197   -2.2323   -3.4573 N   0  0  0  0  0  0  0  0  0  0  0  0
    2.9855   -0.9994   -4.0563 C   0  0  0  0  0  0  0  0  0  0  0  0
    3.8776   -0.1370   -3.5027 C   0  0  0  0  0  0  0  0  0  0  0  0
    4.7111   -0.8117   -2.6289 N   0  0  0  0  0  0  0  0  0  0  0  0
    4.2265   -2.0482   -2.5809 C   0  0  0  0  0  0  0  0  0  0  0  0
    4.8294   -3.2855   -1.4713 S   0  0  0  0  0  0  0  0  0  0  0  0
    4.5381   -2.6276    0.1656 C   0  0  0  0  0  0  0  0  0  0  0  0
    3.8873   -3.3897    1.0607 C   0  0  0  0  0  0  0  0  0  0  0  0
    3.5677   -3.0409    2.5082 C   0  0  2  0  0  0  0  0  0  0  0  0
    2.0799   -2.7524    2.7748 C   0  0  1  0  0  0  0  0  0  0  0  0
    1.7716   -3.0197    4.2907 C   0  0  1  0  0  0  0  0  0  0  0  0
    2.6945   -3.9683    5.0877 C   0  0  0  0  0  0  0  0  0  0  0  0
    3.9604   -3.1285    5.3951 C   0  0  0  0  0  0  0  0  0  0  0  0
    3.7028   -1.7681    4.7163 C   0  0  2  0  0  0  0  0  0  0  0  0
    4.3701   -0.7538    5.4331 O   0  0  0  0  0  0  0  0  0  0  0  0
    2.1544   -1.6806    4.8786 C   0  0  1  0  0  0  0  0  0  0  0  0
    1.4205   -0.7098    3.9692 C   0  0  0  0  0  0  0  0  0  0  0  0
    1.9405   -1.1798    2.6093 C   0  0  1  0  0  0  0  0  0  0  0  0
    3.3864   -0.6445    2.4733 N   0  0  2  0  0  0  0  0  0  0  0  0
    3.5987    0.5320    3.1245 O   0  0  0  0  0  0  0  0  0  0  0  0
    3.7574   -0.4204    0.9959 C   0  0  0  0  0  0  0  0  0  0  0  0
    4.9849   -1.2137    0.5053 C   0  0  0  0  0  0  0  0  0  0  0  0
    4.1398   -1.7702    3.1829 C   0  0  2  0  0  0  0  0  0  0  0  0
    1.5920   -3.2201   -4.3077 H   0  0  0  0  0  0  0  0  0  0  0  0
    2.1816   -3.9310   -2.7942 H   0  0  0  0  0  0  0  0  0  0  0  0
    3.1255   -4.1236   -4.2935 H   0  0  0  0  0  0  0  0  0  0  0  0
    2.1761   -0.8438   -4.7571 H   0  0  0  0  0  0  0  0  0  0  0  0
    3.9777    0.9395   -3.6362 H   0  0  0  0  0  0  0  0  0  0  0  0
    3.5848   -4.3873    0.7713 H   0  0  0  0  0  0  0  0  0  0  0  0
    3.9536   -3.9364    2.9868 H   0  0  0  0  0  0  0  0  0  0  0  0
    1.4152   -3.3262    2.1324 H   0  0  0  0  0  0  0  0  0  0  0  0
    0.7175   -3.2468    4.4419 H   0  0  0  0  0  0  0  0  0  0  0  0
    2.2207   -4.2443    6.0299 H   0  0  0  0  0  0  0  0  0  0  0  0
    2.9087   -4.9020    4.5711 H   0  0  0  0  0  0  0  0  0  0  0  0
    4.0455   -2.9927    6.4721 H   0  0  0  0  0  0  0  0  0  0  0  0
    4.8876   -3.5943    5.0585 H   0  0  0  0  0  0  0  0  0  0  0  0
    4.2013    0.0500    4.9488 H   0  0  0  0  0  0  0  0  0  0  0  0
    1.8625   -1.5802    5.9219 H   0  0  0  0  0  0  0  0  0  0  0  0
    0.3442   -0.8735    4.0357 H   0  0  0  0  0  0  0  0  0  0  0  0
    1.5847    0.3420    4.2118 H   0  0  0  0  0  0  0  0  0  0  0  0
    1.3200   -0.8376    1.7779 H   0  0  0  0  0  0  0  0  0  0  0  0
    2.8759   -0.6048    0.3726 H   0  0  0  0  0  0  0  0  0  0  0  0
    3.9637    0.6427    0.8881 H   0  0  0  0  0  0  0  0  0  0  0  0
    5.8180   -1.2138    1.2159 H   0  0  0  0  0  0  0  0  0  0  0  0
    5.4133   -0.6792   -0.3376 H   0  0  0  0  0  0  0  0  0  0  0  0
    5.2105   -1.6371    3.0747 H   0  0  0  0  0  0  0  0  0  0  0  0
  1  2  1  0
  1 25  1  0
  1 26  1  0
  1 27  1  0
  2  6  1  0
  2  3  1  0
  3  4  2  0
  3 28  1  0
  4  5  1  0
  4 29  1  0
  5  6  2  0
  6  7  1  0
  7  8  1  0
  8 23  1  0
  8  9  2  0
  9 10  1  0
  9 30  1  0
 10 24  1  0
 10 11  1  0
 10 31  1  1
 11 19  1  0
 11 12  1  0
 11 32  1  6
 12 17  1  0
 12 13  1  0
 12 33  1  6
 13 14  1  0
 13 34  1  0
 13 35  1  0
 14 15  1  0
 14 36  1  0
 14 37  1  0
 15 24  1  0
 15 16  1  1
 15 17  1  0
 16 38  1  0
 17 18  1  0
 17 39  1  1
 18 19  1  0
 18 40  1  0
 18 41  1  0
 19 20  1  0
 19 42  1  6
 20 21  1  1
 20 22  1  0
 20 24  1  0
 22 23  1  0
 22 43  1  0
 22 44  1  0
 23 45  1  0
 23 46  1  0
 24 47  1  1
M  CHG  2  20   1  21  -1
M  END
>  <i_m_ct_stereo_status>  (327) 
1

>  <s_m_source_file>  (327) 
/var/tmp/pbs.5076255.sched01/tmpm28zzdm2/1449lyhn0we.sdf

>  <i_m_source_file_index>  (327) 
3

>  <i_lp_mmshare_version>  (327) 
48012

>  <i_f3d_flags>  (327) 
0

>  <s_epik_input>  (327) 
W0NIM11uMVtjSF1bY0hdbmMxU0MoPVtDSF0yKVtDSDJdW0NIMl1bTkBAK10oW08tXSkoW0NAQEhdM1tDSDJdNClbQ0BASF01W0NASF0yW0NASF0zW0NAQEhdKFtDSDJdW0NIMl02KVtDQEhdNFtDQF01NltPSF0=

>  <s_epik_cmdline>  (327) 
J2VwaWtfcHl0aG9uJywgJy1waHQnLCAnMi4wJywgJy1waCcsICc3LjAnLCAnLXRuJywgJzgnLCAnLW1hJywgJzIwMCcsICctaW1hZScsICc8aW5maWxlLm1hZT4nLCAnLW9tYWUnLCAnPG91dGZpbGUubWFlPic=

>  <r_lp_tautomer_probability>  (327) 
1

>  <r_epik_Ionization_Penalty>  (327) 
0.0290237

>  <r_epik_Ionization_Penalty_Charging>  (327) 
0.0290232

>  <r_epik_Ionization_Penalty_Neutral>  (327) 
4.23999e-07

>  <r_epik_State_Penalty>  (327) 
0.0225527

>  <r_epik_Charging_Adjusted_Penalty>  (327) 
0.051576

>  <i_epik_Tot_Q>  (327) 
0

>  <i_epik_Tot_abs_Q>  (327) 
2

>  <s_lp_Force_Field>  (327) 
OPLS3e

>  <r_lp_Energy>  (327) 
73.7848

>  <b_lp_Chiralities_Consistent>  (327) 
1

>  <s_lp_Variant>  (327) 
96:0-1

>  <s_i_glide_gridfile>  (327) 
pfpi4k_grid

>  <i_i_glide_lignum>  (327) 
3

>  <i_i_glide_rotatable_bonds>  (327) 
3

>  <r_i_docking_score>  (327) 
-3.84313

>  <r_i_glide_ligand_efficiency>  (327) 
-0.16013

>  <r_i_glide_ligand_efficiency_sa>  (327) 
-0.461896

>  <r_i_glide_ligand_efficiency_ln>  (327) 
-0.919837

>  <r_i_glide_gscore>  (327) 
-3.84313

>  <r_i_glide_lipo>  (327) 
-0.561684

>  <r_i_glide_hbond>  (327) 
0

>  <r_i_glide_metal>  (327) 
-0

>  <r_i_glide_rewards>  (327) 
-1.86104

>  <r_i_glide_evdw>  (327) 
-25.2274

>  <r_i_glide_ecoul>  (327) 
-3.17976

>  <r_i_glide_erotb>  (327) 
0.318412

>  <r_i_glide_esite>  (327) 
-0.000480875

>  <r_i_glide_emodel>  (327) 
-40.4803

>  <r_i_glide_energy>  (327) 
-28.4072

>  <r_i_glide_einternal>  (327) 
0.881093

>  <r_i_glide_intrahb_reward>  (327) 
-0.5

>  <i_i_glide_confnum>  (327) 
3

>  <i_i_glide_posenum>  (327) 
2

>  <r_i_glide_eff_state_penalty>  (327) 
0

>  <ligand_id>  (327) 
96

>  <original_smiles>  (327) 
Cn1ccnc1SC1=CC2C3C4CCC5(O)C4CC3[N+]([O-])(CC1)C25

>  <smiles>  (327) 
[H]OC12C([H])([H])C([H])([H])C3([H])C1([H])C([H])([H])C1([H])C3([H])C3([H])C([H])=C(Sc4nc([H])c([H])n4C([H])([H])[H])C([H])([H])C([H])([H])[N+]1([O-])C32[H]

$$$$
96:0:1
     RDKit          3D

 47 52  0  0  1  0  0  0  0  0999 V2000
    2.5494   -3.4564   -3.5371 C   0  0  0  0  0  0  0  0  0  0  0  0
    3.2544   -2.2059   -3.3450 N   0  0  0  0  0  0  0  0  0  0  0  0
    3.0805   -1.0515   -4.0954 C   0  0  0  0  0  0  0  0  0  0  0  0
    3.9183   -0.1091   -3.5652 C   0  0  0  0  0  0  0  0  0  0  0  0
    4.6360   -0.6709   -2.5211 N   0  0  0  0  0  0  0  0  0  0  0  0
    4.1812   -1.9152   -2.4182 C   0  0  0  0  0  0  0  0  0  0  0  0
    4.7019   -3.0443   -1.1758 S   0  0  0  0  0  0  0  0  0  0  0  0
    3.7809   -2.4622    0.2239 C   0  0  0  0  0  0  0  0  0  0  0  0
    3.7162   -1.1584    0.5251 C   0  0  0  0  0  0  0  0  0  0  0  0
    2.8739   -0.4785    1.5840 C   0  0  2  0  0  0  0  0  0  0  0  0
    3.6876    0.0899    2.7509 C   0  0  1  0  0  0  0  0  0  0  0  0
    2.8791    1.2592    3.4196 C   0  0  1  0  0  0  0  0  0  0  0  0
    1.8135    2.0080    2.5901 C   0  0  0  0  0  0  0  0  0  0  0  0
    0.5915    1.0544    2.5567 C   0  0  0  0  0  0  0  0  0  0  0  0
    1.0445   -0.2043    3.3358 C   0  0  2  0  0  0  0  0  0  0  0  0
   -0.1134   -0.7574    3.9299 O   0  0  0  0  0  0  0  0  0  0  0  0
    2.0067    0.4662    4.3714 C   0  0  1  0  0  0  0  0  0  0  0  0
    3.0217   -0.4401    5.0463 C   0  0  0  0  0  0  0  0  0  0  0  0
    3.6812   -1.0767    3.8203 C   0  0  1  0  0  0  0  0  0  0  0  0
    2.7019   -2.1514    3.2743 N   0  0  2  0  0  0  0  0  0  0  0  0
    1.9604   -2.7493    4.2377 O   0  0  0  0  0  0  0  0  0  0  0  0
    3.4742   -3.2924    2.5579 C   0  0  0  0  0  0  0  0  0  0  0  0
    3.1444   -3.5245    1.0760 C   0  0  0  0  0  0  0  0  0  0  0  0
    1.8160   -1.2564    2.3955 C   0  0  2  0  0  0  0  0  0  0  0  0
    1.6994   -3.2942   -4.2000 H   0  0  0  0  0  0  0  0  0  0  0  0
    2.1843   -3.8380   -2.5844 H   0  0  0  0  0  0  0  0  0  0  0  0
    3.2173   -4.1882   -3.9843 H   0  0  0  0  0  0  0  0  0  0  0  0
    2.3744   -0.9834   -4.9098 H   0  0  0  0  0  0  0  0  0  0  0  0
    4.0717    0.9196   -3.8573 H   0  0  0  0  0  0  0  0  0  0  0  0
    4.2585   -0.4526   -0.0793 H   0  0  0  0  0  0  0  0  0  0  0  0
    2.4013    0.2683    0.9560 H   0  0  0  0  0  0  0  0  0  0  0  0
    4.6845    0.4105    2.4540 H   0  0  0  0  0  0  0  0  0  0  0  0
    3.5429    1.9504    3.9400 H   0  0  0  0  0  0  0  0  0  0  0  0
    1.5286    2.9332    3.0948 H   0  0  0  0  0  0  0  0  0  0  0  0
    2.1600    2.3030    1.6023 H   0  0  0  0  0  0  0  0  0  0  0  0
   -0.2404    1.5408    3.0695 H   0  0  0  0  0  0  0  0  0  0  0  0
    0.2479    0.8287    1.5443 H   0  0  0  0  0  0  0  0  0  0  0  0
   -0.5514   -1.2699    3.2669 H   0  0  0  0  0  0  0  0  0  0  0  0
    1.4805    1.1062    5.0811 H   0  0  0  0  0  0  0  0  0  0  0  0
    3.7493    0.1611    5.5920 H   0  0  0  0  0  0  0  0  0  0  0  0
    2.5863   -1.1246    5.7726 H   0  0  0  0  0  0  0  0  0  0  0  0
    4.6496   -1.5230    4.0490 H   0  0  0  0  0  0  0  0  0  0  0  0
    4.5461   -3.1404    2.6916 H   0  0  0  0  0  0  0  0  0  0  0  0
    3.2397   -4.2113    3.0990 H   0  0  0  0  0  0  0  0  0  0  0  0
    2.0772   -3.5899    0.8750 H   0  0  0  0  0  0  0  0  0  0  0  0
    3.5562   -4.4921    0.7780 H   0  0  0  0  0  0  0  0  0  0  0  0
    1.1393   -1.8565    1.7922 H   0  0  0  0  0  0  0  0  0  0  0  0
  1  2  1  0
  1 25  1  0
  1 26  1  0
  1 27  1  0
  2  6  1  0
  2  3  1  0
  3  4  2  0
  3 28  1  0
  4  5  1  0
  4 29  1  0
  5  6  2  0
  6  7  1  0
  7  8  1  0
  8 23  1  0
  8  9  2  0
  9 10  1  0
  9 30  1  0
 10 24  1  0
 10 11  1  0
 10 31  1  6
 11 19  1  0
 11 12  1  0
 11 32  1  6
 12 17  1  0
 12 13  1  0
 12 33  1  1
 13 14  1  0
 13 34  1  0
 13 35  1  0
 14 15  1  0
 14 36  1  0
 14 37  1  0
 15 24  1  0
 15 16  1  1
 15 17  1  0
 16 38  1  0
 17 18  1  0
 17 39  1  1
 18 19  1  0
 18 40  1  0
 18 41  1  0
 19 20  1  0
 19 42  1  1
 20 21  1  1
 20 22  1  0
 20 24  1  0
 22 23  1  0
 22 43  1  0
 22 44  1  0
 23 45  1  0
 23 46  1  0
 24 47  1  6
M  CHG  2  20   1  21  -1
M  END
>  <i_m_ct_stereo_status>  (328) 
1

>  <s_m_source_file>  (328) 
/var/tmp/pbs.5076255.sched01/tmpm28zzdm2/1449lyhn0we.sdf

>  <i_m_source_file_index>  (328) 
3

>  <i_lp_mmshare_version>  (328) 
48012

>  <i_f3d_flags>  (328) 
0

>  <s_epik_input>  (328) 
W0NIM11uMVtjSF1bY0hdbmMxU0MoPVtDSF0yKVtDSDJdW0NIMl1bTkBAK10oW08tXSkoW0NAQEhdM1tDSDJdNClbQ0BASF01W0NASF0yW0NASF0zW0NAQEhdKFtDSDJdW0NIMl02KVtDQEhdNFtDQF01NltPSF0=

>  <s_epik_cmdline>  (328) 
J2VwaWtfcHl0aG9uJywgJy1waHQnLCAnMi4wJywgJy1waCcsICc3LjAnLCAnLXRuJywgJzgnLCAnLW1hJywgJzIwMCcsICctaW1hZScsICc8aW5maWxlLm1hZT4nLCAnLW9tYWUnLCAnPG91dGZpbGUubWFlPic=

>  <r_lp_tautomer_probability>  (328) 
1

>  <r_epik_Ionization_Penalty>  (328) 
0.0290237

>  <r_epik_Ionization_Penalty_Charging>  (328) 
0.0290232

>  <r_epik_Ionization_Penalty_Neutral>  (328) 
4.23999e-07

>  <r_epik_State_Penalty>  (328) 
0.0225527

>  <r_epik_Charging_Adjusted_Penalty>  (328) 
0.051576

>  <i_epik_Tot_Q>  (328) 
0

>  <i_epik_Tot_abs_Q>  (328) 
2

>  <s_lp_Force_Field>  (328) 
OPLS3e

>  <r_lp_Energy>  (328) 
73.7848

>  <b_lp_Chiralities_Consistent>  (328) 
1

>  <s_lp_Variant>  (328) 
96:0-1

>  <s_i_glide_gridfile>  (328) 
pfpi4k_grid

>  <i_i_glide_lignum>  (328) 
3

>  <i_i_glide_rotatable_bonds>  (328) 
3

>  <r_i_docking_score>  (328) 
-3.57244

>  <r_i_glide_ligand_efficiency>  (328) 
-0.148851

>  <r_i_glide_ligand_efficiency_sa>  (328) 
-0.429362

>  <r_i_glide_ligand_efficiency_ln>  (328) 
-0.855048

>  <r_i_glide_gscore>  (328) 
-3.57244

>  <r_i_glide_lipo>  (328) 
-0.459905

>  <r_i_glide_hbond>  (328) 
0

>  <r_i_glide_metal>  (328) 
-0

>  <r_i_glide_rewards>  (328) 
-1.25418

>  <r_i_glide_evdw>  (328) 
-27.2502

>  <r_i_glide_ecoul>  (328) 
-5.38708

>  <r_i_glide_erotb>  (328) 
0.318412

>  <r_i_glide_esite>  (328) 
-0.00618912

>  <r_i_glide_emodel>  (328) 
-39.7211

>  <r_i_glide_energy>  (328) 
-32.6372

>  <r_i_glide_einternal>  (328) 
0.203051

>  <r_i_glide_intrahb_reward>  (328) 
-0

>  <i_i_glide_confnum>  (328) 
1

>  <i_i_glide_posenum>  (328) 
19

>  <r_i_glide_eff_state_penalty>  (328) 
0

>  <ligand_id>  (328) 
96

>  <original_smiles>  (328) 
Cn1ccnc1SC1=CC2C3C4CCC5(O)C4CC3[N+]([O-])(CC1)C25

>  <smiles>  (328) 
[H]OC12C([H])([H])C([H])([H])C3([H])C1([H])C([H])([H])C1([H])C3([H])C3([H])C([H])=C(Sc4nc([H])c([H])n4C([H])([H])[H])C([H])([H])C([H])([H])[N+]1([O-])C32[H]

$$$$
96:0:2
     RDKit          3D

 47 52  0  0  1  0  0  0  0  0999 V2000
    2.5936   -3.4547   -3.5696 C   0  0  0  0  0  0  0  0  0  0  0  0
    3.2998   -2.2191   -3.3174 N   0  0  0  0  0  0  0  0  0  0  0  0
    3.2124   -1.0667   -4.0780 C   0  0  0  0  0  0  0  0  0  0  0  0
    4.0210   -0.1390   -3.4671 C   0  0  0  0  0  0  0  0  0  0  0  0
    4.6552   -0.7239   -2.3810 N   0  0  0  0  0  0  0  0  0  0  0  0
    4.1471   -1.9463   -2.3047 C   0  0  0  0  0  0  0  0  0  0  0  0
    4.4969   -3.0742   -0.9998 S   0  0  0  0  0  0  0  0  0  0  0  0
    3.5638   -2.3877    0.3490 C   0  0  0  0  0  0  0  0  0  0  0  0
    3.5454   -1.0709    0.5957 C   0  0  0  0  0  0  0  0  0  0  0  0
    2.7009   -0.3144    1.5953 C   0  0  2  0  0  0  0  0  0  0  0  0
    3.5121    0.2828    2.7460 C   0  0  1  0  0  0  0  0  0  0  0  0
    2.7341    1.5147    3.3343 C   0  0  1  0  0  0  0  0  0  0  0  0
    1.7174    2.2584    2.4422 C   0  0  0  0  0  0  0  0  0  0  0  0
    0.4622    1.3474    2.4252 C   0  0  0  0  0  0  0  0  0  0  0  0
    0.8429    0.1096    3.2734 C   0  0  2  0  0  0  0  0  0  0  0  0
   -0.3530   -0.3871    3.8535 O   0  0  0  0  0  0  0  0  0  0  0  0
    1.8073    0.8021    4.2987 C   0  0  1  0  0  0  0  0  0  0  0  0
    2.7745   -0.1011    5.0457 C   0  0  0  0  0  0  0  0  0  0  0  0
    3.4382   -0.8262    3.8718 C   0  0  1  0  0  0  0  0  0  0  0  0
    2.4311   -1.8902    3.3576 N   0  0  2  0  0  0  0  0  0  0  0  0
    1.6605   -2.4141    4.3407 O   0  0  0  0  0  0  0  0  0  0  0  0
    3.1753   -3.0888    2.7164 C   0  0  0  0  0  0  0  0  0  0  0  0
    2.8780   -3.3816    1.2391 C   0  0  0  0  0  0  0  0  0  0  0  0
    1.5982   -1.0122    2.4126 C   0  0  2  0  0  0  0  0  0  0  0  0
    1.8139   -3.2905   -4.3166 H   0  0  0  0  0  0  0  0  0  0  0  0
    2.1292   -3.8413   -2.6585 H   0  0  0  0  0  0  0  0  0  0  0  0
    3.2956   -4.1986   -3.9511 H   0  0  0  0  0  0  0  0  0  0  0  0
    2.5802   -0.9827   -4.9499 H   0  0  0  0  0  0  0  0  0  0  0  0
    4.1881    0.8982   -3.7311 H   0  0  0  0  0  0  0  0  0  0  0  0
    4.1400   -0.4065   -0.0087 H   0  0  0  0  0  0  0  0  0  0  0  0
    2.2751    0.4141    0.9140 H   0  0  0  0  0  0  0  0  0  0  0  0
    4.5270    0.5444    2.4533 H   0  0  0  0  0  0  0  0  0  0  0  0
    3.4173    2.2057    3.8310 H   0  0  0  0  0  0  0  0  0  0  0  0
    1.4561    3.2193    2.8871 H   0  0  0  0  0  0  0  0  0  0  0  0
    2.0888    2.4851    1.4453 H   0  0  0  0  0  0  0  0  0  0  0  0
   -0.3641    1.8969    2.8864 H   0  0  0  0  0  0  0  0  0  0  0  0
    0.1370    1.0837    1.4151 H   0  0  0  0  0  0  0  0  0  0  0  0
   -0.7981    0.3300    4.2753 H   0  0  0  0  0  0  0  0  0  0  0  0
    1.2951    1.5026    4.9624 H   0  0  0  0  0  0  0  0  0  0  0  0
    3.5150    0.4979    5.5744 H   0  0  0  0  0  0  0  0  0  0  0  0
    2.2988   -0.7335    5.7928 H   0  0  0  0  0  0  0  0  0  0  0  0
    4.3847   -1.2936    4.1412 H   0  0  0  0  0  0  0  0  0  0  0  0
    4.2519   -2.9698    2.8665 H   0  0  0  0  0  0  0  0  0  0  0  0
    2.8944   -3.9730    3.2960 H   0  0  0  0  0  0  0  0  0  0  0  0
    1.8181   -3.4157    1.0214 H   0  0  0  0  0  0  0  0  0  0  0  0
    3.2506   -4.3816    0.9982 H   0  0  0  0  0  0  0  0  0  0  0  0
    0.9170   -1.6149    1.8227 H   0  0  0  0  0  0  0  0  0  0  0  0
  1  2  1  0
  1 25  1  0
  1 26  1  0
  1 27  1  0
  2  6  1  0
  2  3  1  0
  3  4  2  0
  3 28  1  0
  4  5  1  0
  4 29  1  0
  5  6  2  0
  6  7  1  0
  7  8  1  0
  8 23  1  0
  8  9  2  0
  9 10  1  0
  9 30  1  0
 10 24  1  0
 10 11  1  0
 10 31  1  6
 11 19  1  0
 11 12  1  0
 11 32  1  6
 12 17  1  0
 12 13  1  0
 12 33  1  1
 13 14  1  0
 13 34  1  0
 13 35  1  0
 14 15  1  0
 14 36  1  0
 14 37  1  0
 15 24  1  0
 15 16  1  1
 15 17  1  0
 16 38  1  0
 17 18  1  0
 17 39  1  1
 18 19  1  0
 18 40  1  0
 18 41  1  0
 19 20  1  0
 19 42  1  1
 20 21  1  1
 20 22  1  0
 20 24  1  0
 22 23  1  0
 22 43  1  0
 22 44  1  0
 23 45  1  0
 23 46  1  0
 24 47  1  6
M  CHG  2  20   1  21  -1
M  END
>  <i_m_ct_stereo_status>  (329) 
1

>  <s_m_source_file>  (329) 
/var/tmp/pbs.5076255.sched01/tmpm28zzdm2/1449lyhn0we.sdf

>  <i_m_source_file_index>  (329) 
3

>  <i_lp_mmshare_version>  (329) 
48012

>  <i_f3d_flags>  (329) 
0

>  <s_epik_input>  (329) 
W0NIM11uMVtjSF1bY0hdbmMxU0MoPVtDSF0yKVtDSDJdW0NIMl1bTkBAK10oW08tXSkoW0NAQEhdM1tDSDJdNClbQ0BASF01W0NASF0yW0NASF0zW0NAQEhdKFtDSDJdW0NIMl02KVtDQEhdNFtDQF01NltPSF0=

>  <s_epik_cmdline>  (329) 
J2VwaWtfcHl0aG9uJywgJy1waHQnLCAnMi4wJywgJy1waCcsICc3LjAnLCAnLXRuJywgJzgnLCAnLW1hJywgJzIwMCcsICctaW1hZScsICc8aW5maWxlLm1hZT4nLCAnLW9tYWUnLCAnPG91dGZpbGUubWFlPic=

>  <r_lp_tautomer_probability>  (329) 
1

>  <r_epik_Ionization_Penalty>  (329) 
0.0290237

>  <r_epik_Ionization_Penalty_Charging>  (329) 
0.0290232

>  <r_epik_Ionization_Penalty_Neutral>  (329) 
4.23999e-07

>  <r_epik_State_Penalty>  (329) 
0.0225527

>  <r_epik_Charging_Adjusted_Penalty>  (329) 
0.051576

>  <i_epik_Tot_Q>  (329) 
0

>  <i_epik_Tot_abs_Q>  (329) 
2

>  <s_lp_Force_Field>  (329) 
OPLS3e

>  <r_lp_Energy>  (329) 
73.7848

>  <b_lp_Chiralities_Consistent>  (329) 
1

>  <s_lp_Variant>  (329) 
96:0-1

>  <s_i_glide_gridfile>  (329) 
pfpi4k_grid

>  <i_i_glide_lignum>  (329) 
3

>  <i_i_glide_rotatable_bonds>  (329) 
3

>  <r_i_docking_score>  (329) 
-2.98227

>  <r_i_glide_ligand_efficiency>  (329) 
-0.124261

>  <r_i_glide_ligand_efficiency_sa>  (329) 
-0.358431

>  <r_i_glide_ligand_efficiency_ln>  (329) 
-0.713793

>  <r_i_glide_gscore>  (329) 
-2.98227

>  <r_i_glide_lipo>  (329) 
-0.481432

>  <r_i_glide_hbond>  (329) 
0

>  <r_i_glide_metal>  (329) 
-0

>  <r_i_glide_rewards>  (329) 
-1.24396

>  <r_i_glide_evdw>  (329) 
-27.4933

>  <r_i_glide_ecoul>  (329) 
-1.28175

>  <r_i_glide_erotb>  (329) 
0.318412

>  <r_i_glide_esite>  (329) 
-0.00835747

>  <r_i_glide_emodel>  (329) 
-34.5995

>  <r_i_glide_energy>  (329) 
-28.7751

>  <r_i_glide_einternal>  (329) 
0.264699

>  <r_i_glide_intrahb_reward>  (329) 
-0

>  <i_i_glide_confnum>  (329) 
1

>  <i_i_glide_posenum>  (329) 
9

>  <r_i_glide_eff_state_penalty>  (329) 
0

>  <ligand_id>  (329) 
96

>  <original_smiles>  (329) 
Cn1ccnc1SC1=CC2C3C4CCC5(O)C4CC3[N+]([O-])(CC1)C25

>  <smiles>  (329) 
[H]OC12C([H])([H])C([H])([H])C3([H])C1([H])C([H])([H])C1([H])C3([H])C3([H])C([H])=C(Sc4nc([H])c([H])n4C([H])([H])[H])C([H])([H])C([H])([H])[N+]1([O-])C32[H]

$$$$
96:1:0
     RDKit          3D

 48 53  0  0  1  0  0  0  0  0999 V2000
    1.1202   -9.4147    3.6045 C   0  0  0  0  0  0  0  0  0  0  0  0
    0.8338   -8.3611    2.6498 N   0  0  0  0  0  0  0  0  0  0  0  0
   -0.4283   -8.0467    2.1581 C   0  0  0  0  0  0  0  0  0  0  0  0
   -0.2514   -7.0071    1.2821 C   0  0  0  0  0  0  0  0  0  0  0  0
    1.0797   -6.6444    1.2457 N   0  0  0  0  0  0  0  0  0  0  0  0
    1.6882   -7.4963    2.0638 C   0  0  0  0  0  0  0  0  0  0  0  0
    3.4249   -7.4671    2.3519 S   0  0  0  0  0  0  0  0  0  0  0  0
    3.8569   -5.9083    1.6156 C   0  0  0  0  0  0  0  0  0  0  0  0
    4.0081   -4.8211    2.3798 C   0  0  0  0  0  0  0  0  0  0  0  0
    4.3050   -3.3858    1.9641 C   0  0  2  0  0  0  0  0  0  0  0  0
    3.2560   -2.6826    1.0826 C   0  0  1  0  0  0  0  0  0  0  0  0
    3.3835   -1.1306    1.2981 C   0  0  1  0  0  0  0  0  0  0  0  0
    3.9998   -0.5964    2.6076 C   0  0  0  0  0  0  0  0  0  0  0  0
    5.5258   -0.8137    2.4419 C   0  0  0  0  0  0  0  0  0  0  0  0
    5.7009   -1.4798    1.0518 C   0  0  2  0  0  0  0  0  0  0  0  0
    6.9526   -1.0790    0.5190 O   0  0  0  0  0  0  0  0  0  0  0  0
    4.4872   -0.8155    0.3114 C   0  0  1  0  0  0  0  0  0  0  0  0
    3.9774   -1.5158   -0.9399 C   0  0  0  0  0  0  0  0  0  0  0  0
    3.7858   -2.9406   -0.3909 C   0  0  1  0  0  0  0  0  0  0  0  0
    5.1371   -3.5875   -0.2533 N   0  0  2  0  0  0  0  0  0  0  0  0
    6.0914   -3.1421   -1.2564 O   0  0  0  0  0  0  0  0  0  0  0  0
    5.1396   -5.0756   -0.4180 C   0  0  0  0  0  0  0  0  0  0  0  0
    3.9662   -5.8947    0.1146 C   0  0  0  0  0  0  0  0  0  0  0  0
    5.5396   -3.0842    1.0939 C   0  0  2  0  0  0  0  0  0  0  0  0
    0.2081   -9.9778    3.8165 H   0  0  0  0  0  0  0  0  0  0  0  0
    1.4868   -8.9853    4.5377 H   0  0  0  0  0  0  0  0  0  0  0  0
    1.8667  -10.1015    3.2030 H   0  0  0  0  0  0  0  0  0  0  0  0
   -1.3192   -8.5874    2.4473 H   0  0  0  0  0  0  0  0  0  0  0  0
   -0.9684   -6.4743    0.6803 H   0  0  0  0  0  0  0  0  0  0  0  0
    3.8668   -4.9593    3.4397 H   0  0  0  0  0  0  0  0  0  0  0  0
    4.3980   -2.9687    2.9591 H   0  0  0  0  0  0  0  0  0  0  0  0
    2.2370   -3.0330    1.2596 H   0  0  0  0  0  0  0  0  0  0  0  0
    2.4520   -0.6236    1.0471 H   0  0  0  0  0  0  0  0  0  0  0  0
    3.8005    0.4722    2.6999 H   0  0  0  0  0  0  0  0  0  0  0  0
    3.5882   -1.0566    3.5044 H   0  0  0  0  0  0  0  0  0  0  0  0
    6.0115    0.1574    2.4580 H   0  0  0  0  0  0  0  0  0  0  0  0
    5.9679   -1.3894    3.2538 H   0  0  0  0  0  0  0  0  0  0  0  0
    7.2454   -0.3003    0.9781 H   0  0  0  0  0  0  0  0  0  0  0  0
    4.6163    0.2567    0.1694 H   0  0  0  0  0  0  0  0  0  0  0  0
    3.0109   -1.1016   -1.2352 H   0  0  0  0  0  0  0  0  0  0  0  0
    4.6205   -1.3921   -1.8085 H   0  0  0  0  0  0  0  0  0  0  0  0
    3.0990   -3.5027   -1.0202 H   0  0  0  0  0  0  0  0  0  0  0  0
    5.1114   -5.2793   -1.4915 H   0  0  0  0  0  0  0  0  0  0  0  0
    6.0785   -5.4904   -0.0456 H   0  0  0  0  0  0  0  0  0  0  0  0
    4.1109   -6.9257   -0.2162 H   0  0  0  0  0  0  0  0  0  0  0  0
    3.0123   -5.5818   -0.3143 H   0  0  0  0  0  0  0  0  0  0  0  0
    6.4329   -3.5701    1.4827 H   0  0  0  0  0  0  0  0  0  0  0  0
    5.9335   -3.7453   -1.9666 H   0  0  0  0  0  0  0  0  0  0  0  0
  1  2  1  0
  1 25  1  0
  1 26  1  0
  1 27  1  0
  2  6  1  0
  2  3  1  0
  3  4  2  0
  3 28  1  0
  4  5  1  0
  4 29  1  0
  5  6  2  0
  6  7  1  0
  7  8  1  0
  8 23  1  0
  8  9  2  0
  9 10  1  0
  9 30  1  0
 10 24  1  0
 10 11  1  0
 10 31  1  1
 11 19  1  0
 11 12  1  0
 11 32  1  6
 12 17  1  0
 12 13  1  0
 12 33  1  6
 13 14  1  0
 13 34  1  0
 13 35  1  0
 14 15  1  0
 14 36  1  0
 14 37  1  0
 15 24  1  0
 15 16  1  6
 15 17  1  0
 16 38  1  0
 17 18  1  0
 17 39  1  6
 18 19  1  0
 18 40  1  0
 18 41  1  0
 19 20  1  0
 19 42  1  6
 20 21  1  6
 20 22  1  0
 20 24  1  0
 21 48  1  0
 22 23  1  0
 22 43  1  0
 22 44  1  0
 23 45  1  0
 23 46  1  0
 24 47  1  1
M  CHG  1  20   1
M  END
>  <i_m_ct_stereo_status>  (330) 
1

>  <s_m_source_file>  (330) 
/var/tmp/pbs.5076255.sched01/tmpm28zzdm2/1449lyhn0we.sdf

>  <i_m_source_file_index>  (330) 
4

>  <i_lp_mmshare_version>  (330) 
48012

>  <i_f3d_flags>  (330) 
0

>  <s_epik_input>  (330) 
W0NIM11uMVtjSF1bY0hdbmMxU0MoPVtDSF0yKVtDSDJdW0NIMl1bTkBAK10oW08tXSkoW0NAQEhdM1tDSDJdNClbQ0BASF01W0NASF0yW0NASF0zW0NAQEhdKFtDSDJdW0NIMl02KVtDQEhdNFtDQF01NltPSF0=

>  <s_epik_cmdline>  (330) 
J2VwaWtfcHl0aG9uJywgJy1waHQnLCAnMi4wJywgJy1waCcsICc3LjAnLCAnLXRuJywgJzgnLCAnLW1hJywgJzIwMCcsICctaW1hZScsICc8aW5maWxlLm1hZT4nLCAnLW9tYWUnLCAnPG91dGZpbGUubWFlPic=

>  <r_lp_tautomer_probability>  (330) 
1

>  <r_epik_Ionization_Penalty>  (330) 
2.15191

>  <r_epik_Ionization_Penalty_Charging>  (330) 
0.0150213

>  <r_epik_Ionization_Penalty_Neutral>  (330) 
2.13689

>  <r_epik_State_Penalty>  (330) 
2.33617

>  <r_epik_Charging_Adjusted_Penalty>  (330) 
2.35119

>  <i_epik_Tot_Q>  (330) 
1

>  <i_epik_Tot_abs_Q>  (330) 
1

>  <s_epik_Chemistry_Notes>  (330) 
This compound has a N-S or N-O group and may undergo hydrolysis at high or low pH.

>  <s_lp_Force_Field>  (330) 
OPLS3e

>  <r_lp_Energy>  (330) 
77.3879

>  <b_lp_Chiralities_Consistent>  (330) 
1

>  <s_lp_Variant>  (330) 
96:0-2

>  <s_i_glide_gridfile>  (330) 
pfpi4k_grid

>  <i_i_glide_lignum>  (330) 
4

>  <i_i_glide_rotatable_bonds>  (330) 
4

>  <r_i_docking_score>  (330) 
-3.60117

>  <r_i_glide_ligand_efficiency>  (330) 
-0.150049

>  <r_i_glide_ligand_efficiency_sa>  (330) 
-0.432816

>  <r_i_glide_ligand_efficiency_ln>  (330) 
-0.861926

>  <r_i_glide_gscore>  (330) 
-3.60117

>  <r_i_glide_lipo>  (330) 
-0.434475

>  <r_i_glide_hbond>  (330) 
-0.0275604

>  <r_i_glide_metal>  (330) 
-0

>  <r_i_glide_rewards>  (330) 
-1.04681

>  <r_i_glide_evdw>  (330) 
-24.0649

>  <r_i_glide_ecoul>  (330) 
-7.69358

>  <r_i_glide_erotb>  (330) 
0.316769

>  <r_i_glide_esite>  (330) 
-0.0518153

>  <r_i_glide_emodel>  (330) 
-37.0489

>  <r_i_glide_energy>  (330) 
-31.7585

>  <r_i_glide_einternal>  (330) 
6.47287

>  <r_i_glide_intrahb_reward>  (330) 
-0

>  <i_i_glide_confnum>  (330) 
2

>  <i_i_glide_posenum>  (330) 
2

>  <r_i_glide_eff_state_penalty>  (330) 
0

>  <ligand_id>  (330) 
96

>  <original_smiles>  (330) 
Cn1ccnc1SC1=CC2C3C4CCC5(O)C4CC3[N+]([O-])(CC1)C25

>  <smiles>  (330) 
[H]OC12C([H])([H])C([H])([H])C3([H])C1([H])C([H])([H])C1([H])C3([H])C3([H])C([H])=C(Sc4nc([H])c([H])n4C([H])([H])[H])C([H])([H])C([H])([H])[N+]1(O[H])C32[H]

$$$$
96:1:1
     RDKit          3D

 48 53  0  0  1  0  0  0  0  0999 V2000
    2.2213    2.7228    2.7385 C   0  0  0  0  0  0  0  0  0  0  0  0
    1.2061    1.7233    3.0436 N   0  0  0  0  0  0  0  0  0  0  0  0
   -0.1052    1.7527    2.5962 C   0  0  0  0  0  0  0  0  0  0  0  0
   -0.7394    0.6337    3.1160 C   0  0  0  0  0  0  0  0  0  0  0  0
    0.1833   -0.0913    3.8568 N   0  0  0  0  0  0  0  0  0  0  0  0
    1.3261    0.5859    3.7685 C   0  0  0  0  0  0  0  0  0  0  0  0
    2.8395    0.0235    4.4570 S   0  0  0  0  0  0  0  0  0  0  0  0
    3.4693   -1.0064    3.1551 C   0  0  0  0  0  0  0  0  0  0  0  0
    3.3624   -0.6095    1.8830 C   0  0  0  0  0  0  0  0  0  0  0  0
    3.8155   -1.2544    0.6087 C   0  0  2  0  0  0  0  0  0  0  0  0
    3.1437   -2.5777    0.2662 C   0  0  1  0  0  0  0  0  0  0  0  0
    3.1969   -2.7656   -1.2899 C   0  0  1  0  0  0  0  0  0  0  0  0
    3.3181   -1.5262   -2.2015 C   0  0  0  0  0  0  0  0  0  0  0  0
    4.8038   -1.1094   -2.0898 C   0  0  0  0  0  0  0  0  0  0  0  0
    5.4450   -2.0993   -1.0872 C   0  0  2  0  0  0  0  0  0  0  0  0
    6.8027   -2.2600   -1.4551 O   0  0  0  0  0  0  0  0  0  0  0  0
    4.5794   -3.3667   -1.4194 C   0  0  1  0  0  0  0  0  0  0  0  0
    4.5332   -4.4654   -0.3632 C   0  0  0  0  0  0  0  0  0  0  0  0
    4.1552   -3.6358    0.8682 C   0  0  1  0  0  0  0  0  0  0  0  0
    5.3676   -2.8717    1.3277 N   0  0  2  0  0  0  0  0  0  0  0  0
    6.6152   -3.5629    1.0609 O   0  0  0  0  0  0  0  0  0  0  0  0
    5.4135   -2.6016    2.7983 C   0  0  0  0  0  0  0  0  0  0  0  0
    4.1158   -2.2995    3.5673 C   0  0  0  0  0  0  0  0  0  0  0  0
    5.2743   -1.6734    0.4516 C   0  0  2  0  0  0  0  0  0  0  0  0
    1.7786    3.5488    2.1782 H   0  0  0  0  0  0  0  0  0  0  0  0
    3.0093    2.3264    2.1072 H   0  0  0  0  0  0  0  0  0  0  0  0
    2.6758    3.1018    3.6528 H   0  0  0  0  0  0  0  0  0  0  0  0
   -0.4842    2.5391    1.9619 H   0  0  0  0  0  0  0  0  0  0  0  0
   -1.7605    0.3094    2.9858 H   0  0  0  0  0  0  0  0  0  0  0  0
    2.8600    0.3040    1.6624 H   0  0  0  0  0  0  0  0  0  0  0  0
    3.5669   -0.4363   -0.0544 H   0  0  0  0  0  0  0  0  0  0  0  0
    2.1281   -2.6388    0.6551 H   0  0  0  0  0  0  0  0  0  0  0  0
    2.4089   -3.4392   -1.6239 H   0  0  0  0  0  0  0  0  0  0  0  0
    3.1060   -1.8048   -3.2334 H   0  0  0  0  0  0  0  0  0  0  0  0
    2.6202   -0.7240   -1.9611 H   0  0  0  0  0  0  0  0  0  0  0  0
    5.2447   -1.2401   -3.0767 H   0  0  0  0  0  0  0  0  0  0  0  0
    4.9349   -0.0644   -1.8157 H   0  0  0  0  0  0  0  0  0  0  0  0
    7.1524   -2.9881   -0.9657 H   0  0  0  0  0  0  0  0  0  0  0  0
    4.7642   -3.7495   -2.4277 H   0  0  0  0  0  0  0  0  0  0  0  0
    3.7308   -5.1609   -0.5957 H   0  0  0  0  0  0  0  0  0  0  0  0
    5.4422   -5.0642   -0.3188 H   0  0  0  0  0  0  0  0  0  0  0  0
    3.7194   -4.2649    1.6380 H   0  0  0  0  0  0  0  0  0  0  0  0
    5.7990   -3.4977    3.2810 H   0  0  0  0  0  0  0  0  0  0  0  0
    6.1421   -1.8168    3.0000 H   0  0  0  0  0  0  0  0  0  0  0  0
    4.3495   -2.2431    4.6349 H   0  0  0  0  0  0  0  0  0  0  0  0
    3.3702   -3.0945    3.4781 H   0  0  0  0  0  0  0  0  0  0  0  0
    5.9565   -0.8734    0.7342 H   0  0  0  0  0  0  0  0  0  0  0  0
    6.3685   -4.4592    1.2415 H   0  0  0  0  0  0  0  0  0  0  0  0
  1  2  1  0
  1 25  1  0
  1 26  1  0
  1 27  1  0
  2  6  1  0
  2  3  1  0
  3  4  2  0
  3 28  1  0
  4  5  1  0
  4 29  1  0
  5  6  2  0
  6  7  1  0
  7  8  1  0
  8 23  1  0
  8  9  2  0
  9 10  1  0
  9 30  1  0
 10 24  1  0
 10 11  1  0
 10 31  1  6
 11 19  1  0
 11 12  1  0
 11 32  1  1
 12 17  1  0
 12 13  1  0
 12 33  1  6
 13 14  1  0
 13 34  1  0
 13 35  1  0
 14 15  1  0
 14 36  1  0
 14 37  1  0
 15 24  1  0
 15 16  1  6
 15 17  1  0
 16 38  1  0
 17 18  1  0
 17 39  1  6
 18 19  1  0
 18 40  1  0
 18 41  1  0
 19 20  1  0
 19 42  1  1
 20 21  1  6
 20 22  1  0
 20 24  1  0
 21 48  1  0
 22 23  1  0
 22 43  1  0
 22 44  1  0
 23 45  1  0
 23 46  1  0
 24 47  1  1
M  CHG  1  20   1
M  END
>  <i_m_ct_stereo_status>  (331) 
1

>  <s_m_source_file>  (331) 
/var/tmp/pbs.5076255.sched01/tmpm28zzdm2/1449lyhn0we.sdf

>  <i_m_source_file_index>  (331) 
4

>  <i_lp_mmshare_version>  (331) 
48012

>  <i_f3d_flags>  (331) 
0

>  <s_epik_input>  (331) 
W0NIM11uMVtjSF1bY0hdbmMxU0MoPVtDSF0yKVtDSDJdW0NIMl1bTkBAK10oW08tXSkoW0NAQEhdM1tDSDJdNClbQ0BASF01W0NASF0yW0NASF0zW0NAQEhdKFtDSDJdW0NIMl02KVtDQEhdNFtDQF01NltPSF0=

>  <s_epik_cmdline>  (331) 
J2VwaWtfcHl0aG9uJywgJy1waHQnLCAnMi4wJywgJy1waCcsICc3LjAnLCAnLXRuJywgJzgnLCAnLW1hJywgJzIwMCcsICctaW1hZScsICc8aW5maWxlLm1hZT4nLCAnLW9tYWUnLCAnPG91dGZpbGUubWFlPic=

>  <r_lp_tautomer_probability>  (331) 
1

>  <r_epik_Ionization_Penalty>  (331) 
2.15191

>  <r_epik_Ionization_Penalty_Charging>  (331) 
0.0150213

>  <r_epik_Ionization_Penalty_Neutral>  (331) 
2.13689

>  <r_epik_State_Penalty>  (331) 
2.33617

>  <r_epik_Charging_Adjusted_Penalty>  (331) 
2.35119

>  <i_epik_Tot_Q>  (331) 
1

>  <i_epik_Tot_abs_Q>  (331) 
1

>  <s_epik_Chemistry_Notes>  (331) 
This compound has a N-S or N-O group and may undergo hydrolysis at high or low pH.

>  <s_lp_Force_Field>  (331) 
OPLS3e

>  <r_lp_Energy>  (331) 
77.3879

>  <b_lp_Chiralities_Consistent>  (331) 
1

>  <s_lp_Variant>  (331) 
96:0-2

>  <s_i_glide_gridfile>  (331) 
pfpi4k_grid

>  <i_i_glide_lignum>  (331) 
4

>  <i_i_glide_rotatable_bonds>  (331) 
4

>  <r_i_docking_score>  (331) 
-3.43347

>  <r_i_glide_ligand_efficiency>  (331) 
-0.143061

>  <r_i_glide_ligand_efficiency_sa>  (331) 
-0.41266

>  <r_i_glide_ligand_efficiency_ln>  (331) 
-0.821788

>  <r_i_glide_gscore>  (331) 
-3.43347

>  <r_i_glide_lipo>  (331) 
-0.137599

>  <r_i_glide_hbond>  (331) 
0

>  <r_i_glide_metal>  (331) 
-0

>  <r_i_glide_rewards>  (331) 
-1.54681

>  <r_i_glide_evdw>  (331) 
-22.8941

>  <r_i_glide_ecoul>  (331) 
-5.87861

>  <r_i_glide_erotb>  (331) 
0.316769

>  <r_i_glide_esite>  (331) 
-0.0393344

>  <r_i_glide_emodel>  (331) 
-39.9191

>  <r_i_glide_energy>  (331) 
-28.7728

>  <r_i_glide_einternal>  (331) 
3.65647

>  <r_i_glide_intrahb_reward>  (331) 
-0.5

>  <i_i_glide_confnum>  (331) 
2

>  <i_i_glide_posenum>  (331) 
3

>  <r_i_glide_eff_state_penalty>  (331) 
0

>  <ligand_id>  (331) 
96

>  <original_smiles>  (331) 
Cn1ccnc1SC1=CC2C3C4CCC5(O)C4CC3[N+]([O-])(CC1)C25

>  <smiles>  (331) 
[H]OC12C([H])([H])C([H])([H])C3([H])C1([H])C([H])([H])C1([H])C3([H])C3([H])C([H])=C(Sc4nc([H])c([H])n4C([H])([H])[H])C([H])([H])C([H])([H])[N+]1(O[H])C32[H]

$$$$
96:1:2
     RDKit          3D

 48 53  0  0  1  0  0  0  0  0999 V2000
    1.8350   -9.9931    3.7284 C   0  0  0  0  0  0  0  0  0  0  0  0
    1.1619   -8.8131    3.2135 N   0  0  0  0  0  0  0  0  0  0  0  0
   -0.0199   -8.8084    2.4854 C   0  0  0  0  0  0  0  0  0  0  0  0
   -0.3038   -7.4967    2.1981 C   0  0  0  0  0  0  0  0  0  0  0  0
    0.6822   -6.6802    2.7401 N   0  0  0  0  0  0  0  0  0  0  0  0
    1.5304   -7.5228    3.3247 C   0  0  0  0  0  0  0  0  0  0  0  0
    3.0015   -7.0072    4.1392 S   0  0  0  0  0  0  0  0  0  0  0  0
    3.7382   -6.0216    2.8665 C   0  0  0  0  0  0  0  0  0  0  0  0
    3.4981   -4.7062    2.8070 C   0  0  0  0  0  0  0  0  0  0  0  0
    3.9812   -3.6852    1.7866 C   0  0  2  0  0  0  0  0  0  0  0  0
    3.5449   -3.9024    0.3255 C   0  0  1  0  0  0  0  0  0  0  0  0
    3.5641   -2.5138   -0.4113 C   0  0  1  0  0  0  0  0  0  0  0  0
    3.4459   -1.2166    0.4149 C   0  0  0  0  0  0  0  0  0  0  0  0
    4.8460   -1.0081    1.0458 C   0  0  0  0  0  0  0  0  0  0  0  0
    5.6748   -2.2295    0.5813 C   0  0  2  0  0  0  0  0  0  0  0  0
    7.0300   -1.8358    0.4666 O   0  0  0  0  0  0  0  0  0  0  0  0
    5.0180   -2.4556   -0.8249 C   0  0  1  0  0  0  0  0  0  0  0  0
    5.2096   -3.8237   -1.4622 C   0  0  0  0  0  0  0  0  0  0  0  0
    4.7543   -4.7226   -0.3001 C   0  0  1  0  0  0  0  0  0  0  0  0
    5.8310   -4.7597    0.7529 N   0  0  2  0  0  0  0  0  0  0  0  0
    7.1776   -4.6150    0.2194 O   0  0  0  0  0  0  0  0  0  0  0  0
    5.8989   -6.0427    1.5282 C   0  0  0  0  0  0  0  0  0  0  0  0
    4.5976   -6.7697    1.8877 C   0  0  0  0  0  0  0  0  0  0  0  0
    5.4887   -3.5275    1.5248 C   0  0  2  0  0  0  0  0  0  0  0  0
    1.3177  -10.8923    3.3914 H   0  0  0  0  0  0  0  0  0  0  0  0
    1.8327   -9.9803    4.8186 H   0  0  0  0  0  0  0  0  0  0  0  0
    2.8639  -10.0305    3.3703 H   0  0  0  0  0  0  0  0  0  0  0  0
   -0.5462   -9.7187    2.2282 H   0  0  0  0  0  0  0  0  0  0  0  0
   -1.1330   -7.0817    1.6535 H   0  0  0  0  0  0  0  0  0  0  0  0
    2.8465   -4.2970    3.5637 H   0  0  0  0  0  0  0  0  0  0  0  0
    3.5677   -2.7977    2.2489 H   0  0  0  0  0  0  0  0  0  0  0  0
    2.5746   -4.3918    0.2380 H   0  0  0  0  0  0  0  0  0  0  0  0
    2.8927   -2.5090   -1.2698 H   0  0  0  0  0  0  0  0  0  0  0  0
    3.2443   -0.3844   -0.2531 H   0  0  0  0  0  0  0  0  0  0  0  0
    2.6263   -1.2268    1.1320 H   0  0  0  0  0  0  0  0  0  0  0  0
    5.2737   -0.0872    0.6450 H   0  0  0  0  0  0  0  0  0  0  0  0
    4.8182   -0.8963    2.1299 H   0  0  0  0  0  0  0  0  0  0  0  0
    7.5403   -2.6089    0.2699 H   0  0  0  0  0  0  0  0  0  0  0  0
    5.2207   -1.6387   -1.5210 H   0  0  0  0  0  0  0  0  0  0  0  0
    4.5340   -3.9403   -2.3122 H   0  0  0  0  0  0  0  0  0  0  0  0
    6.2142   -3.9739   -1.8532 H   0  0  0  0  0  0  0  0  0  0  0  0
    4.4774   -5.7080   -0.6742 H   0  0  0  0  0  0  0  0  0  0  0  0
    6.4467   -6.7644    0.9193 H   0  0  0  0  0  0  0  0  0  0  0  0
    6.5043   -5.8974    2.4239 H   0  0  0  0  0  0  0  0  0  0  0  0
    4.8670   -7.7206    2.3517 H   0  0  0  0  0  0  0  0  0  0  0  0
    3.9944   -7.0352    1.0182 H   0  0  0  0  0  0  0  0  0  0  0  0
    6.0565   -3.4412    2.4488 H   0  0  0  0  0  0  0  0  0  0  0  0
    7.6552   -5.2620    0.7152 H   0  0  0  0  0  0  0  0  0  0  0  0
  1  2  1  0
  1 25  1  0
  1 26  1  0
  1 27  1  0
  2  6  1  0
  2  3  1  0
  3  4  2  0
  3 28  1  0
  4  5  1  0
  4 29  1  0
  5  6  2  0
  6  7  1  0
  7  8  1  0
  8 23  1  0
  8  9  2  0
  9 10  1  0
  9 30  1  0
 10 24  1  0
 10 11  1  0
 10 31  1  1
 11 19  1  0
 11 12  1  0
 11 32  1  1
 12 17  1  0
 12 13  1  0
 12 33  1  6
 13 14  1  0
 13 34  1  0
 13 35  1  0
 14 15  1  0
 14 36  1  0
 14 37  1  0
 15 24  1  0
 15 16  1  6
 15 17  1  0
 16 38  1  0
 17 18  1  0
 17 39  1  6
 18 19  1  0
 18 40  1  0
 18 41  1  0
 19 20  1  0
 19 42  1  6
 20 21  1  6
 20 22  1  0
 20 24  1  0
 21 48  1  0
 22 23  1  0
 22 43  1  0
 22 44  1  0
 23 45  1  0
 23 46  1  0
 24 47  1  1
M  CHG  1  20   1
M  END
>  <i_m_ct_stereo_status>  (332) 
1

>  <s_m_source_file>  (332) 
/var/tmp/pbs.5076255.sched01/tmpm28zzdm2/1449lyhn0we.sdf

>  <i_m_source_file_index>  (332) 
4

>  <i_lp_mmshare_version>  (332) 
48012

>  <i_f3d_flags>  (332) 
0

>  <s_epik_input>  (332) 
W0NIM11uMVtjSF1bY0hdbmMxU0MoPVtDSF0yKVtDSDJdW0NIMl1bTkBAK10oW08tXSkoW0NAQEhdM1tDSDJdNClbQ0BASF01W0NASF0yW0NASF0zW0NAQEhdKFtDSDJdW0NIMl02KVtDQEhdNFtDQF01NltPSF0=

>  <s_epik_cmdline>  (332) 
J2VwaWtfcHl0aG9uJywgJy1waHQnLCAnMi4wJywgJy1waCcsICc3LjAnLCAnLXRuJywgJzgnLCAnLW1hJywgJzIwMCcsICctaW1hZScsICc8aW5maWxlLm1hZT4nLCAnLW9tYWUnLCAnPG91dGZpbGUubWFlPic=

>  <r_lp_tautomer_probability>  (332) 
1

>  <r_epik_Ionization_Penalty>  (332) 
2.15191

>  <r_epik_Ionization_Penalty_Charging>  (332) 
0.0150213

>  <r_epik_Ionization_Penalty_Neutral>  (332) 
2.13689

>  <r_epik_State_Penalty>  (332) 
2.33617

>  <r_epik_Charging_Adjusted_Penalty>  (332) 
2.35119

>  <i_epik_Tot_Q>  (332) 
1

>  <i_epik_Tot_abs_Q>  (332) 
1

>  <s_epik_Chemistry_Notes>  (332) 
This compound has a N-S or N-O group and may undergo hydrolysis at high or low pH.

>  <s_lp_Force_Field>  (332) 
OPLS3e

>  <r_lp_Energy>  (332) 
77.3879

>  <b_lp_Chiralities_Consistent>  (332) 
1

>  <s_lp_Variant>  (332) 
96:0-2

>  <s_i_glide_gridfile>  (332) 
pfpi4k_grid

>  <i_i_glide_lignum>  (332) 
4

>  <i_i_glide_rotatable_bonds>  (332) 
4

>  <r_i_docking_score>  (332) 
-3.14474

>  <r_i_glide_ligand_efficiency>  (332) 
-0.131031

>  <r_i_glide_ligand_efficiency_sa>  (332) 
-0.377958

>  <r_i_glide_ligand_efficiency_ln>  (332) 
-0.75268

>  <r_i_glide_gscore>  (332) 
-3.14474

>  <r_i_glide_lipo>  (332) 
-0.335303

>  <r_i_glide_hbond>  (332) 
0

>  <r_i_glide_metal>  (332) 
-0

>  <r_i_glide_rewards>  (332) 
-1.54681

>  <r_i_glide_evdw>  (332) 
-20.911

>  <r_i_glide_ecoul>  (332) 
-3.39702

>  <r_i_glide_erotb>  (332) 
0.316769

>  <r_i_glide_esite>  (332) 
-0.0242898

>  <r_i_glide_emodel>  (332) 
-34.5225

>  <r_i_glide_energy>  (332) 
-24.3081

>  <r_i_glide_einternal>  (332) 
5.05957

>  <r_i_glide_intrahb_reward>  (332) 
-0.5

>  <i_i_glide_confnum>  (332) 
2

>  <i_i_glide_posenum>  (332) 
40

>  <r_i_glide_eff_state_penalty>  (332) 
0

>  <ligand_id>  (332) 
96

>  <original_smiles>  (332) 
Cn1ccnc1SC1=CC2C3C4CCC5(O)C4CC3[N+]([O-])(CC1)C25

>  <smiles>  (332) 
[H]OC12C([H])([H])C([H])([H])C3([H])C1([H])C([H])([H])C1([H])C3([H])C3([H])C([H])=C(Sc4nc([H])c([H])n4C([H])([H])[H])C([H])([H])C([H])([H])[N+]1(O[H])C32[H]

$$$$
96:2:0
     RDKit          3D

 48 53  0  0  1  0  0  0  0  0999 V2000
    3.5839    1.7362    4.8371 C   0  0  0  0  0  0  0  0  0  0  0  0
    2.7840    1.7969    3.6106 N   0  0  0  0  0  0  0  0  0  0  0  0
    2.6885    0.8224    2.6547 C   0  0  0  0  0  0  0  0  0  0  0  0
    1.8105    1.2793    1.7039 C   0  0  0  0  0  0  0  0  0  0  0  0
    1.4258    2.5410    2.0948 N   0  0  0  0  0  0  0  0  0  0  0  0
    2.0121    2.8374    3.2561 C   0  0  0  0  0  0  0  0  0  0  0  0
    1.7663    4.3216    4.1765 S   0  0  0  0  0  0  0  0  0  0  0  0
    0.7699    3.7700    5.5396 C   0  0  0  0  0  0  0  0  0  0  0  0
    1.1635    4.0324    6.7923 C   0  0  0  0  0  0  0  0  0  0  0  0
    0.4705    3.6790    8.0991 C   0  0  2  0  0  0  0  0  0  0  0  0
    1.1624    2.5598    8.8985 C   0  0  1  0  0  0  0  0  0  0  0  0
    0.7659    2.6945   10.4142 C   0  0  1  0  0  0  0  0  0  0  0  0
    0.3194    4.0716   10.9468 C   0  0  0  0  0  0  0  0  0  0  0  0
   -1.1397    4.2210   10.4572 C   0  0  0  0  0  0  0  0  0  0  0  0
   -1.4346    2.9497    9.6326 C   0  0  2  0  0  0  0  0  0  0  0  0
   -2.8286    2.7245    9.7448 O   0  0  0  0  0  0  0  0  0  0  0  0
   -0.5459    1.9360   10.4233 C   0  0  1  0  0  0  0  0  0  0  0  0
   -0.1598    0.6574    9.6996 C   0  0  0  0  0  0  0  0  0  0  0  0
    0.4423    1.2382    8.4139 C   0  0  1  0  0  0  0  0  0  0  0  0
   -0.7397    1.6991    7.5231 N   0  0  2  0  0  0  0  0  0  0  0  0
   -1.8579    0.9475    7.6573 O   0  0  0  0  0  0  0  0  0  0  0  0
   -0.3594    1.6167    6.0292 C   0  0  0  0  0  0  0  0  0  0  0  0
   -0.4365    2.9244    5.2384 C   0  0  0  0  0  0  0  0  0  0  0  0
   -0.9608    3.0989    8.1056 C   0  0  2  0  0  0  0  0  0  0  0  0
    3.6863    0.6934    5.1230 H   0  0  0  0  0  0  0  0  0  0  0  0
    3.1026    2.2596    5.6621 H   0  0  0  0  0  0  0  0  0  0  0  0
    4.5706    2.1556    4.6490 H   0  0  0  0  0  0  0  0  0  0  0  0
    3.2381   -0.1033    2.7116 H   0  0  0  0  0  0  0  0  0  0  0  0
    1.4687    0.8093    0.7959 H   0  0  0  0  0  0  0  0  0  0  0  0
    2.0734    4.5969    6.9230 H   0  0  0  0  0  0  0  0  0  0  0  0
    0.5077    4.6550    8.5747 H   0  0  0  0  0  0  0  0  0  0  0  0
    2.2458    2.5338    8.7728 H   0  0  0  0  0  0  0  0  0  0  0  0
    1.5178    2.2324   11.0567 H   0  0  0  0  0  0  0  0  0  0  0  0
    0.3304    4.0710   12.0366 H   0  0  0  0  0  0  0  0  0  0  0  0
    0.9697    4.8894   10.6411 H   0  0  0  0  0  0  0  0  0  0  0  0
   -1.7923    4.2683   11.3288 H   0  0  0  0  0  0  0  0  0  0  0  0
   -1.3160    5.1334    9.8923 H   0  0  0  0  0  0  0  0  0  0  0  0
   -3.0287    2.5456   10.6554 H   0  0  0  0  0  0  0  0  0  0  0  0
   -0.9126    1.7599   11.4370 H   0  0  0  0  0  0  0  0  0  0  0  0
    0.6090    0.1315   10.2737 H   0  0  0  0  0  0  0  0  0  0  0  0
   -0.9703   -0.0474    9.5771 H   0  0  0  0  0  0  0  0  0  0  0  0
    1.0560    0.5090    7.8872 H   0  0  0  0  0  0  0  0  0  0  0  0
    0.6118    1.1289    5.9255 H   0  0  0  0  0  0  0  0  0  0  0  0
   -1.0755    0.9278    5.5798 H   0  0  0  0  0  0  0  0  0  0  0  0
   -1.3654    3.4758    5.3882 H   0  0  0  0  0  0  0  0  0  0  0  0
   -0.4508    2.6748    4.1823 H   0  0  0  0  0  0  0  0  0  0  0  0
   -1.6780    3.6500    7.5056 H   0  0  0  0  0  0  0  0  0  0  0  0
    0.8292    3.2048    1.5767 H   0  0  0  0  0  0  0  0  0  0  0  0
  1  2  1  0
  1 25  1  0
  1 26  1  0
  1 27  1  0
  2  6  1  0
  2  3  1  0
  3  4  2  0
  3 28  1  0
  4  5  1  0
  4 29  1  0
  5  6  2  0
  5 48  1  0
  6  7  1  0
  7  8  1  0
  8 23  1  0
  8  9  2  0
  9 10  1  0
  9 30  1  0
 10 24  1  0
 10 11  1  0
 10 31  1  1
 11 19  1  0
 11 12  1  0
 11 32  1  1
 12 17  1  0
 12 13  1  0
 12 33  1  1
 13 14  1  0
 13 34  1  0
 13 35  1  0
 14 15  1  0
 14 36  1  0
 14 37  1  0
 15 24  1  0
 15 16  1  6
 15 17  1  0
 16 38  1  0
 17 18  1  0
 17 39  1  1
 18 19  1  0
 18 40  1  0
 18 41  1  0
 19 20  1  0
 19 42  1  6
 20 21  1  6
 20 22  1  0
 20 24  1  0
 22 23  1  0
 22 43  1  0
 22 44  1  0
 23 45  1  0
 23 46  1  0
 24 47  1  6
M  CHG  3   5   1  20   1  21  -1
M  END
>  <i_m_ct_stereo_status>  (333) 
1

>  <s_m_source_file>  (333) 
/var/tmp/pbs.5076255.sched01/tmpm28zzdm2/1449lyhn0we.sdf

>  <i_m_source_file_index>  (333) 
5

>  <i_lp_mmshare_version>  (333) 
48012

>  <i_f3d_flags>  (333) 
0

>  <s_epik_input>  (333) 
W0NIM11uMVtjSF1bY0hdbmMxU0MoPVtDSF0yKVtDSDJdW0NIMl1bTkBAK10oW08tXSkoW0NAQEhdM1tDSDJdNClbQ0BASF01W0NASF0yW0NASF0zW0NAQEhdKFtDSDJdW0NIMl02KVtDQEhdNFtDQF01NltPSF0=

>  <s_epik_cmdline>  (333) 
J2VwaWtfcHl0aG9uJywgJy1waHQnLCAnMi4wJywgJy1waCcsICc3LjAnLCAnLXRuJywgJzgnLCAnLW1hJywgJzIwMCcsICctaW1hZScsICc8aW5maWxlLm1hZT4nLCAnLW9tYWUnLCAnPG91dGZpbGUubWFlPic=

>  <r_epik_Ionization_Penalty>  (333) 
2.29623

>  <r_epik_Ionization_Penalty_Charging>  (333) 
0.0140179

>  <r_epik_Ionization_Penalty_Neutral>  (333) 
2.28221

>  <r_epik_State_Penalty>  (333) 
2.3935

>  <r_epik_Charging_Adjusted_Penalty>  (333) 
2.40752

>  <i_epik_Tot_Q>  (333) 
1

>  <i_epik_Tot_abs_Q>  (333) 
3

>  <s_lp_Force_Field>  (333) 
OPLS3e

>  <r_lp_Energy>  (333) 
77.6281

>  <b_lp_Chiralities_Consistent>  (333) 
1

>  <s_lp_Variant>  (333) 
96:0-3

>  <s_i_glide_gridfile>  (333) 
pfpi4k_grid

>  <i_i_glide_lignum>  (333) 
5

>  <i_i_glide_rotatable_bonds>  (333) 
3

>  <r_i_docking_score>  (333) 
-4.25202

>  <r_i_glide_ligand_efficiency>  (333) 
-0.177167

>  <r_i_glide_ligand_efficiency_sa>  (333) 
-0.511039

>  <r_i_glide_ligand_efficiency_ln>  (333) 
-1.0177

>  <r_i_glide_gscore>  (333) 
-4.25202

>  <r_i_glide_lipo>  (333) 
-0.0149735

>  <r_i_glide_hbond>  (333) 
-0.340969

>  <r_i_glide_metal>  (333) 
-0

>  <r_i_glide_rewards>  (333) 
-1.04681

>  <r_i_glide_evdw>  (333) 
-13.2221

>  <r_i_glide_ecoul>  (333) 
-15.6294

>  <r_i_glide_erotb>  (333) 
0.316769

>  <r_i_glide_esite>  (333) 
-0.160526

>  <r_i_glide_emodel>  (333) 
-40.6183

>  <r_i_glide_energy>  (333) 
-28.8515

>  <r_i_glide_einternal>  (333) 
0.403746

>  <r_i_glide_intrahb_reward>  (333) 
-0

>  <i_i_glide_confnum>  (333) 
5

>  <i_i_glide_posenum>  (333) 
7

>  <r_i_glide_eff_state_penalty>  (333) 
0

>  <ligand_id>  (333) 
96

>  <original_smiles>  (333) 
Cn1ccnc1SC1=CC2C3C4CCC5(O)C4CC3[N+]([O-])(CC1)C25

>  <smiles>  (333) 
[H]OC12C([H])([H])C([H])([H])C3([H])C1([H])C([H])([H])C1([H])C3([H])C3([H])C([H])=C(Sc4n(C([H])([H])[H])c([H])c([H])[n+]4[H])C([H])([H])C([H])([H])[N+]1([O-])C32[H]

$$$$
96:2:1
     RDKit          3D

 48 53  0  0  1  0  0  0  0  0999 V2000
    2.6029   -9.5187    1.5129 C   0  0  0  0  0  0  0  0  0  0  0  0
    1.7999  -10.1046    2.5980 N   0  0  0  0  0  0  0  0  0  0  0  0
    2.2116  -11.1986    3.3316 C   0  0  0  0  0  0  0  0  0  0  0  0
    1.2250  -11.4734    4.2577 C   0  0  0  0  0  0  0  0  0  0  0  0
    0.2185  -10.5465    4.0342 N   0  0  0  0  0  0  0  0  0  0  0  0
    0.5914   -9.6970    3.0541 C   0  0  0  0  0  0  0  0  0  0  0  0
   -0.4374   -8.3572    2.4846 S   0  0  0  0  0  0  0  0  0  0  0  0
    0.6890   -6.9885    2.4936 C   0  0  0  0  0  0  0  0  0  0  0  0
    1.2095   -6.5493    1.3290 C   0  0  0  0  0  0  0  0  0  0  0  0
    2.2343   -5.4569    1.1103 C   0  0  2  0  0  0  0  0  0  0  0  0
    3.6690   -5.9373    0.7909 C   0  0  1  0  0  0  0  0  0  0  0  0
    4.4074   -4.8087   -0.0090 C   0  0  1  0  0  0  0  0  0  0  0  0
    3.5734   -3.7828   -0.8012 C   0  0  0  0  0  0  0  0  0  0  0  0
    3.0258   -2.8114    0.2740 C   0  0  0  0  0  0  0  0  0  0  0  0
    3.5574   -3.3395    1.6200 C   0  0  2  0  0  0  0  0  0  0  0  0
    3.7242   -2.2130    2.4527 O   0  0  0  0  0  0  0  0  0  0  0  0
    4.9053   -3.9503    1.1327 C   0  0  1  0  0  0  0  0  0  0  0  0
    5.5655   -4.9830    2.0308 C   0  0  0  0  0  0  0  0  0  0  0  0
    4.4067   -5.9754    2.1899 C   0  0  1  0  0  0  0  0  0  0  0  0
    3.4053   -5.3576    3.2017 N   0  0  2  0  0  0  0  0  0  0  0  0
    4.0156   -4.6125    4.1517 O   0  0  0  0  0  0  0  0  0  0  0  0
    2.6315   -6.4682    3.9493 C   0  0  0  0  0  0  0  0  0  0  0  0
    1.1028   -6.4412    3.8303 C   0  0  0  0  0  0  0  0  0  0  0  0
    2.5892   -4.4614    2.2461 C   0  0  2  0  0  0  0  0  0  0  0  0
    3.6486   -9.7947    1.6915 H   0  0  0  0  0  0  0  0  0  0  0  0
    2.5230   -8.4442    1.5399 H   0  0  0  0  0  0  0  0  0  0  0  0
    2.2732   -9.9449    0.5572 H   0  0  0  0  0  0  0  0  0  0  0  0
    3.1530  -11.7050    3.1536 H   0  0  0  0  0  0  0  0  0  0  0  0
    1.1581  -12.2622    5.0117 H   0  0  0  0  0  0  0  0  0  0  0  0
    0.8595   -7.0254    0.4306 H   0  0  0  0  0  0  0  0  0  0  0  0
    1.7571   -4.9569    0.2703 H   0  0  0  0  0  0  0  0  0  0  0  0
    3.7151   -6.8769    0.2461 H   0  0  0  0  0  0  0  0  0  0  0  0
    5.2216   -5.2152   -0.6055 H   0  0  0  0  0  0  0  0  0  0  0  0
    4.2041   -3.2244   -1.4906 H   0  0  0  0  0  0  0  0  0  0  0  0
    2.7902   -4.2309   -1.4088 H   0  0  0  0  0  0  0  0  0  0  0  0
    3.4263   -1.8157    0.0852 H   0  0  0  0  0  0  0  0  0  0  0  0
    1.9400   -2.7134    0.2672 H   0  0  0  0  0  0  0  0  0  0  0  0
    2.8643   -1.8780    2.6437 H   0  0  0  0  0  0  0  0  0  0  0  0
    5.6014   -3.1781    0.8053 H   0  0  0  0  0  0  0  0  0  0  0  0
    6.3980   -5.4547    1.5077 H   0  0  0  0  0  0  0  0  0  0  0  0
    5.9812   -4.5699    2.9497 H   0  0  0  0  0  0  0  0  0  0  0  0
    4.7483   -6.9496    2.5330 H   0  0  0  0  0  0  0  0  0  0  0  0
    3.0652   -7.4413    3.6995 H   0  0  0  0  0  0  0  0  0  0  0  0
    2.8780   -6.3257    4.9979 H   0  0  0  0  0  0  0  0  0  0  0  0
    0.6714   -5.4557    4.0535 H   0  0  0  0  0  0  0  0  0  0  0  0
    0.6987   -7.1166    4.5880 H   0  0  0  0  0  0  0  0  0  0  0  0
    1.7317   -4.0484    2.7725 H   0  0  0  0  0  0  0  0  0  0  0  0
   -0.7029  -10.5730    4.4826 H   0  0  0  0  0  0  0  0  0  0  0  0
  1  2  1  0
  1 25  1  0
  1 26  1  0
  1 27  1  0
  2  6  1  0
  2  3  1  0
  3  4  2  0
  3 28  1  0
  4  5  1  0
  4 29  1  0
  5  6  2  0
  5 48  1  0
  6  7  1  0
  7  8  1  0
  8 23  1  0
  8  9  2  0
  9 10  1  0
  9 30  1  0
 10 24  1  0
 10 11  1  0
 10 31  1  6
 11 19  1  0
 11 12  1  0
 11 32  1  6
 12 17  1  0
 12 13  1  0
 12 33  1  6
 13 14  1  0
 13 34  1  0
 13 35  1  0
 14 15  1  0
 14 36  1  0
 14 37  1  0
 15 24  1  0
 15 16  1  1
 15 17  1  0
 16 38  1  0
 17 18  1  0
 17 39  1  6
 18 19  1  0
 18 40  1  0
 18 41  1  0
 19 20  1  0
 19 42  1  1
 20 21  1  1
 20 22  1  0
 20 24  1  0
 22 23  1  0
 22 43  1  0
 22 44  1  0
 23 45  1  0
 23 46  1  0
 24 47  1  1
M  CHG  3   5   1  20   1  21  -1
M  END
>  <i_m_ct_stereo_status>  (334) 
1

>  <s_m_source_file>  (334) 
/var/tmp/pbs.5076255.sched01/tmpm28zzdm2/1449lyhn0we.sdf

>  <i_m_source_file_index>  (334) 
5

>  <i_lp_mmshare_version>  (334) 
48012

>  <i_f3d_flags>  (334) 
0

>  <s_epik_input>  (334) 
W0NIM11uMVtjSF1bY0hdbmMxU0MoPVtDSF0yKVtDSDJdW0NIMl1bTkBAK10oW08tXSkoW0NAQEhdM1tDSDJdNClbQ0BASF01W0NASF0yW0NASF0zW0NAQEhdKFtDSDJdW0NIMl02KVtDQEhdNFtDQF01NltPSF0=

>  <s_epik_cmdline>  (334) 
J2VwaWtfcHl0aG9uJywgJy1waHQnLCAnMi4wJywgJy1waCcsICc3LjAnLCAnLXRuJywgJzgnLCAnLW1hJywgJzIwMCcsICctaW1hZScsICc8aW5maWxlLm1hZT4nLCAnLW9tYWUnLCAnPG91dGZpbGUubWFlPic=

>  <r_epik_Ionization_Penalty>  (334) 
2.29623

>  <r_epik_Ionization_Penalty_Charging>  (334) 
0.0140179

>  <r_epik_Ionization_Penalty_Neutral>  (334) 
2.28221

>  <r_epik_State_Penalty>  (334) 
2.3935

>  <r_epik_Charging_Adjusted_Penalty>  (334) 
2.40752

>  <i_epik_Tot_Q>  (334) 
1

>  <i_epik_Tot_abs_Q>  (334) 
3

>  <s_lp_Force_Field>  (334) 
OPLS3e

>  <r_lp_Energy>  (334) 
77.6281

>  <b_lp_Chiralities_Consistent>  (334) 
1

>  <s_lp_Variant>  (334) 
96:0-3

>  <s_i_glide_gridfile>  (334) 
pfpi4k_grid

>  <i_i_glide_lignum>  (334) 
5

>  <i_i_glide_rotatable_bonds>  (334) 
3

>  <r_i_docking_score>  (334) 
-3.84923

>  <r_i_glide_ligand_efficiency>  (334) 
-0.160385

>  <r_i_glide_ligand_efficiency_sa>  (334) 
-0.46263

>  <r_i_glide_ligand_efficiency_ln>  (334) 
-0.921298

>  <r_i_glide_gscore>  (334) 
-3.84923

>  <r_i_glide_lipo>  (334) 
-0.313511

>  <r_i_glide_hbond>  (334) 
-0.2

>  <r_i_glide_metal>  (334) 
-0

>  <r_i_glide_rewards>  (334) 
-1.17923

>  <r_i_glide_evdw>  (334) 
-23.5203

>  <r_i_glide_ecoul>  (334) 
-8.17487

>  <r_i_glide_erotb>  (334) 
0.316769

>  <r_i_glide_esite>  (334) 
-0.071012

>  <r_i_glide_emodel>  (334) 
-40.6528

>  <r_i_glide_energy>  (334) 
-31.6952

>  <r_i_glide_einternal>  (334) 
1.64187

>  <r_i_glide_intrahb_reward>  (334) 
-0

>  <i_i_glide_confnum>  (334) 
5

>  <i_i_glide_posenum>  (334) 
22

>  <r_i_glide_eff_state_penalty>  (334) 
0

>  <ligand_id>  (334) 
96

>  <original_smiles>  (334) 
Cn1ccnc1SC1=CC2C3C4CCC5(O)C4CC3[N+]([O-])(CC1)C25

>  <smiles>  (334) 
[H]OC12C([H])([H])C([H])([H])C3([H])C1([H])C([H])([H])C1([H])C3([H])C3([H])C([H])=C(Sc4n(C([H])([H])[H])c([H])c([H])[n+]4[H])C([H])([H])C([H])([H])[N+]1([O-])C32[H]

$$$$
96:2:2
     RDKit          3D

 48 53  0  0  1  0  0  0  0  0999 V2000
   -0.0588   -9.0389    5.7612 C   0  0  0  0  0  0  0  0  0  0  0  0
    0.3556   -9.7859    4.5749 N   0  0  0  0  0  0  0  0  0  0  0  0
    1.0513  -10.9772    4.6012 C   0  0  0  0  0  0  0  0  0  0  0  0
    1.2061  -11.3737    3.2876 C   0  0  0  0  0  0  0  0  0  0  0  0
    0.6063  -10.3980    2.5196 N   0  0  0  0  0  0  0  0  0  0  0  0
    0.1140   -9.4398    3.2979 C   0  0  0  0  0  0  0  0  0  0  0  0
   -0.7255   -7.9899    2.6872 S   0  0  0  0  0  0  0  0  0  0  0  0
    0.5917   -6.7984    2.6020 C   0  0  0  0  0  0  0  0  0  0  0  0
    1.1752   -6.4931    1.4429 C   0  0  0  0  0  0  0  0  0  0  0  0
    2.2662   -5.4534    1.2290 C   0  0  2  0  0  0  0  0  0  0  0  0
    3.6404   -6.0520    0.9067 C   0  0  1  0  0  0  0  0  0  0  0  0
    4.4767   -4.9936    0.1034 C   0  0  1  0  0  0  0  0  0  0  0  0
    3.7370   -3.8837   -0.6757 C   0  0  0  0  0  0  0  0  0  0  0  0
    3.3023   -2.8614    0.4026 C   0  0  0  0  0  0  0  0  0  0  0  0
    3.7892   -3.4510    1.7361 C   0  0  2  0  0  0  0  0  0  0  0  0
    4.0768   -2.3541    2.5683 O   0  0  0  0  0  0  0  0  0  0  0  0
    5.0700   -4.1944    1.2482 C   0  0  1  0  0  0  0  0  0  0  0  0
    5.6205   -5.2946    2.1433 C   0  0  0  0  0  0  0  0  0  0  0  0
    4.3714   -6.1610    2.3076 C   0  0  1  0  0  0  0  0  0  0  0  0
    3.4486   -5.4390    3.3250 N   0  0  2  0  0  0  0  0  0  0  0  0
    4.1275   -4.7438    4.2698 O   0  0  0  0  0  0  0  0  0  0  0  0
    2.5495   -6.4417    4.0845 C   0  0  0  0  0  0  0  0  0  0  0  0
    1.0385   -6.2205    3.9242 C   0  0  0  0  0  0  0  0  0  0  0  0
    2.7228   -4.4798    2.3620 C   0  0  2  0  0  0  0  0  0  0  0  0
   -0.2724   -9.7472    6.5600 H   0  0  0  0  0  0  0  0  0  0  0  0
   -0.9615   -8.4705    5.5331 H   0  0  0  0  0  0  0  0  0  0  0  0
    0.7612   -8.3935    6.0620 H   0  0  0  0  0  0  0  0  0  0  0  0
    1.3644  -11.4415    5.5256 H   0  0  0  0  0  0  0  0  0  0  0  0
    1.6841  -12.2485    2.8831 H   0  0  0  0  0  0  0  0  0  0  0  0
    0.8271   -6.9817    0.5438 H   0  0  0  0  0  0  0  0  0  0  0  0
    1.8157   -4.9060    0.4092 H   0  0  0  0  0  0  0  0  0  0  0  0
    3.5854   -6.9967    0.3718 H   0  0  0  0  0  0  0  0  0  0  0  0
    5.2408   -5.4794   -0.5036 H   0  0  0  0  0  0  0  0  0  0  0  0
    4.4218   -3.3935   -1.3709 H   0  0  0  0  0  0  0  0  0  0  0  0
    2.9054   -4.2505   -1.2775 H   0  0  0  0  0  0  0  0  0  0  0  0
    3.8111   -1.9224    0.2127 H   0  0  0  0  0  0  0  0  0  0  0  0
    2.2326   -2.6497    0.3967 H   0  0  0  0  0  0  0  0  0  0  0  0
    3.2609   -1.9321    2.7953 H   0  0  0  0  0  0  0  0  0  0  0  0
    5.8353   -3.4983    0.9181 H   0  0  0  0  0  0  0  0  0  0  0  0
    6.3884   -5.8542    1.6135 H   0  0  0  0  0  0  0  0  0  0  0  0
    6.0803   -4.9294    3.0599 H   0  0  0  0  0  0  0  0  0  0  0  0
    4.5981   -7.1688    2.6527 H   0  0  0  0  0  0  0  0  0  0  0  0
    2.8605   -7.4533    3.8247 H   0  0  0  0  0  0  0  0  0  0  0  0
    2.8015   -6.3264    5.1311 H   0  0  0  0  0  0  0  0  0  0  0  0
    0.7301   -5.1773    4.0467 H   0  0  0  0  0  0  0  0  0  0  0  0
    0.5058   -6.7408    4.7077 H   0  0  0  0  0  0  0  0  0  0  0  0
    1.9123   -3.9680    2.8777 H   0  0  0  0  0  0  0  0  0  0  0  0
    0.5308  -10.3991    1.4990 H   0  0  0  0  0  0  0  0  0  0  0  0
  1  2  1  0
  1 25  1  0
  1 26  1  0
  1 27  1  0
  2  6  1  0
  2  3  1  0
  3  4  2  0
  3 28  1  0
  4  5  1  0
  4 29  1  0
  5  6  2  0
  5 48  1  0
  6  7  1  0
  7  8  1  0
  8 23  1  0
  8  9  2  0
  9 10  1  0
  9 30  1  0
 10 24  1  0
 10 11  1  0
 10 31  1  6
 11 19  1  0
 11 12  1  0
 11 32  1  6
 12 17  1  0
 12 13  1  0
 12 33  1  6
 13 14  1  0
 13 34  1  0
 13 35  1  0
 14 15  1  0
 14 36  1  0
 14 37  1  0
 15 24  1  0
 15 16  1  1
 15 17  1  0
 16 38  1  0
 17 18  1  0
 17 39  1  6
 18 19  1  0
 18 40  1  0
 18 41  1  0
 19 20  1  0
 19 42  1  1
 20 21  1  1
 20 22  1  0
 20 24  1  0
 22 23  1  0
 22 43  1  0
 22 44  1  0
 23 45  1  0
 23 46  1  0
 24 47  1  1
M  CHG  3   5   1  20   1  21  -1
M  END
>  <i_m_ct_stereo_status>  (335) 
1

>  <s_m_source_file>  (335) 
/var/tmp/pbs.5076255.sched01/tmpm28zzdm2/1449lyhn0we.sdf

>  <i_m_source_file_index>  (335) 
5

>  <i_lp_mmshare_version>  (335) 
48012

>  <i_f3d_flags>  (335) 
0

>  <s_epik_input>  (335) 
W0NIM11uMVtjSF1bY0hdbmMxU0MoPVtDSF0yKVtDSDJdW0NIMl1bTkBAK10oW08tXSkoW0NAQEhdM1tDSDJdNClbQ0BASF01W0NASF0yW0NASF0zW0NAQEhdKFtDSDJdW0NIMl02KVtDQEhdNFtDQF01NltPSF0=

>  <s_epik_cmdline>  (335) 
J2VwaWtfcHl0aG9uJywgJy1waHQnLCAnMi4wJywgJy1waCcsICc3LjAnLCAnLXRuJywgJzgnLCAnLW1hJywgJzIwMCcsICctaW1hZScsICc8aW5maWxlLm1hZT4nLCAnLW9tYWUnLCAnPG91dGZpbGUubWFlPic=

>  <r_epik_Ionization_Penalty>  (335) 
2.29623

>  <r_epik_Ionization_Penalty_Charging>  (335) 
0.0140179

>  <r_epik_Ionization_Penalty_Neutral>  (335) 
2.28221

>  <r_epik_State_Penalty>  (335) 
2.3935

>  <r_epik_Charging_Adjusted_Penalty>  (335) 
2.40752

>  <i_epik_Tot_Q>  (335) 
1

>  <i_epik_Tot_abs_Q>  (335) 
3

>  <s_lp_Force_Field>  (335) 
OPLS3e

>  <r_lp_Energy>  (335) 
77.6281

>  <b_lp_Chiralities_Consistent>  (335) 
1

>  <s_lp_Variant>  (335) 
96:0-3

>  <s_i_glide_gridfile>  (335) 
pfpi4k_grid

>  <i_i_glide_lignum>  (335) 
5

>  <i_i_glide_rotatable_bonds>  (335) 
3

>  <r_i_docking_score>  (335) 
-3.58935

>  <r_i_glide_ligand_efficiency>  (335) 
-0.149556

>  <r_i_glide_ligand_efficiency_sa>  (335) 
-0.431395

>  <r_i_glide_ligand_efficiency_ln>  (335) 
-0.859096

>  <r_i_glide_gscore>  (335) 
-3.58935

>  <r_i_glide_lipo>  (335) 
-0.349439

>  <r_i_glide_hbond>  (335) 
0

>  <r_i_glide_metal>  (335) 
-0

>  <r_i_glide_rewards>  (335) 
-1.04681

>  <r_i_glide_evdw>  (335) 
-22.999

>  <r_i_glide_ecoul>  (335) 
-8.395

>  <r_i_glide_erotb>  (335) 
0.316769

>  <r_i_glide_esite>  (335) 
-0.100671

>  <r_i_glide_emodel>  (335) 
-40.7941

>  <r_i_glide_energy>  (335) 
-31.394

>  <r_i_glide_einternal>  (335) 
0.938641

>  <r_i_glide_intrahb_reward>  (335) 
-0

>  <i_i_glide_confnum>  (335) 
5

>  <i_i_glide_posenum>  (335) 
17

>  <r_i_glide_eff_state_penalty>  (335) 
0

>  <ligand_id>  (335) 
96

>  <original_smiles>  (335) 
Cn1ccnc1SC1=CC2C3C4CCC5(O)C4CC3[N+]([O-])(CC1)C25

>  <smiles>  (335) 
[H]OC12C([H])([H])C([H])([H])C3([H])C1([H])C([H])([H])C1([H])C3([H])C3([H])C([H])=C(Sc4n(C([H])([H])[H])c([H])c([H])[n+]4[H])C([H])([H])C([H])([H])[N+]1([O-])C32[H]

$$$$
97:0:0
     RDKit          3D

 70 74  0  0  1  0  0  0  0  0999 V2000
    2.9963   -2.7534    0.3988 C   0  0  0  0  0  0  0  0  0  0  0  0
    2.3214   -2.3857    1.5914 O   0  0  0  0  0  0  0  0  0  0  0  0
    2.9192   -1.3683    2.2863 C   0  0  0  0  0  0  0  0  0  0  0  0
    2.7778   -1.2816    3.6282 C   0  0  0  0  0  0  0  0  0  0  0  0
    3.6954   -0.3083    4.3224 C   0  0  1  0  0  0  0  0  0  0  0  0
    5.1112   -0.1569    3.6841 C   0  0  0  0  0  0  0  0  0  0  0  0
    2.9572    1.0018    4.7443 C   0  0  2  0  0  0  0  0  0  0  0  0
    4.0019    1.9576    4.9080 O   0  0  0  0  0  0  0  0  0  0  0  0
    2.6975    0.7312    6.2910 C   0  0  1  0  0  0  0  0  0  0  0  0
    2.5644    1.8560    7.1262 O   0  0  0  0  0  0  0  0  0  0  0  0
    1.7562   -0.3944    6.7700 C   0  0  0  0  0  0  0  0  0  0  0  0
    1.5508   -1.6999    5.9334 C   0  0  1  0  0  0  0  0  0  0  0  0
    0.3867   -2.4835    6.5986 C   0  0  0  0  0  0  0  0  0  0  0  0
    1.4399   -1.6270    4.3538 C   0  0  2  0  0  0  0  0  0  0  0  0
    1.1135   -2.9495    3.9801 O   0  0  0  0  0  0  0  0  0  0  0  0
    0.1972   -0.7847    3.8142 C   0  0  2  0  0  0  0  0  0  0  0  0
    0.3559   -0.2690    2.3868 C   0  0  0  0  0  0  0  0  0  0  0  0
    1.5511    0.7352    2.2989 C   0  0  2  0  0  0  0  0  0  0  0  0
    2.7078   -0.0137    1.5876 C   0  0  0  0  0  0  0  0  0  0  0  0
    1.8541    1.5981    3.6464 C   0  0  2  0  0  0  0  0  0  0  0  0
    2.4942    2.9108    3.0385 C   0  0  0  0  0  0  0  0  0  0  0  0
    0.3914    1.8513    4.2331 C   0  0  1  0  0  0  0  0  0  0  0  0
    0.2808    2.7898    5.4767 C   0  0  0  0  0  0  0  0  0  0  0  0
   -0.6550    3.9749    5.1625 C   0  0  1  0  0  0  0  0  0  0  0  0
    0.2060    5.2453    4.9892 C   0  0  0  0  0  0  0  0  0  0  0  0
   -1.4139    3.5674    3.8858 C   0  0  1  0  0  0  0  0  0  0  0  0
   -2.7325    2.8595    4.1606 C   0  0  0  0  0  0  0  0  0  0  0  0
   -1.7132    4.6520    3.0299 O   0  0  0  0  0  0  0  0  0  0  0  0
   -0.4462    2.6610    3.1711 C   0  0  0  0  0  0  0  0  0  0  0  0
   -0.3013    0.4602    4.5836 C   0  0  0  0  0  0  0  0  0  0  0  0
    2.4906   -3.6081   -0.0458 H   0  0  0  0  0  0  0  0  0  0  0  0
    4.0238   -3.0457    0.6114 H   0  0  0  0  0  0  0  0  0  0  0  0
    3.0175   -1.9705   -0.3569 H   0  0  0  0  0  0  0  0  0  0  0  0
    3.9762   -0.9001    5.1884 H   0  0  0  0  0  0  0  0  0  0  0  0
    5.4906   -1.1207    3.3321 H   0  0  0  0  0  0  0  0  0  0  0  0
    5.8315    0.2017    4.4235 H   0  0  0  0  0  0  0  0  0  0  0  0
    5.1605    0.5332    2.8507 H   0  0  0  0  0  0  0  0  0  0  0  0
    4.2771    2.2169    4.0313 H   0  0  0  0  0  0  0  0  0  0  0  0
    3.6636    0.4131    6.6906 H   0  0  0  0  0  0  0  0  0  0  0  0
    3.2904    2.4321    6.9069 H   0  0  0  0  0  0  0  0  0  0  0  0
    2.1841   -0.7301    7.7148 H   0  0  0  0  0  0  0  0  0  0  0  0
    0.8309    0.0317    7.1414 H   0  0  0  0  0  0  0  0  0  0  0  0
    2.4417   -2.3000    6.1182 H   0  0  0  0  0  0  0  0  0  0  0  0
   -0.5796   -2.0207    6.3996 H   0  0  0  0  0  0  0  0  0  0  0  0
    0.5186   -2.5275    7.6796 H   0  0  0  0  0  0  0  0  0  0  0  0
    0.3322   -3.5174    6.2596 H   0  0  0  0  0  0  0  0  0  0  0  0
    1.8599   -3.4966    4.1863 H   0  0  0  0  0  0  0  0  0  0  0  0
   -0.6632   -1.4628    3.8186 H   0  0  0  0  0  0  0  0  0  0  0  0
    0.4501   -1.0780    1.6715 H   0  0  0  0  0  0  0  0  0  0  0  0
   -0.5797    0.1732    2.0500 H   0  0  0  0  0  0  0  0  0  0  0  0
    1.2202    1.4347    1.5298 H   0  0  0  0  0  0  0  0  0  0  0  0
    3.6045    0.5952    1.5107 H   0  0  0  0  0  0  0  0  0  0  0  0
    2.3875   -0.1703    0.5549 H   0  0  0  0  0  0  0  0  0  0  0  0
    1.9888    3.3044    2.1577 H   0  0  0  0  0  0  0  0  0  0  0  0
    3.5175    2.7456    2.7032 H   0  0  0  0  0  0  0  0  0  0  0  0
    2.5492    3.7057    3.7629 H   0  0  0  0  0  0  0  0  0  0  0  0
   -0.0783    2.2544    6.3592 H   0  0  0  0  0  0  0  0  0  0  0  0
    1.2561    3.1884    5.7454 H   0  0  0  0  0  0  0  0  0  0  0  0
   -1.3417    4.1348    6.0006 H   0  0  0  0  0  0  0  0  0  0  0  0
    0.9645    5.0959    4.2249 H   0  0  0  0  0  0  0  0  0  0  0  0
    0.7187    5.5147    5.9137 H   0  0  0  0  0  0  0  0  0  0  0  0
   -0.3890    6.0962    4.6725 H   0  0  0  0  0  0  0  0  0  0  0  0
   -2.5977    2.0108    4.8265 H   0  0  0  0  0  0  0  0  0  0  0  0
   -3.1750    2.5290    3.2149 H   0  0  0  0  0  0  0  0  0  0  0  0
   -3.3891    3.5652    4.6484 H   0  0  0  0  0  0  0  0  0  0  0  0
   -1.0581    4.6262    2.3311 H   0  0  0  0  0  0  0  0  0  0  0  0
    0.1878    3.3391    2.6611 H   0  0  0  0  0  0  0  0  0  0  0  0
   -0.9786    2.0711    2.4222 H   0  0  0  0  0  0  0  0  0  0  0  0
   -1.3369    0.5315    4.2900 H   0  0  0  0  0  0  0  0  0  0  0  0
   -0.4199    0.2442    5.6343 H   0  0  0  0  0  0  0  0  0  0  0  0
  1  2  1  0
  1 31  1  0
  1 32  1  0
  1 33  1  0
  2  3  1  0
  3 19  1  0
  3  4  2  0
  4 14  1  0
  4  5  1  0
  5  6  1  0
  5  7  1  0
  5 34  1  1
  6 35  1  0
  6 36  1  0
  6 37  1  0
  7 20  1  0
  7  8  1  1
  7  9  1  0
  8 38  1  0
  9 10  1  0
  9 11  1  0
  9 39  1  1
 10 40  1  0
 11 12  1  0
 11 41  1  0
 11 42  1  0
 12 13  1  0
 12 14  1  0
 12 43  1  6
 13 44  1  0
 13 45  1  0
 13 46  1  0
 14 15  1  6
 14 16  1  0
 15 47  1  0
 16 30  1  0
 16 17  1  0
 16 48  1  6
 17 18  1  0
 17 49  1  0
 17 50  1  0
 18 19  1  0
 18 20  1  0
 18 51  1  6
 19 52  1  0
 19 53  1  0
 20 21  1  6
 20 22  1  0
 21 54  1  0
 21 55  1  0
 21 56  1  0
 22 29  1  6
 22 23  1  0
 22 30  1  0
 23 24  1  0
 23 57  1  0
 23 58  1  0
 24 25  1  0
 24 26  1  0
 24 59  1  1
 25 60  1  0
 25 61  1  0
 25 62  1  0
 26 27  1  0
 26 28  1  6
 26 29  1  0
 27 63  1  0
 27 64  1  0
 27 65  1  0
 28 66  1  0
 29 67  1  0
 29 68  1  0
 30 69  1  0
 30 70  1  0
M  END
>  <i_m_ct_stereo_status>  (336) 
1

>  <s_m_source_file>  (336) 
/var/tmp/pbs.5076255.sched01/tmpm28zzdm2/1449lyhn0we.sdf

>  <i_m_source_file_index>  (336) 
6

>  <i_lp_mmshare_version>  (336) 
48012

>  <i_f3d_flags>  (336) 
0

>  <s_epik_input>  (336) 
W0NIM11PQz0xW0NIMl1bQ0BIXTJbQ0gyXVtDQEhdKFtDSDJdMylbQ0BdKFtPSF0pKFtDQEhdKFtDSDNdKVtDSDJdW0NAQEhdNFtPSF0pQzFbQ0BASF0oW0NIM10pW0NAQF00KFtPSF0pW0NAXTIoW0NIM10pW0NAXTM1W0NIMl1bQ0BASF0oW0NIM10pW0NAQF0oW0NIM10pKFtPSF0pW0NIMl01

>  <s_epik_cmdline>  (336) 
J2VwaWtfcHl0aG9uJywgJy1waHQnLCAnMi4wJywgJy1waCcsICc3LjAnLCAnLXRuJywgJzgnLCAnLW1hJywgJzIwMCcsICctaW1hZScsICc8aW5maWxlLm1hZT4nLCAnLW9tYWUnLCAnPG91dGZpbGUubWFlPic=

>  <r_lp_tautomer_probability>  (336) 
1

>  <r_epik_Ionization_Penalty>  (336) 
1.95179e-06

>  <r_epik_Ionization_Penalty_Charging>  (336) 
0

>  <r_epik_Ionization_Penalty_Neutral>  (336) 
1.95179e-06

>  <r_epik_State_Penalty>  (336) 
-0

>  <r_epik_Charging_Adjusted_Penalty>  (336) 
0

>  <i_epik_Tot_Q>  (336) 
0

>  <i_epik_Tot_abs_Q>  (336) 
0

>  <s_lp_Force_Field>  (336) 
OPLS3e

>  <r_lp_Energy>  (336) 
174.842

>  <b_lp_Chiralities_Consistent>  (336) 
1

>  <s_lp_Variant>  (336) 
97:0-1

>  <s_i_glide_gridfile>  (336) 
pfpi4k_grid

>  <i_i_glide_lignum>  (336) 
6

>  <i_i_glide_rotatable_bonds>  (336) 
5

>  <r_i_docking_score>  (336) 
-2.63343

>  <r_i_glide_ligand_efficiency>  (336) 
-0.0877809

>  <r_i_glide_ligand_efficiency_sa>  (336) 
-0.272756

>  <r_i_glide_ligand_efficiency_ln>  (336) 
-0.598344

>  <r_i_glide_gscore>  (336) 
-2.63343

>  <r_i_glide_lipo>  (336) 
-0.112499

>  <r_i_glide_hbond>  (336) 
-0.32

>  <r_i_glide_metal>  (336) 
-0

>  <r_i_glide_rewards>  (336) 
-0.541486

>  <r_i_glide_evdw>  (336) 
-16.8646

>  <r_i_glide_ecoul>  (336) 
-5.44142

>  <r_i_glide_erotb>  (336) 
0

>  <r_i_glide_esite>  (336) 
0

>  <r_i_glide_emodel>  (336) 
-23.7895

>  <r_i_glide_energy>  (336) 
-22.306

>  <r_i_glide_einternal>  (336) 
2.73716

>  <r_i_glide_intrahb_reward>  (336) 
-0

>  <i_i_glide_confnum>  (336) 
2

>  <i_i_glide_posenum>  (336) 
16

>  <r_i_glide_eff_state_penalty>  (336) 
0

>  <ligand_id>  (336) 
97

>  <original_smiles>  (336) 
COC1=C2C(C)C3(O)C(O)CC(C)C2(O)C2CC(C1)C3(C)C1(CC(C)C(C)(O)C1)C2

>  <smiles>  (336) 
[H]OC1([H])C([H])([H])C([H])(C([H])([H])[H])C2(O[H])C3=C(OC([H])([H])[H])C([H])([H])C4([H])C([H])([H])C2([H])C([H])([H])C2(C([H])([H])C([H])(C([H])([H])[H])C(O[H])(C([H])([H])[H])C2([H])[H])C4(C([H])([H])[H])C1(O[H])C3([H])C([H])([H])[H]

$$$$
97:0:1
     RDKit          3D

 70 74  0  0  1  0  0  0  0  0999 V2000
    1.0073   -4.6821    5.2298 C   0  0  0  0  0  0  0  0  0  0  0  0
    0.6132   -3.5801    4.4358 O   0  0  0  0  0  0  0  0  0  0  0  0
    1.5094   -2.5499    4.4083 C   0  0  0  0  0  0  0  0  0  0  0  0
    1.8604   -1.8536    5.5089 C   0  0  0  0  0  0  0  0  0  0  0  0
    3.1093   -0.9956    5.3494 C   0  0  1  0  0  0  0  0  0  0  0  0
    4.2082   -1.5894    4.4200 C   0  0  0  0  0  0  0  0  0  0  0  0
    2.7928    0.5100    5.1732 C   0  0  2  0  0  0  0  0  0  0  0  0
    3.9641    1.0920    4.6043 O   0  0  0  0  0  0  0  0  0  0  0  0
    3.0272    1.0710    6.6368 C   0  0  1  0  0  0  0  0  0  0  0  0
    3.3656    2.4329    6.7620 O   0  0  0  0  0  0  0  0  0  0  0  0
    2.1505    0.6477    7.8257 C   0  0  0  0  0  0  0  0  0  0  0  0
    1.4569   -0.7506    7.8740 C   0  0  1  0  0  0  0  0  0  0  0  0
    0.4933   -0.7451    9.0924 C   0  0  0  0  0  0  0  0  0  0  0  0
    0.8110   -1.3485    6.5619 C   0  0  2  0  0  0  0  0  0  0  0  0
    0.1206   -2.4903    7.0223 O   0  0  0  0  0  0  0  0  0  0  0  0
   -0.3791   -0.5213    5.9372 C   0  0  2  0  0  0  0  0  0  0  0  0
   -0.6671   -0.8065    4.4665 C   0  0  0  0  0  0  0  0  0  0  0  0
    0.5755   -0.3742    3.5981 C   0  0  2  0  0  0  0  0  0  0  0  0
    1.2811   -1.6829    3.1689 C   0  0  0  0  0  0  0  0  0  0  0  0
    1.4734    0.8567    4.1858 C   0  0  2  0  0  0  0  0  0  0  0  0
    2.0714    1.4710    2.8658 C   0  0  0  0  0  0  0  0  0  0  0  0
    0.3457    1.8178    4.8463 C   0  0  1  0  0  0  0  0  0  0  0  0
    0.8401    3.1832    5.3998 C   0  0  0  0  0  0  0  0  0  0  0  0
    0.0498    4.3337    4.7378 C   0  0  1  0  0  0  0  0  0  0  0  0
    0.9935    5.0651    3.7466 C   0  0  0  0  0  0  0  0  0  0  0  0
   -1.1546    3.6479    4.0741 C   0  0  1  0  0  0  0  0  0  0  0  0
   -2.3883    3.5382    4.9693 C   0  0  0  0  0  0  0  0  0  0  0  0
   -1.5629    4.3112    2.8571 O   0  0  0  0  0  0  0  0  0  0  0  0
   -0.6256    2.2594    3.6976 C   0  0  0  0  0  0  0  0  0  0  0  0
   -0.3645    1.0299    6.0044 C   0  0  0  0  0  0  0  0  0  0  0  0
    0.1766   -5.3901    5.3011 H   0  0  0  0  0  0  0  0  0  0  0  0
    1.3058   -4.4194    6.2469 H   0  0  0  0  0  0  0  0  0  0  0  0
    1.8515   -5.1828    4.7595 H   0  0  0  0  0  0  0  0  0  0  0  0
    3.5825   -1.1816    6.3081 H   0  0  0  0  0  0  0  0  0  0  0  0
    4.2835   -2.6723    4.5465 H   0  0  0  0  0  0  0  0  0  0  0  0
    5.1822   -1.1853    4.6849 H   0  0  0  0  0  0  0  0  0  0  0  0
    4.0821   -1.3768    3.3600 H   0  0  0  0  0  0  0  0  0  0  0  0
    3.7134    1.9323    4.2431 H   0  0  0  0  0  0  0  0  0  0  0  0
    4.0138    0.6831    6.9291 H   0  0  0  0  0  0  0  0  0  0  0  0
    4.1558    2.5610    6.2565 H   0  0  0  0  0  0  0  0  0  0  0  0
    2.8191    0.6558    8.6893 H   0  0  0  0  0  0  0  0  0  0  0  0
    1.4877    1.4622    8.1106 H   0  0  0  0  0  0  0  0  0  0  0  0
    2.2524   -1.4540    8.1374 H   0  0  0  0  0  0  0  0  0  0  0  0
   -0.3945   -0.1449    8.8927 H   0  0  0  0  0  0  0  0  0  0  0  0
    0.9845   -0.3383    9.9739 H   0  0  0  0  0  0  0  0  0  0  0  0
    0.1681   -1.7462    9.3730 H   0  0  0  0  0  0  0  0  0  0  0  0
    0.7823   -3.1208    7.2671 H   0  0  0  0  0  0  0  0  0  0  0  0
   -1.2948   -0.8097    6.4779 H   0  0  0  0  0  0  0  0  0  0  0  0
   -0.9652   -1.8474    4.2985 H   0  0  0  0  0  0  0  0  0  0  0  0
   -1.5691   -0.2750    4.1613 H   0  0  0  0  0  0  0  0  0  0  0  0
    0.1325   -0.0263    2.6728 H   0  0  0  0  0  0  0  0  0  0  0  0
    2.1823   -1.4694    2.5920 H   0  0  0  0  0  0  0  0  0  0  0  0
    0.6301   -2.2424    2.4882 H   0  0  0  0  0  0  0  0  0  0  0  0
    1.3422    1.5830    2.0816 H   0  0  0  0  0  0  0  0  0  0  0  0
    2.8814    0.8764    2.4455 H   0  0  0  0  0  0  0  0  0  0  0  0
    2.5057    2.4603    3.0284 H   0  0  0  0  0  0  0  0  0  0  0  0
    0.7328    3.2386    6.4855 H   0  0  0  0  0  0  0  0  0  0  0  0
    1.9061    3.3520    5.2001 H   0  0  0  0  0  0  0  0  0  0  0  0
   -0.2564    5.0469    5.5117 H   0  0  0  0  0  0  0  0  0  0  0  0
    1.4072    4.3689    3.0195 H   0  0  0  0  0  0  0  0  0  0  0  0
    1.8474    5.5382    4.2607 H   0  0  0  0  0  0  0  0  0  0  0  0
    0.4893    5.8390    3.1850 H   0  0  0  0  0  0  0  0  0  0  0  0
   -2.2202    3.1284    5.9666 H   0  0  0  0  0  0  0  0  0  0  0  0
   -3.1858    3.0064    4.4535 H   0  0  0  0  0  0  0  0  0  0  0  0
   -2.7751    4.5603    5.1321 H   0  0  0  0  0  0  0  0  0  0  0  0
   -0.8340    4.2653    2.2520 H   0  0  0  0  0  0  0  0  0  0  0  0
   -0.1375    2.4106    2.7744 H   0  0  0  0  0  0  0  0  0  0  0  0
   -1.5209    1.6256    3.5607 H   0  0  0  0  0  0  0  0  0  0  0  0
   -1.4175    1.2683    5.9463 H   0  0  0  0  0  0  0  0  0  0  0  0
   -0.1621    1.3542    7.0322 H   0  0  0  0  0  0  0  0  0  0  0  0
  1  2  1  0
  1 31  1  0
  1 32  1  0
  1 33  1  0
  2  3  1  0
  3 19  1  0
  3  4  2  0
  4 14  1  0
  4  5  1  0
  5  6  1  0
  5  7  1  0
  5 34  1  1
  6 35  1  0
  6 36  1  0
  6 37  1  0
  7 20  1  0
  7  8  1  6
  7  9  1  0
  8 38  1  0
  9 10  1  0
  9 11  1  0
  9 39  1  1
 10 40  1  0
 11 12  1  0
 11 41  1  0
 11 42  1  0
 12 13  1  0
 12 14  1  0
 12 43  1  1
 13 44  1  0
 13 45  1  0
 13 46  1  0
 14 15  1  1
 14 16  1  0
 15 47  1  0
 16 30  1  0
 16 17  1  0
 16 48  1  1
 17 18  1  0
 17 49  1  0
 17 50  1  0
 18 19  1  0
 18 20  1  0
 18 51  1  6
 19 52  1  0
 19 53  1  0
 20 21  1  6
 20 22  1  0
 21 54  1  0
 21 55  1  0
 21 56  1  0
 22 29  1  6
 22 23  1  0
 22 30  1  0
 23 24  1  0
 23 57  1  0
 23 58  1  0
 24 25  1  0
 24 26  1  0
 24 59  1  1
 25 60  1  0
 25 61  1  0
 25 62  1  0
 26 27  1  0
 26 28  1  6
 26 29  1  0
 27 63  1  0
 27 64  1  0
 27 65  1  0
 28 66  1  0
 29 67  1  0
 29 68  1  0
 30 69  1  0
 30 70  1  0
M  END
>  <i_m_ct_stereo_status>  (337) 
1

>  <s_m_source_file>  (337) 
/var/tmp/pbs.5076255.sched01/tmpm28zzdm2/1449lyhn0we.sdf

>  <i_m_source_file_index>  (337) 
6

>  <i_lp_mmshare_version>  (337) 
48012

>  <i_f3d_flags>  (337) 
0

>  <s_epik_input>  (337) 
W0NIM11PQz0xW0NIMl1bQ0BIXTJbQ0gyXVtDQEhdKFtDSDJdMylbQ0BdKFtPSF0pKFtDQEhdKFtDSDNdKVtDSDJdW0NAQEhdNFtPSF0pQzFbQ0BASF0oW0NIM10pW0NAQF00KFtPSF0pW0NAXTIoW0NIM10pW0NAXTM1W0NIMl1bQ0BASF0oW0NIM10pW0NAQF0oW0NIM10pKFtPSF0pW0NIMl01

>  <s_epik_cmdline>  (337) 
J2VwaWtfcHl0aG9uJywgJy1waHQnLCAnMi4wJywgJy1waCcsICc3LjAnLCAnLXRuJywgJzgnLCAnLW1hJywgJzIwMCcsICctaW1hZScsICc8aW5maWxlLm1hZT4nLCAnLW9tYWUnLCAnPG91dGZpbGUubWFlPic=

>  <r_lp_tautomer_probability>  (337) 
1

>  <r_epik_Ionization_Penalty>  (337) 
1.95179e-06

>  <r_epik_Ionization_Penalty_Charging>  (337) 
0

>  <r_epik_Ionization_Penalty_Neutral>  (337) 
1.95179e-06

>  <r_epik_State_Penalty>  (337) 
-0

>  <r_epik_Charging_Adjusted_Penalty>  (337) 
0

>  <i_epik_Tot_Q>  (337) 
0

>  <i_epik_Tot_abs_Q>  (337) 
0

>  <s_lp_Force_Field>  (337) 
OPLS3e

>  <r_lp_Energy>  (337) 
174.842

>  <b_lp_Chiralities_Consistent>  (337) 
1

>  <s_lp_Variant>  (337) 
97:0-1

>  <s_i_glide_gridfile>  (337) 
pfpi4k_grid

>  <i_i_glide_lignum>  (337) 
6

>  <i_i_glide_rotatable_bonds>  (337) 
5

>  <r_i_docking_score>  (337) 
-2.32599

>  <r_i_glide_ligand_efficiency>  (337) 
-0.0775328

>  <r_i_glide_ligand_efficiency_sa>  (337) 
-0.240913

>  <r_i_glide_ligand_efficiency_ln>  (337) 
-0.528489

>  <r_i_glide_gscore>  (337) 
-2.32599

>  <r_i_glide_lipo>  (337) 
-0.0256861

>  <r_i_glide_hbond>  (337) 
-0.161254

>  <r_i_glide_metal>  (337) 
-0

>  <r_i_glide_rewards>  (337) 
-0.541486

>  <r_i_glide_evdw>  (337) 
-14.2784

>  <r_i_glide_ecoul>  (337) 
-5.89093

>  <r_i_glide_erotb>  (337) 
0

>  <r_i_glide_esite>  (337) 
0

>  <r_i_glide_emodel>  (337) 
-21.9736

>  <r_i_glide_energy>  (337) 
-20.1693

>  <r_i_glide_einternal>  (337) 
0.716221

>  <r_i_glide_intrahb_reward>  (337) 
-0

>  <i_i_glide_confnum>  (337) 
2

>  <i_i_glide_posenum>  (337) 
7

>  <r_i_glide_eff_state_penalty>  (337) 
0

>  <ligand_id>  (337) 
97

>  <original_smiles>  (337) 
COC1=C2C(C)C3(O)C(O)CC(C)C2(O)C2CC(C1)C3(C)C1(CC(C)C(C)(O)C1)C2

>  <smiles>  (337) 
[H]OC1([H])C([H])([H])C([H])(C([H])([H])[H])C2(O[H])C3=C(OC([H])([H])[H])C([H])([H])C4([H])C([H])([H])C2([H])C([H])([H])C2(C([H])([H])C([H])(C([H])([H])[H])C(O[H])(C([H])([H])[H])C2([H])[H])C4(C([H])([H])[H])C1(O[H])C3([H])C([H])([H])[H]

$$$$
97:0:2
     RDKit          3D

 70 74  0  0  1  0  0  0  0  0999 V2000
    1.1451   -4.8794    4.8803 C   0  0  0  0  0  0  0  0  0  0  0  0
    0.7092   -3.7632    4.1103 O   0  0  0  0  0  0  0  0  0  0  0  0
    1.5688   -2.6914    4.1318 C   0  0  0  0  0  0  0  0  0  0  0  0
    1.8972   -2.0269    5.2693 C   0  0  0  0  0  0  0  0  0  0  0  0
    3.0982   -1.1291    5.1381 C   0  0  1  0  0  0  0  0  0  0  0  0
    4.2243   -1.6230    4.1903 C   0  0  0  0  0  0  0  0  0  0  0  0
    2.7079    0.3905    5.0248 C   0  0  2  0  0  0  0  0  0  0  0  0
    3.8723    1.0189    4.4770 O   0  0  0  0  0  0  0  0  0  0  0  0
    2.9439    0.8852    6.5151 C   0  0  1  0  0  0  0  0  0  0  0  0
    3.2200    2.2579    6.6858 O   0  0  0  0  0  0  0  0  0  0  0  0
    2.0772    0.3885    7.6877 C   0  0  0  0  0  0  0  0  0  0  0  0
    1.4467   -1.0381    7.6745 C   0  0  1  0  0  0  0  0  0  0  0  0
    0.4803   -1.1170    8.8862 C   0  0  0  0  0  0  0  0  0  0  0  0
    0.8274   -1.6168    6.3350 C   0  0  2  0  0  0  0  0  0  0  0  0
    0.1774   -2.7885    6.7465 O   0  0  0  0  0  0  0  0  0  0  0  0
   -0.4014   -0.8013    5.7432 C   0  0  2  0  0  0  0  0  0  0  0  0
   -0.6681   -1.0464    4.2678 C   0  0  0  0  0  0  0  0  0  0  0  0
    0.5497   -0.5231    3.4239 C   0  0  2  0  0  0  0  0  0  0  0  0
    1.3063   -1.7743    2.9307 C   0  0  0  0  0  0  0  0  0  0  0  0
    1.3880    0.7261    4.0648 C   0  0  2  0  0  0  0  0  0  0  0  0
    1.9949    1.4007    2.7406 C   0  0  0  0  0  0  0  0  0  0  0  0
    0.2514    1.5926    4.7302 C   0  0  1  0  0  0  0  0  0  0  0  0
    0.6690    2.9653    5.3568 C   0  0  0  0  0  0  0  0  0  0  0  0
   -0.1725    4.1068    4.7478 C   0  0  1  0  0  0  0  0  0  0  0  0
    0.7497    4.9183    3.7852 C   0  0  0  0  0  0  0  0  0  0  0  0
   -1.3497    3.4058    4.0604 C   0  0  1  0  0  0  0  0  0  0  0  0
   -2.5981    3.2490    4.9536 C   0  0  0  0  0  0  0  0  0  0  0  0
   -1.7889    4.1206    2.8857 O   0  0  0  0  0  0  0  0  0  0  0  0
   -0.8142    2.0700    3.6426 C   0  0  0  0  0  0  0  0  0  0  0  0
   -0.4540    0.7305    5.8925 C   0  0  0  0  0  0  0  0  0  0  0  0
    0.3380   -5.6149    4.9134 H   0  0  0  0  0  0  0  0  0  0  0  0
    1.4289   -4.6469    5.9009 H   0  0  0  0  0  0  0  0  0  0  0  0
    2.0091   -5.3303    4.3922 H   0  0  0  0  0  0  0  0  0  0  0  0
    3.5832   -1.3198    6.0913 H   0  0  0  0  0  0  0  0  0  0  0  0
    4.3453   -2.7091    4.2749 H   0  0  0  0  0  0  0  0  0  0  0  0
    5.1866   -1.1928    4.4703 H   0  0  0  0  0  0  0  0  0  0  0  0
    4.0937   -1.3846    3.1352 H   0  0  0  0  0  0  0  0  0  0  0  0
    3.8423    0.8795    3.5480 H   0  0  0  0  0  0  0  0  0  0  0  0
    3.9425    0.5357    6.7859 H   0  0  0  0  0  0  0  0  0  0  0  0
    3.8737    2.4610    6.0350 H   0  0  0  0  0  0  0  0  0  0  0  0
    2.7464    0.3901    8.5462 H   0  0  0  0  0  0  0  0  0  0  0  0
    1.3843    1.1620    7.9930 H   0  0  0  0  0  0  0  0  0  0  0  0
    2.2659   -1.7159    7.9048 H   0  0  0  0  0  0  0  0  0  0  0  0
   -0.4241   -0.5406    8.7083 H   0  0  0  0  0  0  0  0  0  0  0  0
    0.9581   -0.7302    9.7888 H   0  0  0  0  0  0  0  0  0  0  0  0
    0.1931   -2.1398    9.1261 H   0  0  0  0  0  0  0  0  0  0  0  0
    0.8559   -3.4002    6.9742 H   0  0  0  0  0  0  0  0  0  0  0  0
   -1.3018   -1.1573    6.2648 H   0  0  0  0  0  0  0  0  0  0  0  0
   -0.9231   -2.0971    4.0850 H   0  0  0  0  0  0  0  0  0  0  0  0
   -1.6038   -0.5530    3.9849 H   0  0  0  0  0  0  0  0  0  0  0  0
    0.0953   -0.1551    2.4995 H   0  0  0  0  0  0  0  0  0  0  0  0
    2.1991   -1.5131    2.3637 H   0  0  0  0  0  0  0  0  0  0  0  0
    0.6562   -2.2738    2.2161 H   0  0  0  0  0  0  0  0  0  0  0  0
    1.2577    1.5113    1.9357 H   0  0  0  0  0  0  0  0  0  0  0  0
    2.8204    0.8488    2.3054 H   0  0  0  0  0  0  0  0  0  0  0  0
    2.3765    2.3925    2.9605 H   0  0  0  0  0  0  0  0  0  0  0  0
    0.5595    2.9666    6.4387 H   0  0  0  0  0  0  0  0  0  0  0  0
    1.7222    3.1787    5.1541 H   0  0  0  0  0  0  0  0  0  0  0  0
   -0.5059    4.7801    5.5500 H   0  0  0  0  0  0  0  0  0  0  0  0
    1.1854    4.2669    3.0255 H   0  0  0  0  0  0  0  0  0  0  0  0
    1.5731    5.3983    4.3110 H   0  0  0  0  0  0  0  0  0  0  0  0
    0.2096    5.6957    3.2449 H   0  0  0  0  0  0  0  0  0  0  0  0
   -2.4122    2.7867    5.9202 H   0  0  0  0  0  0  0  0  0  0  0  0
   -3.3497    2.6790    4.3910 H   0  0  0  0  0  0  0  0  0  0  0  0
   -2.9548    4.2553    5.1557 H   0  0  0  0  0  0  0  0  0  0  0  0
   -1.0381    4.1475    2.3115 H   0  0  0  0  0  0  0  0  0  0  0  0
   -0.3026    2.2721    2.6932 H   0  0  0  0  0  0  0  0  0  0  0  0
   -1.6567    1.3954    3.4552 H   0  0  0  0  0  0  0  0  0  0  0  0
   -1.5048    0.9152    5.8116 H   0  0  0  0  0  0  0  0  0  0  0  0
   -0.2648    1.0358    6.9032 H   0  0  0  0  0  0  0  0  0  0  0  0
  1  2  1  0
  1 31  1  0
  1 32  1  0
  1 33  1  0
  2  3  1  0
  3 19  1  0
  3  4  2  0
  4 14  1  0
  4  5  1  0
  5  6  1  0
  5  7  1  0
  5 34  1  1
  6 35  1  0
  6 36  1  0
  6 37  1  0
  7 20  1  0
  7  8  1  6
  7  9  1  0
  8 38  1  0
  9 10  1  0
  9 11  1  0
  9 39  1  1
 10 40  1  0
 11 12  1  0
 11 41  1  0
 11 42  1  0
 12 13  1  0
 12 14  1  0
 12 43  1  1
 13 44  1  0
 13 45  1  0
 13 46  1  0
 14 15  1  1
 14 16  1  0
 15 47  1  0
 16 30  1  0
 16 17  1  0
 16 48  1  1
 17 18  1  0
 17 49  1  0
 17 50  1  0
 18 19  1  0
 18 20  1  0
 18 51  1  6
 19 52  1  0
 19 53  1  0
 20 21  1  6
 20 22  1  0
 21 54  1  0
 21 55  1  0
 21 56  1  0
 22 29  1  6
 22 23  1  0
 22 30  1  0
 23 24  1  0
 23 57  1  0
 23 58  1  0
 24 25  1  0
 24 26  1  0
 24 59  1  1
 25 60  1  0
 25 61  1  0
 25 62  1  0
 26 27  1  0
 26 28  1  6
 26 29  1  0
 27 63  1  0
 27 64  1  0
 27 65  1  0
 28 66  1  0
 29 67  1  0
 29 68  1  0
 30 69  1  0
 30 70  1  0
M  END
>  <i_m_ct_stereo_status>  (338) 
1

>  <s_m_source_file>  (338) 
/var/tmp/pbs.5076255.sched01/tmpm28zzdm2/1449lyhn0we.sdf

>  <i_m_source_file_index>  (338) 
6

>  <i_lp_mmshare_version>  (338) 
48012

>  <i_f3d_flags>  (338) 
0

>  <s_epik_input>  (338) 
W0NIM11PQz0xW0NIMl1bQ0BIXTJbQ0gyXVtDQEhdKFtDSDJdMylbQ0BdKFtPSF0pKFtDQEhdKFtDSDNdKVtDSDJdW0NAQEhdNFtPSF0pQzFbQ0BASF0oW0NIM10pW0NAQF00KFtPSF0pW0NAXTIoW0NIM10pW0NAXTM1W0NIMl1bQ0BASF0oW0NIM10pW0NAQF0oW0NIM10pKFtPSF0pW0NIMl01

>  <s_epik_cmdline>  (338) 
J2VwaWtfcHl0aG9uJywgJy1waHQnLCAnMi4wJywgJy1waCcsICc3LjAnLCAnLXRuJywgJzgnLCAnLW1hJywgJzIwMCcsICctaW1hZScsICc8aW5maWxlLm1hZT4nLCAnLW9tYWUnLCAnPG91dGZpbGUubWFlPic=

>  <r_lp_tautomer_probability>  (338) 
1

>  <r_epik_Ionization_Penalty>  (338) 
1.95179e-06

>  <r_epik_Ionization_Penalty_Charging>  (338) 
0

>  <r_epik_Ionization_Penalty_Neutral>  (338) 
1.95179e-06

>  <r_epik_State_Penalty>  (338) 
-0

>  <r_epik_Charging_Adjusted_Penalty>  (338) 
0

>  <i_epik_Tot_Q>  (338) 
0

>  <i_epik_Tot_abs_Q>  (338) 
0

>  <s_lp_Force_Field>  (338) 
OPLS3e

>  <r_lp_Energy>  (338) 
174.842

>  <b_lp_Chiralities_Consistent>  (338) 
1

>  <s_lp_Variant>  (338) 
97:0-1

>  <s_i_glide_gridfile>  (338) 
pfpi4k_grid

>  <i_i_glide_lignum>  (338) 
6

>  <i_i_glide_rotatable_bonds>  (338) 
5

>  <r_i_docking_score>  (338) 
-2.26918

>  <r_i_glide_ligand_efficiency>  (338) 
-0.0756395

>  <r_i_glide_ligand_efficiency_sa>  (338) 
-0.235029

>  <r_i_glide_ligand_efficiency_ln>  (338) 
-0.515583

>  <r_i_glide_gscore>  (338) 
-2.26918

>  <r_i_glide_lipo>  (338) 
-0.0323864

>  <r_i_glide_hbond>  (338) 
-0.16

>  <r_i_glide_metal>  (338) 
-0

>  <r_i_glide_rewards>  (338) 
-0.541486

>  <r_i_glide_evdw>  (338) 
-17.1331

>  <r_i_glide_ecoul>  (338) 
-4.52438

>  <r_i_glide_erotb>  (338) 
0

>  <r_i_glide_esite>  (338) 
0

>  <r_i_glide_emodel>  (338) 
-23.1958

>  <r_i_glide_energy>  (338) 
-21.6575

>  <r_i_glide_einternal>  (338) 
0.554782

>  <r_i_glide_intrahb_reward>  (338) 
-0

>  <i_i_glide_confnum>  (338) 
4

>  <i_i_glide_posenum>  (338) 
13

>  <r_i_glide_eff_state_penalty>  (338) 
0

>  <ligand_id>  (338) 
97

>  <original_smiles>  (338) 
COC1=C2C(C)C3(O)C(O)CC(C)C2(O)C2CC(C1)C3(C)C1(CC(C)C(C)(O)C1)C2

>  <smiles>  (338) 
[H]OC1([H])C([H])([H])C([H])(C([H])([H])[H])C2(O[H])C3=C(OC([H])([H])[H])C([H])([H])C4([H])C([H])([H])C2([H])C([H])([H])C2(C([H])([H])C([H])(C([H])([H])[H])C(O[H])(C([H])([H])[H])C2([H])[H])C4(C([H])([H])[H])C1(O[H])C3([H])C([H])([H])[H]

$$$$
98:0:0
     RDKit          3D

 36 40  0  0  1  0  0  0  0  0999 V2000
    5.8126   -1.5226    2.4547 O   0  0  0  0  0  0  0  0  0  0  0  0
    5.2013   -1.8429    1.4123 C   0  0  0  0  0  0  0  0  0  0  0  0
    5.3125   -0.6967    0.4084 C   0  0  0  0  0  0  0  0  0  0  0  0
    5.1343   -1.1175   -1.0638 C   0  0  0  0  0  0  0  0  0  0  0  0
    4.1364   -2.2344   -1.2143 C   0  0  0  0  0  0  0  0  0  0  0  0
    3.8429   -3.0817   -0.2164 C   0  0  0  0  0  0  0  0  0  0  0  0
    2.9265   -4.0926   -0.4219 N   0  0  0  0  0  0  0  0  0  0  0  0
    2.5781   -5.0076    0.5557 C   0  0  0  0  0  0  0  0  0  0  0  0
    1.5635   -5.8598    0.4437 N   0  0  0  0  0  0  0  0  0  0  0  0
    1.6631   -6.5620    1.6314 C   0  0  0  0  0  0  0  0  0  0  0  0
    0.8995   -7.6453    2.1087 C   0  0  0  0  0  0  0  0  0  0  0  0
    1.1740   -8.2078    3.3725 C   0  0  0  0  0  0  0  0  0  0  0  0
    0.2275   -9.5284    3.9315 Cl  0  0  0  0  0  0  0  0  0  0  0  0
    2.2079   -7.6918    4.1801 C   0  0  0  0  0  0  0  0  0  0  0  0
    2.9795   -6.6069    3.7234 C   0  0  0  0  0  0  0  0  0  0  0  0
    2.7143   -6.0591    2.4536 C   0  0  0  0  0  0  0  0  0  0  0  0
    3.2844   -5.0366    1.7088 N   0  0  0  0  0  0  0  0  0  0  0  0
    4.4007   -4.1660    2.0547 C   0  0  1  0  0  0  0  0  0  0  0  0
    5.6760   -4.9516    2.1381 C   0  0  0  0  0  0  0  0  0  0  0  0
    6.0704   -5.6077    3.2373 N   0  0  0  0  0  0  0  0  0  0  0  0
    7.2929   -6.2616    3.0688 C   0  0  0  0  0  0  0  0  0  0  0  0
    7.8370   -6.0876    1.8227 C   0  0  0  0  0  0  0  0  0  0  0  0
    6.8355   -5.0911    0.8152 S   0  0  0  0  0  0  0  0  0  0  0  0
    4.5058   -2.9963    1.0834 C   0  0  0  0  0  0  0  0  0  0  0  0
    6.2691   -0.1811    0.5152 H   0  0  0  0  0  0  0  0  0  0  0  0
    4.5441    0.0333    0.6630 H   0  0  0  0  0  0  0  0  0  0  0  0
    4.7979   -0.2614   -1.6476 H   0  0  0  0  0  0  0  0  0  0  0  0
    6.0798   -1.4563   -1.4854 H   0  0  0  0  0  0  0  0  0  0  0  0
    3.6683   -2.3452   -2.1813 H   0  0  0  0  0  0  0  0  0  0  0  0
    0.1150   -8.0571    1.4921 H   0  0  0  0  0  0  0  0  0  0  0  0
    2.4166   -8.1320    5.1456 H   0  0  0  0  0  0  0  0  0  0  0  0
    3.7775   -6.2098    4.3299 H   0  0  0  0  0  0  0  0  0  0  0  0
    4.1896   -3.7523    3.0402 H   0  0  0  0  0  0  0  0  0  0  0  0
    7.7009   -6.8299    3.8882 H   0  0  0  0  0  0  0  0  0  0  0  0
    8.7656   -6.4852    1.4440 H   0  0  0  0  0  0  0  0  0  0  0  0
    2.5057   -4.2091   -1.3339 H   0  0  0  0  0  0  0  0  0  0  0  0
  1  2  1  0
  2  3  1  0
  2 24  2  0
  3  4  1  0
  3 25  1  0
  3 26  1  0
  4  5  1  0
  4 27  1  0
  4 28  1  0
  5 29  1  0
  5  6  2  0
  6 24  1  0
  6  7  1  0
  7  8  1  0
  7 36  1  0
  8 17  1  0
  8  9  2  0
  9 10  1  0
 10 16  2  0
 10 11  1  0
 11 12  2  0
 11 30  1  0
 12 13  1  0
 12 14  1  0
 14 15  2  0
 14 31  1  0
 15 16  1  0
 15 32  1  0
 16 17  1  0
 17 18  1  0
 18 19  1  0
 18 33  1  1
 18 24  1  0
 19 23  1  0
 19 20  2  0
 20 21  1  0
 21 22  2  0
 21 34  1  0
 22 23  1  0
 22 35  1  0
M  CHG  1   1  -1
M  END
>  <i_m_ct_stereo_status>  (339) 
1

>  <s_m_source_file>  (339) 
/var/tmp/pbs.5076255.sched01/tmpm28zzdm2/1449lyhn0we.sdf

>  <i_m_source_file_index>  (339) 
7

>  <i_lp_mmshare_version>  (339) 
48012

>  <i_f3d_flags>  (339) 
0

>  <s_epik_input>  (339) 
W0NIMl0xW0NIMl1bQ0gyXUMoPU8pW0NAQEhdKEMxPTIpW0NASF0oYzNuW2NIXVtjSF1zMyluNGMoTjIpbmM1YzRbY0hdW2NIXWMoQ2wpW2NIXTU=

>  <s_epik_cmdline>  (339) 
J2VwaWtfcHl0aG9uJywgJy1waHQnLCAnMi4wJywgJy1waCcsICc3LjAnLCAnLXRuJywgJzgnLCAnLW1hJywgJzIwMCcsICctaW1hZScsICc8aW5maWxlLm1hZT4nLCAnLW9tYWUnLCAnPG91dGZpbGUubWFlPic=

>  <r_epik_Ionization_Penalty>  (339) 
0.395823

>  <r_epik_Ionization_Penalty_Charging>  (339) 
0.395822

>  <r_epik_Ionization_Penalty_Neutral>  (339) 
3.99136e-07

>  <r_epik_State_Penalty>  (339) 
0.394839

>  <r_epik_Charging_Adjusted_Penalty>  (339) 
0.790661

>  <i_epik_Tot_Q>  (339) 
-1

>  <i_epik_Tot_abs_Q>  (339) 
1

>  <s_epik_Chemistry_Notes>  (339) 
This compound has an imine and may undergo hydrolysis.

>  <s_lp_Force_Field>  (339) 
OPLS3e

>  <r_lp_Energy>  (339) 
19.4316

>  <b_lp_Chiralities_Consistent>  (339) 
1

>  <s_lp_Variant>  (339) 
98:0-1

>  <s_i_glide_gridfile>  (339) 
pfpi4k_grid

>  <i_i_glide_lignum>  (339) 
7

>  <i_i_glide_rotatable_bonds>  (339) 
1

>  <r_i_docking_score>  (339) 
-3.20936

>  <r_i_glide_ligand_efficiency>  (339) 
-0.133723

>  <r_i_glide_ligand_efficiency_sa>  (339) 
-0.385724

>  <r_i_glide_ligand_efficiency_ln>  (339) 
-0.768146

>  <r_i_glide_gscore>  (339) 
-3.20936

>  <r_i_glide_lipo>  (339) 
-0.390692

>  <r_i_glide_hbond>  (339) 
-0.175944

>  <r_i_glide_metal>  (339) 
-0

>  <r_i_glide_rewards>  (339) 
-0.98819

>  <r_i_glide_evdw>  (339) 
-26.2637

>  <r_i_glide_ecoul>  (339) 
-2.77678

>  <r_i_glide_erotb>  (339) 
0.151056

>  <r_i_glide_esite>  (339) 
-0.0758856

>  <r_i_glide_emodel>  (339) 
-35.8862

>  <r_i_glide_energy>  (339) 
-29.0405

>  <r_i_glide_einternal>  (339) 
0.723874

>  <r_i_glide_intrahb_reward>  (339) 
-0

>  <i_i_glide_confnum>  (339) 
1

>  <i_i_glide_posenum>  (339) 
2

>  <r_i_glide_eff_state_penalty>  (339) 
0

>  <ligand_id>  (339) 
98

>  <original_smiles>  (339) 
O=C1CCCC2=Nc3nc4cc(Cl)ccc4n3C(c3nccs3)C12

>  <smiles>  (339) 
[H]C1=C2C(=C([O-])C([H])([H])C1([H])[H])C([H])(c1nc([H])c([H])s1)n1c(nc3c([H])c(Cl)c([H])c([H])c31)N2[H]

$$$$
98:0:1
     RDKit          3D

 36 40  0  0  1  0  0  0  0  0999 V2000
    7.3610   -5.4615    3.0469 O   0  0  0  0  0  0  0  0  0  0  0  0
    6.7465   -5.0940    2.0241 C   0  0  0  0  0  0  0  0  0  0  0  0
    7.5711   -4.0352    1.2867 C   0  0  0  0  0  0  0  0  0  0  0  0
    7.2984   -3.9004   -0.1934 C   0  0  0  0  0  0  0  0  0  0  0  0
    5.8447   -4.1626   -0.5012 C   0  0  0  0  0  0  0  0  0  0  0  0
    5.0341   -4.8646    0.3090 C   0  0  0  0  0  0  0  0  0  0  0  0
    3.7220   -5.0657   -0.0398 N   0  0  0  0  0  0  0  0  0  0  0  0
    2.8248   -5.7831    0.7324 C   0  0  0  0  0  0  0  0  0  0  0  0
    1.5217   -5.8641    0.4794 N   0  0  0  0  0  0  0  0  0  0  0  0
    1.1101   -6.7066    1.4945 C   0  0  0  0  0  0  0  0  0  0  0  0
   -0.1714   -7.2088    1.7711 C   0  0  0  0  0  0  0  0  0  0  0  0
   -0.3743   -8.0657    2.8706 C   0  0  0  0  0  0  0  0  0  0  0  0
   -1.9537   -8.6513    3.1759 Cl  0  0  0  0  0  0  0  0  0  0  0  0
    0.6946   -8.4410    3.7136 C   0  0  0  0  0  0  0  0  0  0  0  0
    1.9868   -7.9452    3.4491 C   0  0  0  0  0  0  0  0  0  0  0  0
    2.1823   -7.0878    2.3492 C   0  0  0  0  0  0  0  0  0  0  0  0
    3.2887   -6.4575    1.8055 N   0  0  0  0  0  0  0  0  0  0  0  0
    4.6688   -6.5154    2.2556 C   0  0  1  0  0  0  0  0  0  0  0  0
    5.2322   -7.8988    2.1068 C   0  0  0  0  0  0  0  0  0  0  0  0
    6.2062   -8.3797    2.8888 N   0  0  0  0  0  0  0  0  0  0  0  0
    6.6271   -9.6582    2.5190 C   0  0  0  0  0  0  0  0  0  0  0  0
    5.9130  -10.1619    1.4666 C   0  0  0  0  0  0  0  0  0  0  0  0
    4.7022   -9.0507    0.8861 S   0  0  0  0  0  0  0  0  0  0  0  0
    5.5160   -5.4798    1.5361 C   0  0  0  0  0  0  0  0  0  0  0  0
    8.6329   -4.1846    1.4806 H   0  0  0  0  0  0  0  0  0  0  0  0
    7.3170   -3.0680    1.6991 H   0  0  0  0  0  0  0  0  0  0  0  0
    7.5828   -2.9116   -0.5425 H   0  0  0  0  0  0  0  0  0  0  0  0
    7.9475   -4.6129   -0.6961 H   0  0  0  0  0  0  0  0  0  0  0  0
    5.4828   -3.7846   -1.4464 H   0  0  0  0  0  0  0  0  0  0  0  0
   -0.9856   -6.9551    1.1132 H   0  0  0  0  0  0  0  0  0  0  0  0
    0.5207   -9.1125    4.5505 H   0  0  0  0  0  0  0  0  0  0  0  0
    2.8231   -8.2299    4.0707 H   0  0  0  0  0  0  0  0  0  0  0  0
    4.6687   -6.2727    3.3145 H   0  0  0  0  0  0  0  0  0  0  0  0
    7.4306  -10.1392    3.0585 H   0  0  0  0  0  0  0  0  0  0  0  0
    5.9882  -11.1308    1.0018 H   0  0  0  0  0  0  0  0  0  0  0  0
    3.3859   -4.7606   -0.9441 H   0  0  0  0  0  0  0  0  0  0  0  0
  1  2  1  0
  2  3  1  0
  2 24  2  0
  3  4  1  0
  3 25  1  0
  3 26  1  0
  4  5  1  0
  4 27  1  0
  4 28  1  0
  5 29  1  0
  5  6  2  0
  6 24  1  0
  6  7  1  0
  7  8  1  0
  7 36  1  0
  8 17  1  0
  8  9  2  0
  9 10  1  0
 10 16  2  0
 10 11  1  0
 11 12  2  0
 11 30  1  0
 12 13  1  0
 12 14  1  0
 14 15  2  0
 14 31  1  0
 15 16  1  0
 15 32  1  0
 16 17  1  0
 17 18  1  0
 18 19  1  0
 18 33  1  1
 18 24  1  0
 19 23  1  0
 19 20  2  0
 20 21  1  0
 21 22  2  0
 21 34  1  0
 22 23  1  0
 22 35  1  0
M  CHG  1   1  -1
M  END
>  <i_m_ct_stereo_status>  (340) 
1

>  <s_m_source_file>  (340) 
/var/tmp/pbs.5076255.sched01/tmpm28zzdm2/1449lyhn0we.sdf

>  <i_m_source_file_index>  (340) 
7

>  <i_lp_mmshare_version>  (340) 
48012

>  <i_f3d_flags>  (340) 
0

>  <s_epik_input>  (340) 
W0NIMl0xW0NIMl1bQ0gyXUMoPU8pW0NAQEhdKEMxPTIpW0NASF0oYzNuW2NIXVtjSF1zMyluNGMoTjIpbmM1YzRbY0hdW2NIXWMoQ2wpW2NIXTU=

>  <s_epik_cmdline>  (340) 
J2VwaWtfcHl0aG9uJywgJy1waHQnLCAnMi4wJywgJy1waCcsICc3LjAnLCAnLXRuJywgJzgnLCAnLW1hJywgJzIwMCcsICctaW1hZScsICc8aW5maWxlLm1hZT4nLCAnLW9tYWUnLCAnPG91dGZpbGUubWFlPic=

>  <r_epik_Ionization_Penalty>  (340) 
0.395823

>  <r_epik_Ionization_Penalty_Charging>  (340) 
0.395822

>  <r_epik_Ionization_Penalty_Neutral>  (340) 
3.99136e-07

>  <r_epik_State_Penalty>  (340) 
0.394839

>  <r_epik_Charging_Adjusted_Penalty>  (340) 
0.790661

>  <i_epik_Tot_Q>  (340) 
-1

>  <i_epik_Tot_abs_Q>  (340) 
1

>  <s_epik_Chemistry_Notes>  (340) 
This compound has an imine and may undergo hydrolysis.

>  <s_lp_Force_Field>  (340) 
OPLS3e

>  <r_lp_Energy>  (340) 
19.4316

>  <b_lp_Chiralities_Consistent>  (340) 
1

>  <s_lp_Variant>  (340) 
98:0-1

>  <s_i_glide_gridfile>  (340) 
pfpi4k_grid

>  <i_i_glide_lignum>  (340) 
7

>  <i_i_glide_rotatable_bonds>  (340) 
1

>  <r_i_docking_score>  (340) 
-3.11764

>  <r_i_glide_ligand_efficiency>  (340) 
-0.129902

>  <r_i_glide_ligand_efficiency_sa>  (340) 
-0.374701

>  <r_i_glide_ligand_efficiency_ln>  (340) 
-0.746194

>  <r_i_glide_gscore>  (340) 
-3.11764

>  <r_i_glide_lipo>  (340) 
-0.463993

>  <r_i_glide_hbond>  (340) 
-0.245137

>  <r_i_glide_metal>  (340) 
-0

>  <r_i_glide_rewards>  (340) 
-1.02833

>  <r_i_glide_evdw>  (340) 
-22.1619

>  <r_i_glide_ecoul>  (340) 
-2.50101

>  <r_i_glide_erotb>  (340) 
0.151056

>  <r_i_glide_esite>  (340) 
-0.0479867

>  <r_i_glide_emodel>  (340) 
-31.217

>  <r_i_glide_energy>  (340) 
-24.6629

>  <r_i_glide_einternal>  (340) 
0.758595

>  <r_i_glide_intrahb_reward>  (340) 
-0

>  <i_i_glide_confnum>  (340) 
1

>  <i_i_glide_posenum>  (340) 
29

>  <r_i_glide_eff_state_penalty>  (340) 
0

>  <ligand_id>  (340) 
98

>  <original_smiles>  (340) 
O=C1CCCC2=Nc3nc4cc(Cl)ccc4n3C(c3nccs3)C12

>  <smiles>  (340) 
[H]C1=C2C(=C([O-])C([H])([H])C1([H])[H])C([H])(c1nc([H])c([H])s1)n1c(nc3c([H])c(Cl)c([H])c([H])c31)N2[H]

$$$$
98:0:2
     RDKit          3D

 36 40  0  0  1  0  0  0  0  0999 V2000
    6.2465   -1.1190   -0.0475 O   0  0  0  0  0  0  0  0  0  0  0  0
    5.2823   -1.7797   -0.5231 C   0  0  0  0  0  0  0  0  0  0  0  0
    4.9104   -1.1112   -1.8336 C   0  0  0  0  0  0  0  0  0  0  0  0
    4.1814   -2.0091   -2.8452 C   0  0  0  0  0  0  0  0  0  0  0  0
    3.2710   -2.9853   -2.1591 C   0  0  0  0  0  0  0  0  0  0  0  0
    3.4599   -3.3814   -0.8920 C   0  0  0  0  0  0  0  0  0  0  0  0
    2.5878   -4.2885   -0.3227 N   0  0  0  0  0  0  0  0  0  0  0  0
    2.7055   -4.7641    0.9762 C   0  0  0  0  0  0  0  0  0  0  0  0
    1.7874   -5.5253    1.5670 N   0  0  0  0  0  0  0  0  0  0  0  0
    2.3703   -5.7229    2.8099 C   0  0  0  0  0  0  0  0  0  0  0  0
    1.9314   -6.4719    3.9243 C   0  0  0  0  0  0  0  0  0  0  0  0
    2.7235   -6.5726    5.0919 C   0  0  0  0  0  0  0  0  0  0  0  0
    2.1484   -7.4946    6.4326 Cl  0  0  0  0  0  0  0  0  0  0  0  0
    3.9730   -5.9202    5.1666 C   0  0  0  0  0  0  0  0  0  0  0  0
    4.4222   -5.1498    4.0734 C   0  0  0  0  0  0  0  0  0  0  0  0
    3.6283   -5.0518    2.9132 C   0  0  0  0  0  0  0  0  0  0  0  0
    3.7989   -4.4229    1.6847 N   0  0  0  0  0  0  0  0  0  0  0  0
    4.9361   -3.6350    1.1992 C   0  0  1  0  0  0  0  0  0  0  0  0
    6.1720   -4.5052    1.0659 C   0  0  0  0  0  0  0  0  0  0  0  0
    6.2107   -5.8182    1.3518 N   0  0  0  0  0  0  0  0  0  0  0  0
    7.4662   -6.3995    1.1648 C   0  0  0  0  0  0  0  0  0  0  0  0
    8.3943   -5.5203    0.6837 C   0  0  0  0  0  0  0  0  0  0  0  0
    7.7513   -3.9146    0.5100 S   0  0  0  0  0  0  0  0  0  0  0  0
    4.5970   -2.9122   -0.0991 C   0  0  0  0  0  0  0  0  0  0  0  0
    5.7995   -0.7014   -2.3173 H   0  0  0  0  0  0  0  0  0  0  0  0
    4.2751   -0.2610   -1.5847 H   0  0  0  0  0  0  0  0  0  0  0  0
    3.5908   -1.3862   -3.5134 H   0  0  0  0  0  0  0  0  0  0  0  0
    4.8921   -2.5731   -3.4458 H   0  0  0  0  0  0  0  0  0  0  0  0
    2.4550   -3.3804   -2.7485 H   0  0  0  0  0  0  0  0  0  0  0  0
    0.9862   -6.9847    3.8654 H   0  0  0  0  0  0  0  0  0  0  0  0
    4.5863   -6.0100    6.0592 H   0  0  0  0  0  0  0  0  0  0  0  0
    5.3880   -4.6688    4.0966 H   0  0  0  0  0  0  0  0  0  0  0  0
    5.1383   -2.8797    1.9540 H   0  0  0  0  0  0  0  0  0  0  0  0
    7.5940   -7.4581    1.3660 H   0  0  0  0  0  0  0  0  0  0  0  0
    9.4149   -5.7339    0.4172 H   0  0  0  0  0  0  0  0  0  0  0  0
    1.8507   -4.6685   -0.8918 H   0  0  0  0  0  0  0  0  0  0  0  0
  1  2  1  0
  2  3  1  0
  2 24  2  0
  3  4  1  0
  3 25  1  0
  3 26  1  0
  4  5  1  0
  4 27  1  0
  4 28  1  0
  5 29  1  0
  5  6  2  0
  6 24  1  0
  6  7  1  0
  7  8  1  0
  7 36  1  0
  8 17  1  0
  8  9  2  0
  9 10  1  0
 10 16  2  0
 10 11  1  0
 11 12  2  0
 11 30  1  0
 12 13  1  0
 12 14  1  0
 14 15  2  0
 14 31  1  0
 15 16  1  0
 15 32  1  0
 16 17  1  0
 17 18  1  0
 18 19  1  0
 18 33  1  1
 18 24  1  0
 19 23  1  0
 19 20  2  0
 20 21  1  0
 21 22  2  0
 21 34  1  0
 22 23  1  0
 22 35  1  0
M  CHG  1   1  -1
M  END
>  <i_m_ct_stereo_status>  (341) 
1

>  <s_m_source_file>  (341) 
/var/tmp/pbs.5076255.sched01/tmpm28zzdm2/1449lyhn0we.sdf

>  <i_m_source_file_index>  (341) 
7

>  <i_lp_mmshare_version>  (341) 
48012

>  <i_f3d_flags>  (341) 
0

>  <s_epik_input>  (341) 
W0NIMl0xW0NIMl1bQ0gyXUMoPU8pW0NAQEhdKEMxPTIpW0NASF0oYzNuW2NIXVtjSF1zMyluNGMoTjIpbmM1YzRbY0hdW2NIXWMoQ2wpW2NIXTU=

>  <s_epik_cmdline>  (341) 
J2VwaWtfcHl0aG9uJywgJy1waHQnLCAnMi4wJywgJy1waCcsICc3LjAnLCAnLXRuJywgJzgnLCAnLW1hJywgJzIwMCcsICctaW1hZScsICc8aW5maWxlLm1hZT4nLCAnLW9tYWUnLCAnPG91dGZpbGUubWFlPic=

>  <r_epik_Ionization_Penalty>  (341) 
0.395823

>  <r_epik_Ionization_Penalty_Charging>  (341) 
0.395822

>  <r_epik_Ionization_Penalty_Neutral>  (341) 
3.99136e-07

>  <r_epik_State_Penalty>  (341) 
0.394839

>  <r_epik_Charging_Adjusted_Penalty>  (341) 
0.790661

>  <i_epik_Tot_Q>  (341) 
-1

>  <i_epik_Tot_abs_Q>  (341) 
1

>  <s_epik_Chemistry_Notes>  (341) 
This compound has an imine and may undergo hydrolysis.

>  <s_lp_Force_Field>  (341) 
OPLS3e

>  <r_lp_Energy>  (341) 
19.4316

>  <b_lp_Chiralities_Consistent>  (341) 
1

>  <s_lp_Variant>  (341) 
98:0-1

>  <s_i_glide_gridfile>  (341) 
pfpi4k_grid

>  <i_i_glide_lignum>  (341) 
7

>  <i_i_glide_rotatable_bonds>  (341) 
1

>  <r_i_docking_score>  (341) 
-2.60961

>  <r_i_glide_ligand_efficiency>  (341) 
-0.108734

>  <r_i_glide_ligand_efficiency_sa>  (341) 
-0.313643

>  <r_i_glide_ligand_efficiency_ln>  (341) 
-0.624601

>  <r_i_glide_gscore>  (341) 
-2.60961

>  <r_i_glide_lipo>  (341) 
-0.4372

>  <r_i_glide_hbond>  (341) 
-0.0907689

>  <r_i_glide_metal>  (341) 
-0

>  <r_i_glide_rewards>  (341) 
-0.994576

>  <r_i_glide_evdw>  (341) 
-25.7105

>  <r_i_glide_ecoul>  (341) 
0.831446

>  <r_i_glide_erotb>  (341) 
0.151056

>  <r_i_glide_esite>  (341) 
-0.0773199

>  <r_i_glide_emodel>  (341) 
-28.8976

>  <r_i_glide_energy>  (341) 
-24.879

>  <r_i_glide_einternal>  (341) 
3.41094

>  <r_i_glide_intrahb_reward>  (341) 
-0

>  <i_i_glide_confnum>  (341) 
3

>  <i_i_glide_posenum>  (341) 
10

>  <r_i_glide_eff_state_penalty>  (341) 
0

>  <ligand_id>  (341) 
98

>  <original_smiles>  (341) 
O=C1CCCC2=Nc3nc4cc(Cl)ccc4n3C(c3nccs3)C12

>  <smiles>  (341) 
[H]C1=C2C(=C([O-])C([H])([H])C1([H])[H])C([H])(c1nc([H])c([H])s1)n1c(nc3c([H])c(Cl)c([H])c([H])c31)N2[H]

$$$$
98:1:0
     RDKit          3D

 37 41  0  0  1  0  0  0  0  0999 V2000
    5.3565   -0.6539   -0.6058 O   0  0  0  0  0  0  0  0  0  0  0  0
    4.4704   -1.5010   -1.1220 C   0  0  0  0  0  0  0  0  0  0  0  0
    3.9967   -1.0477   -2.4911 C   0  0  0  0  0  0  0  0  0  0  0  0
    3.3266   -2.1779   -3.2955 C   0  0  0  0  0  0  0  0  0  0  0  0
    2.6806   -3.2132   -2.4054 C   0  0  0  0  0  0  0  0  0  0  0  0
    3.0182   -3.4092   -1.1167 C   0  0  0  0  0  0  0  0  0  0  0  0
    2.3884   -4.3868   -0.3744 N   0  0  0  0  0  0  0  0  0  0  0  0
    2.6521   -4.6333    0.9585 C   0  0  0  0  0  0  0  0  0  0  0  0
    1.9529   -5.4820    1.7053 N   0  0  0  0  0  0  0  0  0  0  0  0
    2.6182   -5.3823    2.9179 C   0  0  0  0  0  0  0  0  0  0  0  0
    2.3944   -6.0462    4.1434 C   0  0  0  0  0  0  0  0  0  0  0  0
    3.2314   -5.8055    5.2553 C   0  0  0  0  0  0  0  0  0  0  0  0
    2.9299   -6.6236    6.7405 Cl  0  0  0  0  0  0  0  0  0  0  0  0
    4.3073   -4.8981    5.1577 C   0  0  0  0  0  0  0  0  0  0  0  0
    4.5419   -4.2185    3.9464 C   0  0  0  0  0  0  0  0  0  0  0  0
    3.7013   -4.4570    2.8434 C   0  0  0  0  0  0  0  0  0  0  0  0
    3.6834   -3.9833    1.5381 N   0  0  0  0  0  0  0  0  0  0  0  0
    4.5982   -3.0452    0.8786 C   0  0  1  0  0  0  0  0  0  0  0  0
    5.9839   -3.6462    0.7684 C   0  0  0  0  0  0  0  0  0  0  0  0
    6.2849   -4.9092    1.1022 N   0  0  0  0  0  0  0  0  0  0  0  0
    7.6300   -5.2339    0.9187 C   0  0  0  0  0  0  0  0  0  0  0  0
    8.3653   -4.1947    0.4119 C   0  0  0  0  0  0  0  0  0  0  0  0
    7.4066   -2.7695    0.1834 S   0  0  0  0  0  0  0  0  0  0  0  0
    4.0581   -2.6142   -0.4880 C   0  0  0  0  0  0  0  0  0  0  0  0
    4.8265   -0.6280   -3.0640 H   0  0  0  0  0  0  0  0  0  0  0  0
    3.2655   -0.2600   -2.3334 H   0  0  0  0  0  0  0  0  0  0  0  0
    2.5554   -1.7661   -3.9448 H   0  0  0  0  0  0  0  0  0  0  0  0
    4.0546   -2.6934   -3.9234 H   0  0  0  0  0  0  0  0  0  0  0  0
    1.9377   -3.8475   -2.8720 H   0  0  0  0  0  0  0  0  0  0  0  0
    1.5791   -6.7501    4.2178 H   0  0  0  0  0  0  0  0  0  0  0  0
    4.9535   -4.7239    6.0086 H   0  0  0  0  0  0  0  0  0  0  0  0
    5.3728   -3.5399    3.8459 H   0  0  0  0  0  0  0  0  0  0  0  0
    4.6515   -2.1610    1.5116 H   0  0  0  0  0  0  0  0  0  0  0  0
    7.9682   -6.2300    1.1674 H   0  0  0  0  0  0  0  0  0  0  0  0
    9.4078   -4.1645    0.1576 H   0  0  0  0  0  0  0  0  0  0  0  0
    1.7522   -5.0123   -0.8459 H   0  0  0  0  0  0  0  0  0  0  0  0
    5.2891    0.1783   -1.0665 H   0  0  0  0  0  0  0  0  0  0  0  0
  1  2  1  0
  1 37  1  0
  2  3  1  0
  2 24  2  0
  3  4  1  0
  3 25  1  0
  3 26  1  0
  4  5  1  0
  4 27  1  0
  4 28  1  0
  5 29  1  0
  5  6  2  0
  6 24  1  0
  6  7  1  0
  7  8  1  0
  7 36  1  0
  8 17  1  0
  8  9  2  0
  9 10  1  0
 10 16  2  0
 10 11  1  0
 11 12  2  0
 11 30  1  0
 12 13  1  0
 12 14  1  0
 14 15  2  0
 14 31  1  0
 15 16  1  0
 15 32  1  0
 16 17  1  0
 17 18  1  0
 18 19  1  0
 18 33  1  1
 18 24  1  0
 19 23  1  0
 19 20  2  0
 20 21  1  0
 21 22  2  0
 21 34  1  0
 22 23  1  0
 22 35  1  0
M  END
>  <i_m_ct_stereo_status>  (342) 
1

>  <s_m_source_file>  (342) 
/var/tmp/pbs.5076255.sched01/tmpm28zzdm2/1449lyhn0we.sdf

>  <i_m_source_file_index>  (342) 
8

>  <i_lp_mmshare_version>  (342) 
48012

>  <i_f3d_flags>  (342) 
0

>  <s_epik_input>  (342) 
W0NIMl0xW0NIMl1bQ0gyXUMoPU8pW0NAQEhdKEMxPTIpW0NASF0oYzNuW2NIXVtjSF1zMyluNGMoTjIpbmM1YzRbY0hdW2NIXWMoQ2wpW2NIXTU=

>  <s_epik_cmdline>  (342) 
J2VwaWtfcHl0aG9uJywgJy1waHQnLCAnMi4wJywgJy1waCcsICc3LjAnLCAnLXRuJywgJzgnLCAnLW1hJywgJzIwMCcsICctaW1hZScsICc8aW5maWxlLm1hZT4nLCAnLW9tYWUnLCAnPG91dGZpbGUubWFlPic=

>  <r_epik_Ionization_Penalty>  (342) 
0.425927

>  <r_epik_Ionization_Penalty_Charging>  (342) 
1.44573e-10

>  <r_epik_Ionization_Penalty_Neutral>  (342) 
0.425927

>  <r_epik_State_Penalty>  (342) 
0.426956

>  <r_epik_Charging_Adjusted_Penalty>  (342) 
0.426956

>  <i_epik_Tot_Q>  (342) 
0

>  <i_epik_Tot_abs_Q>  (342) 
0

>  <s_epik_Chemistry_Notes>  (342) 
This compound has an imine and may undergo hydrolysis.

>  <s_lp_Force_Field>  (342) 
OPLS3e

>  <r_lp_Energy>  (342) 
20.6294

>  <b_lp_Chiralities_Consistent>  (342) 
1

>  <s_lp_Variant>  (342) 
98:0-2

>  <s_i_glide_gridfile>  (342) 
pfpi4k_grid

>  <i_i_glide_lignum>  (342) 
8

>  <i_i_glide_rotatable_bonds>  (342) 
2

>  <r_i_docking_score>  (342) 
-3.64316

>  <r_i_glide_ligand_efficiency>  (342) 
-0.151798

>  <r_i_glide_ligand_efficiency_sa>  (342) 
-0.437862

>  <r_i_glide_ligand_efficiency_ln>  (342) 
-0.871976

>  <r_i_glide_gscore>  (342) 
-3.64316

>  <r_i_glide_lipo>  (342) 
-0.70789

>  <r_i_glide_hbond>  (342) 
-0.337215

>  <r_i_glide_metal>  (342) 
-0

>  <r_i_glide_rewards>  (342) 
-0.985769

>  <r_i_glide_evdw>  (342) 
-26.0832

>  <r_i_glide_ecoul>  (342) 
-2.46373

>  <r_i_glide_erotb>  (342) 
0.150297

>  <r_i_glide_esite>  (342) 
-0.0888653

>  <r_i_glide_emodel>  (342) 
-32.8681

>  <r_i_glide_energy>  (342) 
-28.5469

>  <r_i_glide_einternal>  (342) 
5.34741

>  <r_i_glide_intrahb_reward>  (342) 
-0

>  <i_i_glide_confnum>  (342) 
1

>  <i_i_glide_posenum>  (342) 
24

>  <r_i_glide_eff_state_penalty>  (342) 
0

>  <ligand_id>  (342) 
98

>  <original_smiles>  (342) 
O=C1CCCC2=Nc3nc4cc(Cl)ccc4n3C(c3nccs3)C12

>  <smiles>  (342) 
[H]OC1=C2C(=C([H])C([H])([H])C1([H])[H])N([H])c1nc3c([H])c(Cl)c([H])c([H])c3n1C2([H])c1nc([H])c([H])s1

$$$$
98:1:1
     RDKit          3D

 37 41  0  0  1  0  0  0  0  0999 V2000
    5.8064   -1.7873    2.1134 O   0  0  0  0  0  0  0  0  0  0  0  0
    5.0959   -1.9567    0.9917 C   0  0  0  0  0  0  0  0  0  0  0  0
    5.2402   -0.7458    0.0816 C   0  0  0  0  0  0  0  0  0  0  0  0
    4.8301   -1.0513   -1.3781 C   0  0  0  0  0  0  0  0  0  0  0  0
    3.8013   -2.1531   -1.4848 C   0  0  0  0  0  0  0  0  0  0  0  0
    3.5917   -3.0670   -0.5227 C   0  0  0  0  0  0  0  0  0  0  0  0
    2.6364   -4.0426   -0.6990 N   0  0  0  0  0  0  0  0  0  0  0  0
    2.3503   -5.0098    0.2527 C   0  0  0  0  0  0  0  0  0  0  0  0
    1.3385   -5.8652    0.1611 N   0  0  0  0  0  0  0  0  0  0  0  0
    1.4851   -6.6011    1.3271 C   0  0  0  0  0  0  0  0  0  0  0  0
    0.7434   -7.6884    1.8277 C   0  0  0  0  0  0  0  0  0  0  0  0
    1.1182   -8.3239    3.0309 C   0  0  0  0  0  0  0  0  0  0  0  0
    0.2144   -9.6787    3.5940 Cl  0  0  0  0  0  0  0  0  0  0  0  0
    2.2281   -7.8641    3.7701 C   0  0  0  0  0  0  0  0  0  0  0  0
    2.9600   -6.7565    3.3020 C   0  0  0  0  0  0  0  0  0  0  0  0
    2.5934   -6.1419    2.0933 C   0  0  0  0  0  0  0  0  0  0  0  0
    3.1339   -5.1004    1.3465 N   0  0  0  0  0  0  0  0  0  0  0  0
    4.3190   -4.2878    1.6280 C   0  0  1  0  0  0  0  0  0  0  0  0
    5.5861   -5.1120    1.5392 C   0  0  0  0  0  0  0  0  0  0  0  0
    6.8019   -4.5755    1.6680 N   0  0  0  0  0  0  0  0  0  0  0  0
    7.8388   -5.4949    1.5491 C   0  0  0  0  0  0  0  0  0  0  0  0
    7.4014   -6.7711    1.3294 C   0  0  0  0  0  0  0  0  0  0  0  0
    5.6658   -6.8594    1.2814 S   0  0  0  0  0  0  0  0  0  0  0  0
    4.3705   -3.0620    0.7062 C   0  0  0  0  0  0  0  0  0  0  0  0
    6.2647   -0.3589    0.1052 H   0  0  0  0  0  0  0  0  0  0  0  0
    4.5900    0.0317    0.4911 H   0  0  0  0  0  0  0  0  0  0  0  0
    4.4061   -0.1547   -1.8313 H   0  0  0  0  0  0  0  0  0  0  0  0
    5.6944   -1.3453   -1.9764 H   0  0  0  0  0  0  0  0  0  0  0  0
    3.2302   -2.1860   -2.4032 H   0  0  0  0  0  0  0  0  0  0  0  0
   -0.1001   -8.0649    1.2686 H   0  0  0  0  0  0  0  0  0  0  0  0
    2.5240   -8.3706    4.6809 H   0  0  0  0  0  0  0  0  0  0  0  0
    3.8346   -6.4166    3.8350 H   0  0  0  0  0  0  0  0  0  0  0  0
    4.2093   -3.9186    2.6454 H   0  0  0  0  0  0  0  0  0  0  0  0
    8.8584   -5.1485    1.6307 H   0  0  0  0  0  0  0  0  0  0  0  0
    7.9967   -7.6634    1.1976 H   0  0  0  0  0  0  0  0  0  0  0  0
    2.1232   -4.0959   -1.5646 H   0  0  0  0  0  0  0  0  0  0  0  0
    6.3056   -0.9906    2.0207 H   0  0  0  0  0  0  0  0  0  0  0  0
  1  2  1  0
  1 37  1  0
  2  3  1  0
  2 24  2  0
  3  4  1  0
  3 25  1  0
  3 26  1  0
  4  5  1  0
  4 27  1  0
  4 28  1  0
  5 29  1  0
  5  6  2  0
  6 24  1  0
  6  7  1  0
  7  8  1  0
  7 36  1  0
  8 17  1  0
  8  9  2  0
  9 10  1  0
 10 16  2  0
 10 11  1  0
 11 12  2  0
 11 30  1  0
 12 13  1  0
 12 14  1  0
 14 15  2  0
 14 31  1  0
 15 16  1  0
 15 32  1  0
 16 17  1  0
 17 18  1  0
 18 19  1  0
 18 33  1  1
 18 24  1  0
 19 23  1  0
 19 20  2  0
 20 21  1  0
 21 22  2  0
 21 34  1  0
 22 23  1  0
 22 35  1  0
M  END
>  <i_m_ct_stereo_status>  (343) 
1

>  <s_m_source_file>  (343) 
/var/tmp/pbs.5076255.sched01/tmpm28zzdm2/1449lyhn0we.sdf

>  <i_m_source_file_index>  (343) 
8

>  <i_lp_mmshare_version>  (343) 
48012

>  <i_f3d_flags>  (343) 
0

>  <s_epik_input>  (343) 
W0NIMl0xW0NIMl1bQ0gyXUMoPU8pW0NAQEhdKEMxPTIpW0NASF0oYzNuW2NIXVtjSF1zMyluNGMoTjIpbmM1YzRbY0hdW2NIXWMoQ2wpW2NIXTU=

>  <s_epik_cmdline>  (343) 
J2VwaWtfcHl0aG9uJywgJy1waHQnLCAnMi4wJywgJy1waCcsICc3LjAnLCAnLXRuJywgJzgnLCAnLW1hJywgJzIwMCcsICctaW1hZScsICc8aW5maWxlLm1hZT4nLCAnLW9tYWUnLCAnPG91dGZpbGUubWFlPic=

>  <r_epik_Ionization_Penalty>  (343) 
0.425927

>  <r_epik_Ionization_Penalty_Charging>  (343) 
1.44573e-10

>  <r_epik_Ionization_Penalty_Neutral>  (343) 
0.425927

>  <r_epik_State_Penalty>  (343) 
0.426956

>  <r_epik_Charging_Adjusted_Penalty>  (343) 
0.426956

>  <i_epik_Tot_Q>  (343) 
0

>  <i_epik_Tot_abs_Q>  (343) 
0

>  <s_epik_Chemistry_Notes>  (343) 
This compound has an imine and may undergo hydrolysis.

>  <s_lp_Force_Field>  (343) 
OPLS3e

>  <r_lp_Energy>  (343) 
20.6294

>  <b_lp_Chiralities_Consistent>  (343) 
1

>  <s_lp_Variant>  (343) 
98:0-2

>  <s_i_glide_gridfile>  (343) 
pfpi4k_grid

>  <i_i_glide_lignum>  (343) 
8

>  <i_i_glide_rotatable_bonds>  (343) 
2

>  <r_i_docking_score>  (343) 
-3.6233

>  <r_i_glide_ligand_efficiency>  (343) 
-0.150971

>  <r_i_glide_ligand_efficiency_sa>  (343) 
-0.435475

>  <r_i_glide_ligand_efficiency_ln>  (343) 
-0.867222

>  <r_i_glide_gscore>  (343) 
-3.6233

>  <r_i_glide_lipo>  (343) 
-0.359704

>  <r_i_glide_hbond>  (343) 
-0.230863

>  <r_i_glide_metal>  (343) 
-0

>  <r_i_glide_rewards>  (343) 
-0.976201

>  <r_i_glide_evdw>  (343) 
-27.1865

>  <r_i_glide_ecoul>  (343) 
-4.94873

>  <r_i_glide_erotb>  (343) 
0.150297

>  <r_i_glide_esite>  (343) 
-0.105196

>  <r_i_glide_emodel>  (343) 
-36.7903

>  <r_i_glide_energy>  (343) 
-32.1352

>  <r_i_glide_einternal>  (343) 
4.8309

>  <r_i_glide_intrahb_reward>  (343) 
-0

>  <i_i_glide_confnum>  (343) 
1

>  <i_i_glide_posenum>  (343) 
2

>  <r_i_glide_eff_state_penalty>  (343) 
0

>  <ligand_id>  (343) 
98

>  <original_smiles>  (343) 
O=C1CCCC2=Nc3nc4cc(Cl)ccc4n3C(c3nccs3)C12

>  <smiles>  (343) 
[H]OC1=C2C(=C([H])C([H])([H])C1([H])[H])N([H])c1nc3c([H])c(Cl)c([H])c([H])c3n1C2([H])c1nc([H])c([H])s1

$$$$
98:1:2
     RDKit          3D

 37 41  0  0  1  0  0  0  0  0999 V2000
    5.8157   -1.5819    2.3449 O   0  0  0  0  0  0  0  0  0  0  0  0
    5.3318   -1.9294    1.1448 C   0  0  0  0  0  0  0  0  0  0  0  0
    5.7535   -0.9363    0.0768 C   0  0  0  0  0  0  0  0  0  0  0  0
    5.6560   -1.5176   -1.3534 C   0  0  0  0  0  0  0  0  0  0  0  0
    4.6064   -2.5994   -1.4853 C   0  0  0  0  0  0  0  0  0  0  0  0
    4.1170   -3.2832   -0.4392 C   0  0  0  0  0  0  0  0  0  0  0  0
    3.1618   -4.2558   -0.6404 N   0  0  0  0  0  0  0  0  0  0  0  0
    2.6082   -5.0040    0.3851 C   0  0  0  0  0  0  0  0  0  0  0  0
    1.5783   -5.8388    0.2313 N   0  0  0  0  0  0  0  0  0  0  0  0
    1.4230   -6.3196    1.5146 C   0  0  0  0  0  0  0  0  0  0  0  0
    0.4954   -7.2490    2.0213 C   0  0  0  0  0  0  0  0  0  0  0  0
    0.5296   -7.6053    3.3827 C   0  0  0  0  0  0  0  0  0  0  0  0
   -0.6034   -8.7415    3.9790 Cl  0  0  0  0  0  0  0  0  0  0  0  0
    1.4777   -7.0386    4.2575 C   0  0  0  0  0  0  0  0  0  0  0  0
    2.3999   -6.0936    3.7727 C   0  0  0  0  0  0  0  0  0  0  0  0
    2.3683   -5.7411    2.4138 C   0  0  0  0  0  0  0  0  0  0  0  0
    3.1185   -4.8790    1.6280 N   0  0  0  0  0  0  0  0  0  0  0  0
    4.2356   -4.0219    2.0202 C   0  0  1  0  0  0  0  0  0  0  0  0
    5.4136   -4.8612    2.4192 C   0  0  0  0  0  0  0  0  0  0  0  0
    5.7362   -5.1162    3.6912 N   0  0  0  0  0  0  0  0  0  0  0  0
    6.8788   -5.9092    3.8102 C   0  0  0  0  0  0  0  0  0  0  0  0
    7.4299   -6.2556    2.6034 C   0  0  0  0  0  0  0  0  0  0  0  0
    6.5251   -5.6120    1.2681 S   0  0  0  0  0  0  0  0  0  0  0  0
    4.5943   -3.0315    0.9137 C   0  0  0  0  0  0  0  0  0  0  0  0
    6.7670   -0.5719    0.2644 H   0  0  0  0  0  0  0  0  0  0  0  0
    5.0807   -0.0796    0.1581 H   0  0  0  0  0  0  0  0  0  0  0  0
    5.4161   -0.7231   -2.0589 H   0  0  0  0  0  0  0  0  0  0  0  0
    6.6071   -1.9550   -1.6615 H   0  0  0  0  0  0  0  0  0  0  0  0
    4.2680   -2.8316   -2.4860 H   0  0  0  0  0  0  0  0  0  0  0  0
   -0.2218   -7.7083    1.3556 H   0  0  0  0  0  0  0  0  0  0  0  0
    1.5012   -7.3368    5.2967 H   0  0  0  0  0  0  0  0  0  0  0  0
    3.1336   -5.6550    4.4301 H   0  0  0  0  0  0  0  0  0  0  0  0
    3.9138   -3.4483    2.8857 H   0  0  0  0  0  0  0  0  0  0  0  0
    7.2398   -6.1716    4.7945 H   0  0  0  0  0  0  0  0  0  0  0  0
    8.3117   -6.8493    2.4196 H   0  0  0  0  0  0  0  0  0  0  0  0
    2.8713   -4.5056   -1.5803 H   0  0  0  0  0  0  0  0  0  0  0  0
    6.3192   -0.7896    2.2378 H   0  0  0  0  0  0  0  0  0  0  0  0
  1  2  1  0
  1 37  1  0
  2  3  1  0
  2 24  2  0
  3  4  1  0
  3 25  1  0
  3 26  1  0
  4  5  1  0
  4 27  1  0
  4 28  1  0
  5 29  1  0
  5  6  2  0
  6 24  1  0
  6  7  1  0
  7  8  1  0
  7 36  1  0
  8 17  1  0
  8  9  2  0
  9 10  1  0
 10 16  2  0
 10 11  1  0
 11 12  2  0
 11 30  1  0
 12 13  1  0
 12 14  1  0
 14 15  2  0
 14 31  1  0
 15 16  1  0
 15 32  1  0
 16 17  1  0
 17 18  1  0
 18 19  1  0
 18 33  1  1
 18 24  1  0
 19 23  1  0
 19 20  2  0
 20 21  1  0
 21 22  2  0
 21 34  1  0
 22 23  1  0
 22 35  1  0
M  END
>  <i_m_ct_stereo_status>  (344) 
1

>  <s_m_source_file>  (344) 
/var/tmp/pbs.5076255.sched01/tmpm28zzdm2/1449lyhn0we.sdf

>  <i_m_source_file_index>  (344) 
8

>  <i_lp_mmshare_version>  (344) 
48012

>  <i_f3d_flags>  (344) 
0

>  <s_epik_input>  (344) 
W0NIMl0xW0NIMl1bQ0gyXUMoPU8pW0NAQEhdKEMxPTIpW0NASF0oYzNuW2NIXVtjSF1zMyluNGMoTjIpbmM1YzRbY0hdW2NIXWMoQ2wpW2NIXTU=

>  <s_epik_cmdline>  (344) 
J2VwaWtfcHl0aG9uJywgJy1waHQnLCAnMi4wJywgJy1waCcsICc3LjAnLCAnLXRuJywgJzgnLCAnLW1hJywgJzIwMCcsICctaW1hZScsICc8aW5maWxlLm1hZT4nLCAnLW9tYWUnLCAnPG91dGZpbGUubWFlPic=

>  <r_epik_Ionization_Penalty>  (344) 
0.425927

>  <r_epik_Ionization_Penalty_Charging>  (344) 
1.44573e-10

>  <r_epik_Ionization_Penalty_Neutral>  (344) 
0.425927

>  <r_epik_State_Penalty>  (344) 
0.426956

>  <r_epik_Charging_Adjusted_Penalty>  (344) 
0.426956

>  <i_epik_Tot_Q>  (344) 
0

>  <i_epik_Tot_abs_Q>  (344) 
0

>  <s_epik_Chemistry_Notes>  (344) 
This compound has an imine and may undergo hydrolysis.

>  <s_lp_Force_Field>  (344) 
OPLS3e

>  <r_lp_Energy>  (344) 
20.6294

>  <b_lp_Chiralities_Consistent>  (344) 
1

>  <s_lp_Variant>  (344) 
98:0-2

>  <s_i_glide_gridfile>  (344) 
pfpi4k_grid

>  <i_i_glide_lignum>  (344) 
8

>  <i_i_glide_rotatable_bonds>  (344) 
2

>  <r_i_docking_score>  (344) 
-3.5705

>  <r_i_glide_ligand_efficiency>  (344) 
-0.148771

>  <r_i_glide_ligand_efficiency_sa>  (344) 
-0.429129

>  <r_i_glide_ligand_efficiency_ln>  (344) 
-0.854584

>  <r_i_glide_gscore>  (344) 
-3.5705

>  <r_i_glide_lipo>  (344) 
-0.268195

>  <r_i_glide_hbond>  (344) 
-0.340613

>  <r_i_glide_metal>  (344) 
-0

>  <r_i_glide_rewards>  (344) 
-0.978109

>  <r_i_glide_evdw>  (344) 
-24.6104

>  <r_i_glide_ecoul>  (344) 
-5.45523

>  <r_i_glide_erotb>  (344) 
0.150297

>  <r_i_glide_esite>  (344) 
-0.0850741

>  <r_i_glide_emodel>  (344) 
-36.1047

>  <r_i_glide_energy>  (344) 
-30.0656

>  <r_i_glide_einternal>  (344) 
2.29214

>  <r_i_glide_intrahb_reward>  (344) 
-0

>  <i_i_glide_confnum>  (344) 
3

>  <i_i_glide_posenum>  (344) 
11

>  <r_i_glide_eff_state_penalty>  (344) 
0

>  <ligand_id>  (344) 
98

>  <original_smiles>  (344) 
O=C1CCCC2=Nc3nc4cc(Cl)ccc4n3C(c3nccs3)C12

>  <smiles>  (344) 
[H]OC1=C2C(=C([H])C([H])([H])C1([H])[H])N([H])c1nc3c([H])c(Cl)c([H])c([H])c3n1C2([H])c1nc([H])c([H])s1

$$$$
99:0:0
     RDKit          3D

 55 58  0  0  1  0  0  0  0  0999 V2000
    0.8180   -6.8338    1.0604 C   0  0  0  0  0  0  0  0  0  0  0  0
    1.4677   -5.5755    0.9918 O   0  0  0  0  0  0  0  0  0  0  0  0
    2.7188   -5.4304    1.4463 C   0  0  0  0  0  0  0  0  0  0  0  0
    3.3129   -6.3476    2.0109 O   0  0  0  0  0  0  0  0  0  0  0  0
    3.2153   -3.9430    1.5290 C   0  0  1  0  0  0  0  0  0  0  0  0
    2.3283   -3.3658    2.6712 C   0  0  0  0  0  0  0  0  0  0  0  0
    4.7522   -3.8444    1.9340 C   0  0  2  0  0  0  0  0  0  0  0  0
    5.0443   -2.3791    2.3623 C   0  0  0  0  0  0  0  0  0  0  0  0
    4.7507   -1.4414    1.1753 C   0  0  0  0  0  0  0  0  0  0  0  0
    4.3495   -2.2652   -0.0783 C   0  0  1  0  0  0  0  0  0  0  0  0
    4.1208   -1.2935   -1.2351 C   0  0  0  0  0  0  0  0  0  0  0  0
    3.7945   -2.0060   -2.5529 C   0  0  1  0  0  0  0  0  0  0  0  0
    3.5558   -0.9635   -3.6693 C   0  0  0  0  0  0  0  0  0  0  0  0
    4.9880   -2.8745   -2.9273 C   0  0  0  0  0  0  0  0  0  0  0  0
    5.4289   -3.8289   -1.8284 C   0  0  0  0  0  0  0  0  0  0  0  0
    5.5344   -3.1976   -0.4137 C   0  0  2  0  0  0  0  0  0  0  0  0
    5.7736   -4.1970    0.7681 C   0  0  0  0  0  0  0  0  0  0  0  0
    7.2424   -4.0831    1.2363 C   0  0  0  0  0  0  0  0  0  0  0  0
    5.7131   -5.6792    0.3691 C   0  0  0  0  0  0  0  0  0  0  0  0
    2.5204   -2.8283   -2.3459 C   0  0  1  0  0  0  0  0  0  0  0  0
    2.2522   -3.5218   -3.5433 O   0  0  0  0  0  0  0  0  0  0  0  0
    2.4604   -3.6785   -1.0393 C   0  0  0  0  0  0  0  0  0  0  0  0
    3.0216   -3.0298    0.2466 C   0  0  1  0  0  0  0  0  0  0  0  0
   -0.1744   -6.7370    0.6243 H   0  0  0  0  0  0  0  0  0  0  0  0
    0.7094   -7.1649    2.0913 H   0  0  0  0  0  0  0  0  0  0  0  0
    1.3635   -7.5885    0.4997 H   0  0  0  0  0  0  0  0  0  0  0  0
    2.4017   -2.2827    2.7592 H   0  0  0  0  0  0  0  0  0  0  0  0
    2.5719   -3.8164    3.6301 H   0  0  0  0  0  0  0  0  0  0  0  0
    1.2745   -3.5522    2.5085 H   0  0  0  0  0  0  0  0  0  0  0  0
    4.9482   -4.4955    2.7847 H   0  0  0  0  0  0  0  0  0  0  0  0
    4.4677   -2.0843    3.2363 H   0  0  0  0  0  0  0  0  0  0  0  0
    6.0676   -2.2427    2.7057 H   0  0  0  0  0  0  0  0  0  0  0  0
    3.9500   -0.7497    1.4443 H   0  0  0  0  0  0  0  0  0  0  0  0
    5.6340   -0.8244    0.9812 H   0  0  0  0  0  0  0  0  0  0  0  0
    3.2611   -0.6969   -0.9556 H   0  0  0  0  0  0  0  0  0  0  0  0
    4.9777   -0.6264   -1.3715 H   0  0  0  0  0  0  0  0  0  0  0  0
    3.3436   -1.4459   -4.6258 H   0  0  0  0  0  0  0  0  0  0  0  0
    4.4194   -0.3177   -3.8134 H   0  0  0  0  0  0  0  0  0  0  0  0
    2.7047   -0.3263   -3.4353 H   0  0  0  0  0  0  0  0  0  0  0  0
    4.8515   -3.4066   -3.8719 H   0  0  0  0  0  0  0  0  0  0  0  0
    5.8208   -2.2128   -3.0909 H   0  0  0  0  0  0  0  0  0  0  0  0
    4.8267   -4.7266   -1.8816 H   0  0  0  0  0  0  0  0  0  0  0  0
    6.4155   -4.1294   -2.1227 H   0  0  0  0  0  0  0  0  0  0  0  0
    6.4143   -2.5488   -0.4647 H   0  0  0  0  0  0  0  0  0  0  0  0
    7.9532   -4.4609    0.4979 H   0  0  0  0  0  0  0  0  0  0  0  0
    7.4148   -4.6563    2.1506 H   0  0  0  0  0  0  0  0  0  0  0  0
    7.5313   -3.0520    1.3929 H   0  0  0  0  0  0  0  0  0  0  0  0
    6.5229   -5.9251   -0.3167 H   0  0  0  0  0  0  0  0  0  0  0  0
    4.7999   -5.9511   -0.1521 H   0  0  0  0  0  0  0  0  0  0  0  0
    5.8361   -6.3433    1.2302 H   0  0  0  0  0  0  0  0  0  0  0  0
    1.6885   -2.1471   -2.3498 H   0  0  0  0  0  0  0  0  0  0  0  0
    1.4553   -4.0294   -3.4466 H   0  0  0  0  0  0  0  0  0  0  0  0
    1.4150   -3.9099   -0.8917 H   0  0  0  0  0  0  0  0  0  0  0  0
    2.9421   -4.6393   -1.1237 H   0  0  0  0  0  0  0  0  0  0  0  0
    2.2956   -2.2537    0.5070 H   0  0  0  0  0  0  0  0  0  0  0  0
  1  2  1  0
  1 24  1  0
  1 25  1  0
  1 26  1  0
  2  3  1  0
  3  4  2  0
  3  5  1  0
  5 23  1  0
  5  6  1  1
  5  7  1  0
  6 27  1  0
  6 28  1  0
  6 29  1  0
  7 17  1  0
  7  8  1  0
  7 30  1  1
  8  9  1  0
  8 31  1  0
  8 32  1  0
 10  9  1  1
  9 33  1  0
  9 34  1  0
 10 16  1  0
 10 23  1  0
 10 11  1  0
 11 12  1  0
 11 35  1  0
 11 36  1  0
 12 13  1  6
 12 14  1  0
 12 20  1  0
 13 37  1  0
 13 38  1  0
 13 39  1  0
 14 15  1  0
 14 40  1  0
 14 41  1  0
 15 16  1  0
 15 42  1  0
 15 43  1  0
 16 17  1  0
 16 44  1  6
 17 18  1  0
 17 19  1  0
 18 45  1  0
 18 46  1  0
 18 47  1  0
 19 48  1  0
 19 49  1  0
 19 50  1  0
 20 21  1  0
 20 22  1  0
 20 51  1  1
 21 52  1  0
 22 23  1  0
 22 53  1  0
 22 54  1  0
 23 55  1  1
M  END
>  <i_m_ct_stereo_status>  (345) 
1

>  <s_m_source_file>  (345) 
/var/tmp/pbs.5076255.sched01/tmpm28zzdm2/1449lyhn0we.sdf

>  <i_m_source_file_index>  (345) 
9

>  <i_lp_mmshare_version>  (345) 
48012

>  <i_f3d_flags>  (345) 
0

>  <s_epik_input>  (345) 
W0NIM11PQyg9TylbQ0BAXShbQ0gzXSkoW0NASF0oW0NIMl1bQ0gyXTEpQzIoW0NIM10pW0NIM10pW0NAQEhdM1tDSDJdW0NASF0oW09IXSlbQ0BdKFtDSDJdNCkoW0NIM10pW0NIMl1bQ0gyXVtDQEhdMltDQF0xMzQ=

>  <s_epik_cmdline>  (345) 
J2VwaWtfcHl0aG9uJywgJy1waHQnLCAnMi4wJywgJy1waCcsICc3LjAnLCAnLXRuJywgJzgnLCAnLW1hJywgJzIwMCcsICctaW1hZScsICc8aW5maWxlLm1hZT4nLCAnLW9tYWUnLCAnPG91dGZpbGUubWFlPic=

>  <r_lp_tautomer_probability>  (345) 
1

>  <r_epik_Ionization_Penalty>  (345) 
1.9378e-06

>  <r_epik_Ionization_Penalty_Charging>  (345) 
0

>  <r_epik_Ionization_Penalty_Neutral>  (345) 
1.9378e-06

>  <r_epik_State_Penalty>  (345) 
-0

>  <r_epik_Charging_Adjusted_Penalty>  (345) 
0

>  <i_epik_Tot_Q>  (345) 
0

>  <i_epik_Tot_abs_Q>  (345) 
0

>  <s_epik_Chemistry_Notes>  (345) 
This compound has an ester and may undergo hydrolysis at high or low pH.

>  <s_lp_Force_Field>  (345) 
OPLS3e

>  <r_lp_Energy>  (345) 
66.5948

>  <b_lp_Chiralities_Consistent>  (345) 
1

>  <s_lp_Variant>  (345) 
99:0-1

>  <s_i_glide_gridfile>  (345) 
pfpi4k_grid

>  <i_i_glide_lignum>  (345) 
9

>  <i_i_glide_rotatable_bonds>  (345) 
3

>  <r_i_docking_score>  (345) 
-4.26091

>  <r_i_glide_ligand_efficiency>  (345) 
-0.185257

>  <r_i_glide_ligand_efficiency_sa>  (345) 
-0.526847

>  <r_i_glide_ligand_efficiency_ln>  (345) 
-1.03033

>  <r_i_glide_gscore>  (345) 
-4.26091

>  <r_i_glide_lipo>  (345) 
-0.877227

>  <r_i_glide_hbond>  (345) 
-0.447962

>  <r_i_glide_metal>  (345) 
-0

>  <r_i_glide_rewards>  (345) 
-1.22409

>  <r_i_glide_evdw>  (345) 
-21.9989

>  <r_i_glide_ecoul>  (345) 
-5.19525

>  <r_i_glide_erotb>  (345) 
0.181825

>  <r_i_glide_esite>  (345) 
-0.0142234

>  <r_i_glide_emodel>  (345) 
-31.1023

>  <r_i_glide_energy>  (345) 
-27.1942

>  <r_i_glide_einternal>  (345) 
0.701765

>  <r_i_glide_intrahb_reward>  (345) 
-0

>  <i_i_glide_confnum>  (345) 
3

>  <i_i_glide_posenum>  (345) 
37

>  <r_i_glide_eff_state_penalty>  (345) 
0

>  <ligand_id>  (345) 
99

>  <original_smiles>  (345) 
COC(=O)C1(C)C2CCC34CC(C)(CCC3C2(C)C)C(O)CC41

>  <smiles>  (345) 
[H]OC1([H])C([H])([H])C2([H])C(C(=O)OC([H])([H])[H])(C([H])([H])[H])C3([H])C([H])([H])C([H])([H])C24C([H])([H])C1(C([H])([H])[H])C([H])([H])C([H])([H])C4([H])C3(C([H])([H])[H])C([H])([H])[H]

$$$$
99:0:1
     RDKit          3D

 55 58  0  0  1  0  0  0  0  0999 V2000
    2.8191   -6.8245    2.8922 C   0  0  0  0  0  0  0  0  0  0  0  0
    3.2591   -5.5057    2.5995 O   0  0  0  0  0  0  0  0  0  0  0  0
    2.8043   -4.8838    1.4895 C   0  0  0  0  0  0  0  0  0  0  0  0
    1.9643   -5.3956    0.7448 O   0  0  0  0  0  0  0  0  0  0  0  0
    3.3335   -3.4173    1.3586 C   0  0  1  0  0  0  0  0  0  0  0  0
    2.4569   -2.6655    2.4042 C   0  0  0  0  0  0  0  0  0  0  0  0
    4.8730   -3.2990    1.7216 C   0  0  2  0  0  0  0  0  0  0  0  0
    5.2076   -1.8028    1.9632 C   0  0  0  0  0  0  0  0  0  0  0  0
    4.9212   -1.0006    0.6756 C   0  0  0  0  0  0  0  0  0  0  0  0
    4.4776   -1.9502   -0.4675 C   0  0  1  0  0  0  0  0  0  0  0  0
    4.2650   -1.1070   -1.7428 C   0  0  0  0  0  0  0  0  0  0  0  0
    3.8818   -1.9664   -2.9386 C   0  0  1  0  0  0  0  0  0  0  0  0
    3.6586   -1.0593   -4.1705 C   0  0  0  0  0  0  0  0  0  0  0  0
    5.0321   -2.9238   -3.2208 C   0  0  0  0  0  0  0  0  0  0  0  0
    5.4787   -3.7826   -2.0281 C   0  0  0  0  0  0  0  0  0  0  0  0
    5.6153   -2.9785   -0.6994 C   0  0  2  0  0  0  0  0  0  0  0  0
    5.8427   -3.8441    0.5986 C   0  0  0  0  0  0  0  0  0  0  0  0
    7.3268   -3.7020    1.0124 C   0  0  0  0  0  0  0  0  0  0  0  0
    5.6797   -5.3675    0.3871 C   0  0  0  0  0  0  0  0  0  0  0  0
    2.5788   -2.7045   -2.6159 C   0  0  1  0  0  0  0  0  0  0  0  0
    2.3156   -3.5546   -3.7031 O   0  0  0  0  0  0  0  0  0  0  0  0
    2.5128   -3.4288   -1.2351 C   0  0  0  0  0  0  0  0  0  0  0  0
    3.1563   -2.6662   -0.0450 C   0  0  1  0  0  0  0  0  0  0  0  0
    3.2997   -7.1859    3.8022 H   0  0  0  0  0  0  0  0  0  0  0  0
    3.0680   -7.5078    2.0777 H   0  0  0  0  0  0  0  0  0  0  0  0
    1.7381   -6.8497    3.0449 H   0  0  0  0  0  0  0  0  0  0  0  0
    2.5589   -1.5820    2.3670 H   0  0  0  0  0  0  0  0  0  0  0  0
    2.6743   -2.9839    3.4253 H   0  0  0  0  0  0  0  0  0  0  0  0
    1.4017   -2.8529    2.2277 H   0  0  0  0  0  0  0  0  0  0  0  0
    5.0802   -3.8299    2.6539 H   0  0  0  0  0  0  0  0  0  0  0  0
    4.6512   -1.3862    2.8021 H   0  0  0  0  0  0  0  0  0  0  0  0
    6.2395   -1.6593    2.2765 H   0  0  0  0  0  0  0  0  0  0  0  0
    4.1494   -0.2577    0.8686 H   0  0  0  0  0  0  0  0  0  0  0  0
    5.8178   -0.4470    0.3944 H   0  0  0  0  0  0  0  0  0  0  0  0
    3.4552   -0.4174   -1.5831 H   0  0  0  0  0  0  0  0  0  0  0  0
    5.1568   -0.5203   -1.9686 H   0  0  0  0  0  0  0  0  0  0  0  0
    3.4191   -1.6445   -5.0574 H   0  0  0  0  0  0  0  0  0  0  0  0
    4.5422   -0.4688   -4.4063 H   0  0  0  0  0  0  0  0  0  0  0  0
    2.8301   -0.3703   -4.0156 H   0  0  0  0  0  0  0  0  0  0  0  0
    4.8578   -3.5585   -4.0911 H   0  0  0  0  0  0  0  0  0  0  0  0
    5.8532   -2.2872   -3.4756 H   0  0  0  0  0  0  0  0  0  0  0  0
    4.8244   -4.6435   -1.9580 H   0  0  0  0  0  0  0  0  0  0  0  0
    6.4253   -4.1822   -2.2870 H   0  0  0  0  0  0  0  0  0  0  0  0
    6.5092   -2.3710   -0.8509 H   0  0  0  0  0  0  0  0  0  0  0  0
    8.0036   -4.2028    0.3184 H   0  0  0  0  0  0  0  0  0  0  0  0
    7.4897   -4.1452    1.9963 H   0  0  0  0  0  0  0  0  0  0  0  0
    7.6590   -2.6649    1.0477 H   0  0  0  0  0  0  0  0  0  0  0  0
    6.4520   -5.7601   -0.2698 H   0  0  0  0  0  0  0  0  0  0  0  0
    4.7349   -5.6461   -0.0704 H   0  0  0  0  0  0  0  0  0  0  0  0
    5.7651   -5.9087    1.3309 H   0  0  0  0  0  0  0  0  0  0  0  0
    1.8059   -1.9529   -2.6260 H   0  0  0  0  0  0  0  0  0  0  0  0
    1.4760   -4.0026   -3.5554 H   0  0  0  0  0  0  0  0  0  0  0  0
    1.4583   -3.5876   -1.0201 H   0  0  0  0  0  0  0  0  0  0  0  0
    2.9382   -4.4140   -1.2807 H   0  0  0  0  0  0  0  0  0  0  0  0
    2.4719   -1.8496    0.1474 H   0  0  0  0  0  0  0  0  0  0  0  0
  1  2  1  0
  1 24  1  0
  1 25  1  0
  1 26  1  0
  2  3  1  0
  3  4  2  0
  3  5  1  0
  5 23  1  0
  5  6  1  1
  5  7  1  0
  6 27  1  0
  6 28  1  0
  6 29  1  0
  7 17  1  0
  7  8  1  0
  7 30  1  1
  8  9  1  0
  8 31  1  0
  8 32  1  0
 10  9  1  1
  9 33  1  0
  9 34  1  0
 10 16  1  0
 10 23  1  0
 10 11  1  0
 11 12  1  0
 11 35  1  0
 11 36  1  0
 12 13  1  6
 12 14  1  0
 12 20  1  0
 13 37  1  0
 13 38  1  0
 13 39  1  0
 14 15  1  0
 14 40  1  0
 14 41  1  0
 15 16  1  0
 15 42  1  0
 15 43  1  0
 16 17  1  0
 16 44  1  6
 17 18  1  0
 17 19  1  0
 18 45  1  0
 18 46  1  0
 18 47  1  0
 19 48  1  0
 19 49  1  0
 19 50  1  0
 20 21  1  0
 20 22  1  0
 20 51  1  1
 21 52  1  0
 22 23  1  0
 22 53  1  0
 22 54  1  0
 23 55  1  1
M  END
>  <i_m_ct_stereo_status>  (346) 
1

>  <s_m_source_file>  (346) 
/var/tmp/pbs.5076255.sched01/tmpm28zzdm2/1449lyhn0we.sdf

>  <i_m_source_file_index>  (346) 
9

>  <i_lp_mmshare_version>  (346) 
48012

>  <i_f3d_flags>  (346) 
0

>  <s_epik_input>  (346) 
W0NIM11PQyg9TylbQ0BAXShbQ0gzXSkoW0NASF0oW0NIMl1bQ0gyXTEpQzIoW0NIM10pW0NIM10pW0NAQEhdM1tDSDJdW0NASF0oW09IXSlbQ0BdKFtDSDJdNCkoW0NIM10pW0NIMl1bQ0gyXVtDQEhdMltDQF0xMzQ=

>  <s_epik_cmdline>  (346) 
J2VwaWtfcHl0aG9uJywgJy1waHQnLCAnMi4wJywgJy1waCcsICc3LjAnLCAnLXRuJywgJzgnLCAnLW1hJywgJzIwMCcsICctaW1hZScsICc8aW5maWxlLm1hZT4nLCAnLW9tYWUnLCAnPG91dGZpbGUubWFlPic=

>  <r_lp_tautomer_probability>  (346) 
1

>  <r_epik_Ionization_Penalty>  (346) 
1.9378e-06

>  <r_epik_Ionization_Penalty_Charging>  (346) 
0

>  <r_epik_Ionization_Penalty_Neutral>  (346) 
1.9378e-06

>  <r_epik_State_Penalty>  (346) 
-0

>  <r_epik_Charging_Adjusted_Penalty>  (346) 
0

>  <i_epik_Tot_Q>  (346) 
0

>  <i_epik_Tot_abs_Q>  (346) 
0

>  <s_epik_Chemistry_Notes>  (346) 
This compound has an ester and may undergo hydrolysis at high or low pH.

>  <s_lp_Force_Field>  (346) 
OPLS3e

>  <r_lp_Energy>  (346) 
66.5948

>  <b_lp_Chiralities_Consistent>  (346) 
1

>  <s_lp_Variant>  (346) 
99:0-1

>  <s_i_glide_gridfile>  (346) 
pfpi4k_grid

>  <i_i_glide_lignum>  (346) 
9

>  <i_i_glide_rotatable_bonds>  (346) 
3

>  <r_i_docking_score>  (346) 
-4.20403

>  <r_i_glide_ligand_efficiency>  (346) 
-0.182784

>  <r_i_glide_ligand_efficiency_sa>  (346) 
-0.519813

>  <r_i_glide_ligand_efficiency_ln>  (346) 
-1.01657

>  <r_i_glide_gscore>  (346) 
-4.20403

>  <r_i_glide_lipo>  (346) 
-0.907454

>  <r_i_glide_hbond>  (346) 
-0.386443

>  <r_i_glide_metal>  (346) 
-0

>  <r_i_glide_rewards>  (346) 
-1.22409

>  <r_i_glide_evdw>  (346) 
-21.4636

>  <r_i_glide_ecoul>  (346) 
-5.22623

>  <r_i_glide_erotb>  (346) 
0.181825

>  <r_i_glide_esite>  (346) 
-0.0107494

>  <r_i_glide_emodel>  (346) 
-31.1775

>  <r_i_glide_energy>  (346) 
-26.6898

>  <r_i_glide_einternal>  (346) 
0.472047

>  <r_i_glide_intrahb_reward>  (346) 
-0

>  <i_i_glide_confnum>  (346) 
3

>  <i_i_glide_posenum>  (346) 
33

>  <r_i_glide_eff_state_penalty>  (346) 
0

>  <ligand_id>  (346) 
99

>  <original_smiles>  (346) 
COC(=O)C1(C)C2CCC34CC(C)(CCC3C2(C)C)C(O)CC41

>  <smiles>  (346) 
[H]OC1([H])C([H])([H])C2([H])C(C(=O)OC([H])([H])[H])(C([H])([H])[H])C3([H])C([H])([H])C([H])([H])C24C([H])([H])C1(C([H])([H])[H])C([H])([H])C([H])([H])C4([H])C3(C([H])([H])[H])C([H])([H])[H]

$$$$
99:0:2
     RDKit          3D

 55 58  0  0  1  0  0  0  0  0999 V2000
    1.6725   -6.2183    1.3515 C   0  0  0  0  0  0  0  0  0  0  0  0
    2.1937   -4.9014    1.2706 O   0  0  0  0  0  0  0  0  0  0  0  0
    3.3998   -4.5927    1.7330 C   0  0  0  0  0  0  0  0  0  0  0  0
    4.0294   -5.3202    2.4862 O   0  0  0  0  0  0  0  0  0  0  0  0
    3.8386   -3.1149    1.4587 C   0  0  1  0  0  0  0  0  0  0  0  0
    3.0599   -2.3224    2.5450 C   0  0  0  0  0  0  0  0  0  0  0  0
    5.4110   -2.9512    1.6595 C   0  0  2  0  0  0  0  0  0  0  0  0
    5.7356   -1.4371    1.7513 C   0  0  0  0  0  0  0  0  0  0  0  0
    5.2875   -0.7522    0.4490 C   0  0  0  0  0  0  0  0  0  0  0  0
    4.7504   -1.7960   -0.5715 C   0  0  1  0  0  0  0  0  0  0  0  0
    4.3836   -1.0467   -1.8668 C   0  0  0  0  0  0  0  0  0  0  0  0
    3.8868   -1.9993   -2.9464 C   0  0  1  0  0  0  0  0  0  0  0  0
    3.5261   -1.1953   -4.2068 C   0  0  0  0  0  0  0  0  0  0  0  0
    5.0179   -2.9729   -3.2641 C   0  0  0  0  0  0  0  0  0  0  0  0
    5.5942   -3.6983   -2.0754 C   0  0  0  0  0  0  0  0  0  0  0  0
    5.8815   -2.8162   -0.8516 C   0  0  2  0  0  0  0  0  0  0  0  0
    6.2786   -3.5584    0.4703 C   0  0  0  0  0  0  0  0  0  0  0  0
    7.7970   -3.3689    0.6980 C   0  0  0  0  0  0  0  0  0  0  0  0
    6.1512   -5.0949    0.4077 C   0  0  0  0  0  0  0  0  0  0  0  0
    2.6281   -2.7002   -2.4368 C   0  0  1  0  0  0  0  0  0  0  0  0
    2.2557   -3.5909   -3.4468 O   0  0  0  0  0  0  0  0  0  0  0  0
    2.7574   -3.3624   -1.0376 C   0  0  0  0  0  0  0  0  0  0  0  0
    3.4874   -2.4922    0.0384 C   0  0  1  0  0  0  0  0  0  0  0  0
    0.7473   -6.2561    0.7777 H   0  0  0  0  0  0  0  0  0  0  0  0
    1.4401   -6.4804    2.3778 H   0  0  0  0  0  0  0  0  0  0  0  0
    2.3538   -6.9492    0.9233 H   0  0  0  0  0  0  0  0  0  0  0  0
    3.1347   -1.2392    2.4231 H   0  0  0  0  0  0  0  0  0  0  0  0
    3.4055   -2.5690    3.5490 H   0  0  0  0  0  0  0  0  0  0  0  0
    1.9915   -2.5447    2.5031 H   0  0  0  0  0  0  0  0  0  0  0  0
    5.7174   -3.4201    2.5968 H   0  0  0  0  0  0  0  0  0  0  0  0
    5.2615   -0.9716    2.6128 H   0  0  0  0  0  0  0  0  0  0  0  0
    6.7888   -1.2486    1.9282 H   0  0  0  0  0  0  0  0  0  0  0  0
    4.5196    0.0013    0.6706 H   0  0  0  0  0  0  0  0  0  0  0  0
    6.1394   -0.2052    0.0379 H   0  0  0  0  0  0  0  0  0  0  0  0
    3.5952   -0.3276   -1.6746 H   0  0  0  0  0  0  0  0  0  0  0  0
    5.2359   -0.4804   -2.2422 H   0  0  0  0  0  0  0  0  0  0  0  0
    3.2274   -1.8726   -5.0026 H   0  0  0  0  0  0  0  0  0  0  0  0
    4.3662   -0.6200   -4.5821 H   0  0  0  0  0  0  0  0  0  0  0  0
    2.6897   -0.5178   -4.0257 H   0  0  0  0  0  0  0  0  0  0  0  0
    4.7734   -3.6606   -4.0741 H   0  0  0  0  0  0  0  0  0  0  0  0
    5.8096   -2.3459   -3.5918 H   0  0  0  0  0  0  0  0  0  0  0  0
    5.0260   -4.5927   -1.8774 H   0  0  0  0  0  0  0  0  0  0  0  0
    6.5387   -4.0331   -2.4586 H   0  0  0  0  0  0  0  0  0  0  0  0
    6.7345   -2.2018   -1.1455 H   0  0  0  0  0  0  0  0  0  0  0  0
    8.3982   -3.8883   -0.0445 H   0  0  0  0  0  0  0  0  0  0  0  0
    8.0979   -3.7630    1.6700 H   0  0  0  0  0  0  0  0  0  0  0  0
    8.1151   -2.3284    0.6492 H   0  0  0  0  0  0  0  0  0  0  0  0
    6.8563   -5.5311   -0.2899 H   0  0  0  0  0  0  0  0  0  0  0  0
    5.1751   -5.4391    0.0752 H   0  0  0  0  0  0  0  0  0  0  0  0
    6.3603   -5.5619    1.3698 H   0  0  0  0  0  0  0  0  0  0  0  0
    1.8317   -1.9715   -2.3636 H   0  0  0  0  0  0  0  0  0  0  0  0
    1.4162   -4.0242   -3.2318 H   0  0  0  0  0  0  0  0  0  0  0  0
    1.7294   -3.4962   -0.7150 H   0  0  0  0  0  0  0  0  0  0  0  0
    3.1690   -4.3651   -1.0737 H   0  0  0  0  0  0  0  0  0  0  0  0
    2.7846   -1.6764    0.2231 H   0  0  0  0  0  0  0  0  0  0  0  0
  1  2  1  0
  1 24  1  0
  1 25  1  0
  1 26  1  0
  2  3  1  0
  3  4  2  0
  3  5  1  0
  5 23  1  0
  5  6  1  1
  5  7  1  0
  6 27  1  0
  6 28  1  0
  6 29  1  0
  7 17  1  0
  7  8  1  0
  7 30  1  1
  8  9  1  0
  8 31  1  0
  8 32  1  0
 10  9  1  1
  9 33  1  0
  9 34  1  0
 10 16  1  0
 10 23  1  0
 10 11  1  0
 11 12  1  0
 11 35  1  0
 11 36  1  0
 12 13  1  6
 12 14  1  0
 12 20  1  0
 13 37  1  0
 13 38  1  0
 13 39  1  0
 14 15  1  0
 14 40  1  0
 14 41  1  0
 15 16  1  0
 15 42  1  0
 15 43  1  0
 16 17  1  0
 16 44  1  6
 17 18  1  0
 17 19  1  0
 18 45  1  0
 18 46  1  0
 18 47  1  0
 19 48  1  0
 19 49  1  0
 19 50  1  0
 20 21  1  0
 20 22  1  0
 20 51  1  1
 21 52  1  0
 22 23  1  0
 22 53  1  0
 22 54  1  0
 23 55  1  1
M  END
>  <i_m_ct_stereo_status>  (347) 
1

>  <s_m_source_file>  (347) 
/var/tmp/pbs.5076255.sched01/tmpm28zzdm2/1449lyhn0we.sdf

>  <i_m_source_file_index>  (347) 
9

>  <i_lp_mmshare_version>  (347) 
48012

>  <i_f3d_flags>  (347) 
0

>  <s_epik_input>  (347) 
W0NIM11PQyg9TylbQ0BAXShbQ0gzXSkoW0NASF0oW0NIMl1bQ0gyXTEpQzIoW0NIM10pW0NIM10pW0NAQEhdM1tDSDJdW0NASF0oW09IXSlbQ0BdKFtDSDJdNCkoW0NIM10pW0NIMl1bQ0gyXVtDQEhdMltDQF0xMzQ=

>  <s_epik_cmdline>  (347) 
J2VwaWtfcHl0aG9uJywgJy1waHQnLCAnMi4wJywgJy1waCcsICc3LjAnLCAnLXRuJywgJzgnLCAnLW1hJywgJzIwMCcsICctaW1hZScsICc8aW5maWxlLm1hZT4nLCAnLW9tYWUnLCAnPG91dGZpbGUubWFlPic=

>  <r_lp_tautomer_probability>  (347) 
1

>  <r_epik_Ionization_Penalty>  (347) 
1.9378e-06

>  <r_epik_Ionization_Penalty_Charging>  (347) 
0

>  <r_epik_Ionization_Penalty_Neutral>  (347) 
1.9378e-06

>  <r_epik_State_Penalty>  (347) 
-0

>  <r_epik_Charging_Adjusted_Penalty>  (347) 
0

>  <i_epik_Tot_Q>  (347) 
0

>  <i_epik_Tot_abs_Q>  (347) 
0

>  <s_epik_Chemistry_Notes>  (347) 
This compound has an ester and may undergo hydrolysis at high or low pH.

>  <s_lp_Force_Field>  (347) 
OPLS3e

>  <r_lp_Energy>  (347) 
66.5948

>  <b_lp_Chiralities_Consistent>  (347) 
1

>  <s_lp_Variant>  (347) 
99:0-1

>  <s_i_glide_gridfile>  (347) 
pfpi4k_grid

>  <i_i_glide_lignum>  (347) 
9

>  <i_i_glide_rotatable_bonds>  (347) 
3

>  <r_i_docking_score>  (347) 
-4.02128

>  <r_i_glide_ligand_efficiency>  (347) 
-0.174838

>  <r_i_glide_ligand_efficiency_sa>  (347) 
-0.497217

>  <r_i_glide_ligand_efficiency_ln>  (347) 
-0.972383

>  <r_i_glide_gscore>  (347) 
-4.02128

>  <r_i_glide_lipo>  (347) 
-1.10014

>  <r_i_glide_hbond>  (347) 
-0.319568

>  <r_i_glide_metal>  (347) 
-0

>  <r_i_glide_rewards>  (347) 
-1.22961

>  <r_i_glide_evdw>  (347) 
-23.0595

>  <r_i_glide_ecoul>  (347) 
-2.67214

>  <r_i_glide_erotb>  (347) 
0.181825

>  <r_i_glide_esite>  (347) 
0

>  <r_i_glide_emodel>  (347) 
-28.5039

>  <r_i_glide_energy>  (347) 
-25.7316

>  <r_i_glide_einternal>  (347) 
1.75513

>  <r_i_glide_intrahb_reward>  (347) 
-0

>  <i_i_glide_confnum>  (347) 
4

>  <i_i_glide_posenum>  (347) 
39

>  <r_i_glide_eff_state_penalty>  (347) 
0

>  <ligand_id>  (347) 
99

>  <original_smiles>  (347) 
COC(=O)C1(C)C2CCC34CC(C)(CCC3C2(C)C)C(O)CC41

>  <smiles>  (347) 
[H]OC1([H])C([H])([H])C2([H])C(C(=O)OC([H])([H])[H])(C([H])([H])[H])C3([H])C([H])([H])C([H])([H])C24C([H])([H])C1(C([H])([H])[H])C([H])([H])C([H])([H])C4([H])C3(C([H])([H])[H])C([H])([H])[H]

$$$$
100:0:0
     RDKit          3D

 46 49  0  0  1  0  0  0  0  0999 V2000
    8.2146   -2.7498   -0.3338 C   0  0  0  0  0  0  0  0  0  0  0  0
    7.0378   -2.6653    0.3190 C   0  0  0  0  0  0  0  0  0  0  0  0
    6.3607   -1.3380    0.5491 C   0  0  1  0  0  0  0  0  0  0  0  0
    5.2709   -1.0661   -0.5158 C   0  0  0  0  0  0  0  0  0  0  0  0
    4.1629   -2.1319   -0.6511 C   0  0  1  0  0  0  0  0  0  0  0  0
    4.3913   -3.3628   -1.5860 C   0  0  1  0  0  0  0  0  0  0  0  0
    5.4134   -3.2172   -2.7251 C   0  0  0  0  0  0  0  0  0  0  0  0
    4.6151   -4.6091   -0.6802 C   0  0  0  0  0  0  0  0  0  0  0  0
    4.8329   -4.0583    0.7415 C   0  0  2  0  0  0  0  0  0  0  0  0
    6.3658   -3.8346    1.0196 C   0  0  1  0  0  0  0  0  0  0  0  0
    7.0892   -5.0383    0.8247 O   0  0  0  0  0  0  0  0  0  0  0  0
    4.1521   -4.7106    1.9644 C   0  0  1  0  0  0  0  0  0  0  0  0
    4.8812   -5.7646    2.5610 O   0  0  0  0  0  0  0  0  0  0  0  0
    3.7923   -3.5212    2.9254 C   0  0  1  0  0  0  0  0  0  0  0  0
    4.6432   -3.3808    4.2060 C   0  0  0  0  0  0  0  0  0  0  0  0
    3.6721   -2.2321    2.0315 C   0  0  1  0  0  0  0  0  0  0  0  0
    2.2457   -1.6520    2.1730 C   0  0  0  0  0  0  0  0  0  0  0  0
    4.6444   -1.0486    2.3075 C   0  0  0  0  0  0  0  0  0  0  0  0
    6.0029   -1.2327    1.9346 O   0  0  0  0  0  0  0  0  0  0  0  0
    3.8736   -2.8624    0.6481 C   0  0  1  0  0  0  0  0  0  0  0  0
    8.7293   -3.6889   -0.4606 H   0  0  0  0  0  0  0  0  0  0  0  0
    8.6935   -1.8786   -0.7529 H   0  0  0  0  0  0  0  0  0  0  0  0
    7.1150   -0.5658    0.4078 H   0  0  0  0  0  0  0  0  0  0  0  0
    4.7954   -0.1104   -0.3006 H   0  0  0  0  0  0  0  0  0  0  0  0
    5.7411   -0.9170   -1.4863 H   0  0  0  0  0  0  0  0  0  0  0  0
    3.2613   -1.6139   -0.9856 H   0  0  0  0  0  0  0  0  0  0  0  0
    3.4390   -3.5431   -2.0869 H   0  0  0  0  0  0  0  0  0  0  0  0
    6.4328   -3.1045   -2.3594 H   0  0  0  0  0  0  0  0  0  0  0  0
    5.1782   -2.3592   -3.3565 H   0  0  0  0  0  0  0  0  0  0  0  0
    5.3995   -4.1052   -3.3586 H   0  0  0  0  0  0  0  0  0  0  0  0
    3.7166   -5.2232   -0.6940 H   0  0  0  0  0  0  0  0  0  0  0  0
    5.4132   -5.2505   -1.0407 H   0  0  0  0  0  0  0  0  0  0  0  0
    6.5008   -3.6207    2.0757 H   0  0  0  0  0  0  0  0  0  0  0  0
    6.8176   -5.6443    1.5024 H   0  0  0  0  0  0  0  0  0  0  0  0
    3.2095   -5.1610    1.6411 H   0  0  0  0  0  0  0  0  0  0  0  0
    4.8670   -6.5059    1.9699 H   0  0  0  0  0  0  0  0  0  0  0  0
    2.8017   -3.7682    3.3121 H   0  0  0  0  0  0  0  0  0  0  0  0
    5.6790   -3.1124    4.0112 H   0  0  0  0  0  0  0  0  0  0  0  0
    4.6428   -4.3063    4.7836 H   0  0  0  0  0  0  0  0  0  0  0  0
    4.2249   -2.6107    4.8543 H   0  0  0  0  0  0  0  0  0  0  0  0
    2.0707   -0.8496    1.4556 H   0  0  0  0  0  0  0  0  0  0  0  0
    2.0933   -1.2418    3.1722 H   0  0  0  0  0  0  0  0  0  0  0  0
    1.4719   -2.4026    2.0113 H   0  0  0  0  0  0  0  0  0  0  0  0
    4.2780   -0.1378    1.8335 H   0  0  0  0  0  0  0  0  0  0  0  0
    4.6361   -0.8097    3.3725 H   0  0  0  0  0  0  0  0  0  0  0  0
    2.8849   -3.2877    0.4380 H   0  0  0  0  0  0  0  0  0  0  0  0
  1  2  2  0
  1 21  1  0
  1 22  1  0
  2 10  1  0
  2  3  1  0
  3 19  1  0
  3  4  1  0
  3 23  1  6
  4  5  1  0
  4 24  1  0
  4 25  1  0
  5 20  1  0
  5  6  1  0
  5 26  1  6
  6  7  1  0
  6  8  1  0
  6 27  1  6
  7 28  1  0
  7 29  1  0
  7 30  1  0
  9  8  1  6
  8 31  1  0
  8 32  1  0
  9 20  1  0
  9 10  1  0
  9 12  1  0
 10 11  1  0
 10 33  1  1
 11 34  1  0
 12 13  1  0
 12 14  1  0
 12 35  1  6
 13 36  1  0
 14 15  1  0
 14 16  1  0
 14 37  1  1
 15 38  1  0
 15 39  1  0
 15 40  1  0
 16 17  1  6
 16 18  1  0
 16 20  1  0
 17 41  1  0
 17 42  1  0
 17 43  1  0
 18 19  1  0
 18 44  1  0
 18 45  1  0
 20 46  1  6
M  END
>  <i_m_ct_stereo_status>  (348) 
1

>  <s_m_source_file>  (348) 
/var/tmp/pbs.5076255.sched01/tmpm28zzdm2/1449lyhn0we.sdf

>  <i_m_source_file_index>  (348) 
10

>  <i_lp_mmshare_version>  (348) 
48012

>  <i_f3d_flags>  (348) 
0

>  <s_epik_input>  (348) 
W0NIM11bQ0BASF0oW0NIMl0xKVtDSF0oW0NASF0yW0NAQF0xMzQpW0NIMl1bQ0BIXShDKD1bQ0gyXSlbQ0BASF0zW09IXSlPW0NIMl1bQ0BdMihbQ0gzXSlbQ0BIXShbQ0gzXSlbQ0BASF00W09IXQ==

>  <s_epik_cmdline>  (348) 
J2VwaWtfcHl0aG9uJywgJy1waHQnLCAnMi4wJywgJy1waCcsICc3LjAnLCAnLXRuJywgJzgnLCAnLW1hJywgJzIwMCcsICctaW1hZScsICc8aW5maWxlLm1hZT4nLCAnLW9tYWUnLCAnPG91dGZpbGUubWFlPic=

>  <r_lp_tautomer_probability>  (348) 
1

>  <r_epik_Ionization_Penalty>  (348) 
3.34446e-07

>  <r_epik_Ionization_Penalty_Charging>  (348) 
0

>  <r_epik_Ionization_Penalty_Neutral>  (348) 
3.34446e-07

>  <r_epik_State_Penalty>  (348) 
-0

>  <r_epik_Charging_Adjusted_Penalty>  (348) 
0

>  <i_epik_Tot_Q>  (348) 
0

>  <i_epik_Tot_abs_Q>  (348) 
0

>  <s_lp_Force_Field>  (348) 
OPLS3e

>  <r_lp_Energy>  (348) 
66.4525

>  <b_lp_Chiralities_Consistent>  (348) 
1

>  <s_lp_Variant>  (348) 
100:0-1

>  <s_i_glide_gridfile>  (348) 
pfpi4k_grid

>  <i_i_glide_lignum>  (348) 
10

>  <i_i_glide_rotatable_bonds>  (348) 
2

>  <r_i_docking_score>  (348) 
-3.51317

>  <r_i_glide_ligand_efficiency>  (348) 
-0.175658

>  <r_i_glide_ligand_efficiency_sa>  (348) 
-0.47681

>  <r_i_glide_ligand_efficiency_ln>  (348) 
-0.87923

>  <r_i_glide_gscore>  (348) 
-3.51317

>  <r_i_glide_lipo>  (348) 
-0.634017

>  <r_i_glide_hbond>  (348) 
0

>  <r_i_glide_metal>  (348) 
-0

>  <r_i_glide_rewards>  (348) 
-1.511

>  <r_i_glide_evdw>  (348) 
-24.2443

>  <r_i_glide_ecoul>  (348) 
-1.03955

>  <r_i_glide_erotb>  (348) 
0

>  <r_i_glide_esite>  (348) 
0

>  <r_i_glide_emodel>  (348) 
-30.0229

>  <r_i_glide_energy>  (348) 
-25.2839

>  <r_i_glide_einternal>  (348) 
0.792285

>  <r_i_glide_intrahb_reward>  (348) 
-0

>  <i_i_glide_confnum>  (348) 
2

>  <i_i_glide_posenum>  (348) 
26

>  <r_i_glide_eff_state_penalty>  (348) 
0

>  <ligand_id>  (348) 
100

>  <original_smiles>  (348) 
C=C1C2CC3C(C)CC4(C1O)C(O)C(C)C(C)(CO2)C34

>  <smiles>  (348) 
[H]OC1([H])C(=C([H])[H])C2([H])OC([H])([H])C3(C([H])([H])[H])C([H])(C([H])([H])[H])C([H])(O[H])C14C([H])([H])C([H])(C([H])([H])[H])C([H])(C2([H])[H])C43[H]

$$$$
100:0:1
     RDKit          3D

 46 49  0  0  1  0  0  0  0  0999 V2000
    7.5241   -3.4994    0.2506 C   0  0  0  0  0  0  0  0  0  0  0  0
    6.3930   -3.0376    0.8211 C   0  0  0  0  0  0  0  0  0  0  0  0
    6.1756   -1.5604    1.0305 C   0  0  1  0  0  0  0  0  0  0  0  0
    5.3202   -0.9561   -0.1055 C   0  0  0  0  0  0  0  0  0  0  0  0
    3.9409   -1.6022   -0.3496 C   0  0  1  0  0  0  0  0  0  0  0  0
    3.8283   -2.8390   -1.2991 C   0  0  1  0  0  0  0  0  0  0  0  0
    4.9337   -3.0370   -2.3535 C   0  0  0  0  0  0  0  0  0  0  0  0
    3.5546   -4.0884   -0.4071 C   0  0  0  0  0  0  0  0  0  0  0  0
    3.8279   -3.6421    1.0458 C   0  0  2  0  0  0  0  0  0  0  0  0
    5.3212   -3.9222    1.4526 C   0  0  1  0  0  0  0  0  0  0  0  0
    5.6194   -5.2948    1.2799 O   0  0  0  0  0  0  0  0  0  0  0  0
    2.8640   -4.0230    2.1960 C   0  0  1  0  0  0  0  0  0  0  0  0
    3.1046   -5.2554    2.8437 O   0  0  0  0  0  0  0  0  0  0  0  0
    2.8417   -2.7810    3.1510 C   0  0  1  0  0  0  0  0  0  0  0  0
    3.5897   -2.9256    4.4941 C   0  0  0  0  0  0  0  0  0  0  0  0
    3.2252   -1.5298    2.2801 C   0  0  1  0  0  0  0  0  0  0  0  0
    2.0577   -0.5157    2.3201 C   0  0  0  0  0  0  0  0  0  0  0  0
    4.5043   -0.7283    2.6595 C   0  0  0  0  0  0  0  0  0  0  0  0
    5.7589   -1.3413    2.3863 O   0  0  0  0  0  0  0  0  0  0  0  0
    3.3256   -2.1967    0.9039 C   0  0  1  0  0  0  0  0  0  0  0  0
    7.7296   -4.5517    0.1493 H   0  0  0  0  0  0  0  0  0  0  0  0
    8.2783   -2.8189   -0.1208 H   0  0  0  0  0  0  0  0  0  0  0  0
    7.1491   -1.0707    0.9617 H   0  0  0  0  0  0  0  0  0  0  0  0
    5.1707    0.1043    0.0964 H   0  0  0  0  0  0  0  0  0  0  0  0
    5.8859   -0.9719   -1.0361 H   0  0  0  0  0  0  0  0  0  0  0  0
    3.2883   -0.8194   -0.7400 H   0  0  0  0  0  0  0  0  0  0  0  0
    2.9139   -2.6897   -1.8786 H   0  0  0  0  0  0  0  0  0  0  0  0
    5.9014   -3.2573   -1.9058 H   0  0  0  0  0  0  0  0  0  0  0  0
    5.0443   -2.1507   -2.9801 H   0  0  0  0  0  0  0  0  0  0  0  0
    4.6886   -3.8742   -3.0095 H   0  0  0  0  0  0  0  0  0  0  0  0
    2.5066   -4.3694   -0.5165 H   0  0  0  0  0  0  0  0  0  0  0  0
    4.1289   -4.9564   -0.7251 H   0  0  0  0  0  0  0  0  0  0  0  0
    5.4390   -3.7547    2.5179 H   0  0  0  0  0  0  0  0  0  0  0  0
    5.4153   -5.5241    0.3843 H   0  0  0  0  0  0  0  0  0  0  0  0
    1.8618   -4.1274    1.7772 H   0  0  0  0  0  0  0  0  0  0  0  0
    4.0096   -5.2723    3.1257 H   0  0  0  0  0  0  0  0  0  0  0  0
    1.7971   -2.6882    3.4501 H   0  0  0  0  0  0  0  0  0  0  0  0
    4.6685   -3.0117    4.3847 H   0  0  0  0  0  0  0  0  0  0  0  0
    3.2394   -3.7979    5.0462 H   0  0  0  0  0  0  0  0  0  0  0  0
    3.3942   -2.0602    5.1267 H   0  0  0  0  0  0  0  0  0  0  0  0
    2.2126    0.3005    1.6134 H   0  0  0  0  0  0  0  0  0  0  0  0
    1.9606   -0.0781    3.3148 H   0  0  0  0  0  0  0  0  0  0  0  0
    1.0996   -0.9739    2.0718 H   0  0  0  0  0  0  0  0  0  0  0  0
    4.4909    0.2503    2.1796 H   0  0  0  0  0  0  0  0  0  0  0  0
    4.4856   -0.4955    3.7248 H   0  0  0  0  0  0  0  0  0  0  0  0
    2.2727   -2.2702    0.6044 H   0  0  0  0  0  0  0  0  0  0  0  0
  1  2  2  0
  1 21  1  0
  1 22  1  0
  2 10  1  0
  2  3  1  0
  3 19  1  0
  3  4  1  0
  3 23  1  1
  4  5  1  0
  4 24  1  0
  4 25  1  0
  5 20  1  0
  5  6  1  0
  5 26  1  6
  6  7  1  0
  6  8  1  0
  6 27  1  6
  7 28  1  0
  7 29  1  0
  7 30  1  0
  9  8  1  6
  8 31  1  0
  8 32  1  0
  9 20  1  0
  9 10  1  0
  9 12  1  0
 10 11  1  0
 10 33  1  1
 11 34  1  0
 12 13  1  0
 12 14  1  0
 12 35  1  6
 13 36  1  0
 14 15  1  0
 14 16  1  0
 14 37  1  1
 15 38  1  0
 15 39  1  0
 15 40  1  0
 16 17  1  6
 16 18  1  0
 16 20  1  0
 17 41  1  0
 17 42  1  0
 17 43  1  0
 18 19  1  0
 18 44  1  0
 18 45  1  0
 20 46  1  6
M  END
>  <i_m_ct_stereo_status>  (349) 
1

>  <s_m_source_file>  (349) 
/var/tmp/pbs.5076255.sched01/tmpm28zzdm2/1449lyhn0we.sdf

>  <i_m_source_file_index>  (349) 
10

>  <i_lp_mmshare_version>  (349) 
48012

>  <i_f3d_flags>  (349) 
0

>  <s_epik_input>  (349) 
W0NIM11bQ0BASF0oW0NIMl0xKVtDSF0oW0NASF0yW0NAQF0xMzQpW0NIMl1bQ0BIXShDKD1bQ0gyXSlbQ0BASF0zW09IXSlPW0NIMl1bQ0BdMihbQ0gzXSlbQ0BIXShbQ0gzXSlbQ0BASF00W09IXQ==

>  <s_epik_cmdline>  (349) 
J2VwaWtfcHl0aG9uJywgJy1waHQnLCAnMi4wJywgJy1waCcsICc3LjAnLCAnLXRuJywgJzgnLCAnLW1hJywgJzIwMCcsICctaW1hZScsICc8aW5maWxlLm1hZT4nLCAnLW9tYWUnLCAnPG91dGZpbGUubWFlPic=

>  <r_lp_tautomer_probability>  (349) 
1

>  <r_epik_Ionization_Penalty>  (349) 
3.34446e-07

>  <r_epik_Ionization_Penalty_Charging>  (349) 
0

>  <r_epik_Ionization_Penalty_Neutral>  (349) 
3.34446e-07

>  <r_epik_State_Penalty>  (349) 
-0

>  <r_epik_Charging_Adjusted_Penalty>  (349) 
0

>  <i_epik_Tot_Q>  (349) 
0

>  <i_epik_Tot_abs_Q>  (349) 
0

>  <s_lp_Force_Field>  (349) 
OPLS3e

>  <r_lp_Energy>  (349) 
66.4525

>  <b_lp_Chiralities_Consistent>  (349) 
1

>  <s_lp_Variant>  (349) 
100:0-1

>  <s_i_glide_gridfile>  (349) 
pfpi4k_grid

>  <i_i_glide_lignum>  (349) 
10

>  <i_i_glide_rotatable_bonds>  (349) 
2

>  <r_i_docking_score>  (349) 
-3.48603

>  <r_i_glide_ligand_efficiency>  (349) 
-0.174302

>  <r_i_glide_ligand_efficiency_sa>  (349) 
-0.473127

>  <r_i_glide_ligand_efficiency_ln>  (349) 
-0.872439

>  <r_i_glide_gscore>  (349) 
-3.48603

>  <r_i_glide_lipo>  (349) 
-0.655526

>  <r_i_glide_hbond>  (349) 
0

>  <r_i_glide_metal>  (349) 
-0

>  <r_i_glide_rewards>  (349) 
-1.511

>  <r_i_glide_evdw>  (349) 
-22.8628

>  <r_i_glide_ecoul>  (349) 
-1.17576

>  <r_i_glide_erotb>  (349) 
0

>  <r_i_glide_esite>  (349) 
0

>  <r_i_glide_emodel>  (349) 
-29.1547

>  <r_i_glide_energy>  (349) 
-24.0386

>  <r_i_glide_einternal>  (349) 
0.0225921

>  <r_i_glide_intrahb_reward>  (349) 
-0

>  <i_i_glide_confnum>  (349) 
2

>  <i_i_glide_posenum>  (349) 
1

>  <r_i_glide_eff_state_penalty>  (349) 
0

>  <ligand_id>  (349) 
100

>  <original_smiles>  (349) 
C=C1C2CC3C(C)CC4(C1O)C(O)C(C)C(C)(CO2)C34

>  <smiles>  (349) 
[H]OC1([H])C(=C([H])[H])C2([H])OC([H])([H])C3(C([H])([H])[H])C([H])(C([H])([H])[H])C([H])(O[H])C14C([H])([H])C([H])(C([H])([H])[H])C([H])(C2([H])[H])C43[H]

$$$$
101:1:0
     RDKit          3D

 49 52  0  0  1  0  0  0  0  0999 V2000
    5.5130   -1.1700    3.1724 C   0  0  0  0  0  0  0  0  0  0  0  0
    4.7677   -2.3764    2.7082 C   0  0  0  0  0  0  0  0  0  0  0  0
    3.4859   -2.6305    3.5128 C   0  0  0  0  0  0  0  0  0  0  0  0
    5.1261   -3.1934    1.6741 C   0  0  0  0  0  0  0  0  0  0  0  0
    6.3117   -3.1015    0.6297 C   0  0  0  0  0  0  0  0  0  0  0  0
    6.7401   -1.6601    0.3075 C   0  0  0  0  0  0  0  0  0  0  0  0
    7.5180   -3.9181    1.1130 C   0  0  0  0  0  0  0  0  0  0  0  0
    5.8121   -3.8977   -0.6121 C   0  0  0  0  0  0  0  0  0  0  0  0
    4.6281   -4.4103   -0.0595 C   0  0  0  0  0  0  0  0  0  0  0  0
    4.1596   -4.2706    1.2997 C   0  0  1  0  0  0  0  0  0  0  0  0
    4.3173   -5.4428    2.0650 O   0  0  0  0  0  0  0  0  0  0  0  0
    3.1666   -4.3028    0.1981 C   0  0  2  0  0  0  0  0  0  0  0  0
    2.2386   -5.4884    0.1435 C   0  0  0  0  0  0  0  0  0  0  0  0
    2.7038   -3.0924   -0.5817 C   0  0  1  0  0  0  0  0  0  0  0  0
    3.0703   -1.8588   -0.0125 O   0  0  0  0  0  0  0  0  0  0  0  0
    3.0265   -3.1968   -2.0765 C   0  0  2  0  0  0  0  0  0  0  0  0
    4.4134   -3.4007   -2.7040 C   0  0  2  0  0  0  0  0  0  0  0  0
    5.7722   -3.3470   -2.0424 C   0  0  0  0  0  0  0  0  0  0  0  0
    3.6217   -2.1441   -2.9891 C   0  0  0  0  0  0  0  0  0  0  0  0
    2.9727   -2.0205   -4.2979 C   0  0  0  0  0  0  0  0  0  0  0  0
    4.0767   -0.7699   -2.6007 C   0  0  0  0  0  0  0  0  0  0  0  0
    5.3085   -0.9967    4.2342 H   0  0  0  0  0  0  0  0  0  0  0  0
    5.2374   -0.2876    2.5994 H   0  0  0  0  0  0  0  0  0  0  0  0
    6.5805   -1.3237    3.0529 H   0  0  0  0  0  0  0  0  0  0  0  0
    2.9125   -1.7078    3.5734 H   0  0  0  0  0  0  0  0  0  0  0  0
    3.7410   -2.9554    4.5241 H   0  0  0  0  0  0  0  0  0  0  0  0
    2.7988   -3.3711    3.1130 H   0  0  0  0  0  0  0  0  0  0  0  0
    5.8926   -1.0187    0.1045 H   0  0  0  0  0  0  0  0  0  0  0  0
    7.4370   -1.6062   -0.5250 H   0  0  0  0  0  0  0  0  0  0  0  0
    7.2735   -1.2166    1.1228 H   0  0  0  0  0  0  0  0  0  0  0  0
    7.2410   -4.9609    1.3333 H   0  0  0  0  0  0  0  0  0  0  0  0
    7.8549   -3.4923    2.0361 H   0  0  0  0  0  0  0  0  0  0  0  0
    8.3504   -3.9114    0.3920 H   0  0  0  0  0  0  0  0  0  0  0  0
    3.9144   -5.3102    2.9056 H   0  0  0  0  0  0  0  0  0  0  0  0
    1.3994   -5.2945    0.7989 H   0  0  0  0  0  0  0  0  0  0  0  0
    2.6944   -6.4048    0.4774 H   0  0  0  0  0  0  0  0  0  0  0  0
    1.8239   -5.6333   -0.8357 H   0  0  0  0  0  0  0  0  0  0  0  0
    1.6152   -3.0784   -0.5172 H   0  0  0  0  0  0  0  0  0  0  0  0
    2.4092   -1.2423   -0.3217 H   0  0  0  0  0  0  0  0  0  0  0  0
    2.2632   -3.8050   -2.5563 H   0  0  0  0  0  0  0  0  0  0  0  0
    4.4236   -4.1090   -3.5365 H   0  0  0  0  0  0  0  0  0  0  0  0
    6.1993   -2.3661   -2.1291 H   0  0  0  0  0  0  0  0  0  0  0  0
    6.4339   -3.9378   -2.6820 H   0  0  0  0  0  0  0  0  0  0  0  0
    3.6757   -1.5901   -5.0071 H   0  0  0  0  0  0  0  0  0  0  0  0
    2.0868   -1.3789   -4.2481 H   0  0  0  0  0  0  0  0  0  0  0  0
    2.6588   -3.0118   -4.6389 H   0  0  0  0  0  0  0  0  0  0  0  0
    4.6789   -0.3414   -3.3964 H   0  0  0  0  0  0  0  0  0  0  0  0
    4.6422   -0.7631   -1.6654 H   0  0  0  0  0  0  0  0  0  0  0  0
    3.1888   -0.1554   -2.5225 H   0  0  0  0  0  0  0  0  0  0  0  0
  1  2  1  0
  1 22  1  0
  1 23  1  0
  1 24  1  0
  2  3  1  0
  2  4  2  3
  3 25  1  0
  3 26  1  0
  3 27  1  0
  4 10  1  0
  4  5  1  0
  5  6  1  0
  5  7  1  0
  5  8  1  0
  6 28  1  0
  6 29  1  0
  6 30  1  0
  7 31  1  0
  7 32  1  0
  7 33  1  0
  8 18  1  0
  8  9  2  0
  9 12  1  0
  9 10  1  0
 10 11  1  1
 10 12  1  0
 11 34  1  0
 12 13  1  1
 12 14  1  0
 13 35  1  0
 13 36  1  0
 13 37  1  0
 14 15  1  0
 14 16  1  0
 14 38  1  6
 15 39  1  0
 16 19  1  0
 16 17  1  0
 16 40  1  6
 17 18  1  0
 17 19  1  0
 17 41  1  6
 18 42  1  0
 18 43  1  0
 19 20  1  0
 19 21  1  0
 20 44  1  0
 20 45  1  0
 20 46  1  0
 21 47  1  0
 21 48  1  0
 21 49  1  0
M  END
>  <i_m_ct_stereo_status>  (350) 
1

>  <s_m_source_file>  (350) 
/var/tmp/pbs.5076255.sched01/tmpm28zzdm2/1449lyhn0we.sdf

>  <i_m_source_file_index>  (350) 
12

>  <i_lp_mmshare_version>  (350) 
48012

>  <i_f3d_flags>  (350) 
0

>  <s_epik_input>  (350) 
W0NIM11DKFtDSDNdKT1DMUMoW0NIM10pKFtDSDNdKUMoPUMyQzEzW09IXSlbQ0gyXVtDQEhdNFtDQEhdKEM0KFtDSDNdKVtDSDNdKVtDQEhdKFtPSF0pQzIzW0NIM10=

>  <s_epik_cmdline>  (350) 
J2VwaWtfcHl0aG9uJywgJy1waHQnLCAnMi4wJywgJy1waCcsICc3LjAnLCAnLXRuJywgJzgnLCAnLW1hJywgJzIwMCcsICctaW1hZScsICc8aW5maWxlLm1hZT4nLCAnLW9tYWUnLCAnPG91dGZpbGUubWFlPic=

>  <r_lp_tautomer_probability>  (350) 
1

>  <r_epik_Ionization_Penalty>  (350) 
1.53554e-07

>  <r_epik_Ionization_Penalty_Charging>  (350) 
0

>  <r_epik_Ionization_Penalty_Neutral>  (350) 
1.53554e-07

>  <r_epik_State_Penalty>  (350) 
-0

>  <r_epik_Charging_Adjusted_Penalty>  (350) 
0

>  <i_epik_Tot_Q>  (350) 
0

>  <i_epik_Tot_abs_Q>  (350) 
0

>  <s_lp_Force_Field>  (350) 
OPLS3e

>  <r_lp_Energy>  (350) 
65.0578

>  <b_lp_Chiralities_Consistent>  (350) 
1

>  <s_lp_Variant>  (350) 
101:0-2

>  <s_i_glide_gridfile>  (350) 
pfpi4k_grid

>  <i_i_glide_lignum>  (350) 
12

>  <i_i_glide_rotatable_bonds>  (350) 
2

>  <r_i_docking_score>  (350) 
-3.31712

>  <r_i_glide_ligand_efficiency>  (350) 
-0.157958

>  <r_i_glide_ligand_efficiency_sa>  (350) 
-0.435795

>  <r_i_glide_ligand_efficiency_ln>  (350) 
-0.820152

>  <r_i_glide_gscore>  (350) 
-3.31712

>  <r_i_glide_lipo>  (350) 
-0.761083

>  <r_i_glide_hbond>  (350) 
-0.150643

>  <r_i_glide_metal>  (350) 
-0

>  <r_i_glide_rewards>  (350) 
-1.44256

>  <r_i_glide_evdw>  (350) 
-10.7732

>  <r_i_glide_ecoul>  (350) 
-2.82783

>  <r_i_glide_erotb>  (350) 
0

>  <r_i_glide_esite>  (350) 
0

>  <r_i_glide_emodel>  (350) 
-10.6889

>  <r_i_glide_energy>  (350) 
-13.6011

>  <r_i_glide_einternal>  (350) 
0.563667

>  <r_i_glide_intrahb_reward>  (350) 
-0

>  <i_i_glide_confnum>  (350) 
2

>  <i_i_glide_posenum>  (350) 
4

>  <r_i_glide_eff_state_penalty>  (350) 
0

>  <ligand_id>  (350) 
101

>  <original_smiles>  (350) 
CC(C)=C1C(C)(C)C2=C3C1(O)C3(C)C(O)C1C(C2)C1(C)C

>  <smiles>  (350) 
[H]OC12C(=C(C([H])([H])[H])C([H])([H])[H])C(C([H])([H])[H])(C([H])([H])[H])C3=C1C2(C([H])([H])[H])C([H])(O[H])C1([H])C([H])(C3([H])[H])C1(C([H])([H])[H])C([H])([H])[H]

$$$$
101:1:1
     RDKit          3D

 49 52  0  0  1  0  0  0  0  0999 V2000
    5.4787   -1.3993    3.2123 C   0  0  0  0  0  0  0  0  0  0  0  0
    4.7257   -2.5665    2.6852 C   0  0  0  0  0  0  0  0  0  0  0  0
    3.4223   -2.8093    3.4625 C   0  0  0  0  0  0  0  0  0  0  0  0
    5.0892   -3.3696    1.6526 C   0  0  0  0  0  0  0  0  0  0  0  0
    6.3124   -3.2685    0.6224 C   0  0  0  0  0  0  0  0  0  0  0  0
    6.7984   -1.8232    0.3683 C   0  0  0  0  0  0  0  0  0  0  0  0
    7.4820   -4.1374    1.1085 C   0  0  0  0  0  0  0  0  0  0  0  0
    5.8083   -3.9722   -0.6603 C   0  0  0  0  0  0  0  0  0  0  0  0
    4.5858   -4.4552   -0.1435 C   0  0  0  0  0  0  0  0  0  0  0  0
    4.1358   -4.3970    1.2287 C   0  0  1  0  0  0  0  0  0  0  0  0
    4.3482   -5.6455    1.8783 O   0  0  0  0  0  0  0  0  0  0  0  0
    3.1273   -4.3157    0.1153 C   0  0  2  0  0  0  0  0  0  0  0  0
    2.1587   -5.4544   -0.0070 C   0  0  0  0  0  0  0  0  0  0  0  0
    2.7311   -3.0678   -0.6537 C   0  0  1  0  0  0  0  0  0  0  0  0
    3.1211   -1.8677   -0.0314 O   0  0  0  0  0  0  0  0  0  0  0  0
    3.0745   -3.1009   -2.1604 C   0  0  2  0  0  0  0  0  0  0  0  0
    4.4612   -3.3213   -2.7767 C   0  0  2  0  0  0  0  0  0  0  0  0
    5.8061   -3.3594   -2.0741 C   0  0  0  0  0  0  0  0  0  0  0  0
    3.7273   -2.0184   -3.0033 C   0  0  0  0  0  0  0  0  0  0  0  0
    3.1092   -1.7913   -4.3295 C   0  0  0  0  0  0  0  0  0  0  0  0
    4.2393   -0.6985   -2.5536 C   0  0  0  0  0  0  0  0  0  0  0  0
    5.2991   -1.2789    4.2864 H   0  0  0  0  0  0  0  0  0  0  0  0
    5.2616   -0.4732    2.6793 H   0  0  0  0  0  0  0  0  0  0  0  0
    6.5275   -1.6079    3.0613 H   0  0  0  0  0  0  0  0  0  0  0  0
    2.8912   -1.8644    3.5530 H   0  0  0  0  0  0  0  0  0  0  0  0
    3.6583   -3.1847    4.4606 H   0  0  0  0  0  0  0  0  0  0  0  0
    2.7243   -3.5075    3.0170 H   0  0  0  0  0  0  0  0  0  0  0  0
    5.9795   -1.1439    0.1776 H   0  0  0  0  0  0  0  0  0  0  0  0
    7.5160   -1.7579   -0.4489 H   0  0  0  0  0  0  0  0  0  0  0  0
    7.3305   -1.4363    1.2079 H   0  0  0  0  0  0  0  0  0  0  0  0
    7.1555   -5.1731    1.2634 H   0  0  0  0  0  0  0  0  0  0  0  0
    7.8524   -3.8013    2.0665 H   0  0  0  0  0  0  0  0  0  0  0  0
    8.3143   -4.1404    0.3892 H   0  0  0  0  0  0  0  0  0  0  0  0
    3.7663   -6.2642    1.5187 H   0  0  0  0  0  0  0  0  0  0  0  0
    1.3248   -5.2511    0.6428 H   0  0  0  0  0  0  0  0  0  0  0  0
    2.5748   -6.3972    0.2783 H   0  0  0  0  0  0  0  0  0  0  0  0
    1.7620   -5.4946   -1.0165 H   0  0  0  0  0  0  0  0  0  0  0  0
    1.6412   -3.0618   -0.6213 H   0  0  0  0  0  0  0  0  0  0  0  0
    2.4515   -1.2256   -0.2771 H   0  0  0  0  0  0  0  0  0  0  0  0
    2.3044   -3.6551   -2.6868 H   0  0  0  0  0  0  0  0  0  0  0  0
    4.4569   -3.9960   -3.6294 H   0  0  0  0  0  0  0  0  0  0  0  0
    6.2800   -2.3915   -2.1076 H   0  0  0  0  0  0  0  0  0  0  0  0
    6.4530   -3.9351   -2.7360 H   0  0  0  0  0  0  0  0  0  0  0  0
    3.8347   -1.3900   -5.0472 H   0  0  0  0  0  0  0  0  0  0  0  0
    2.2605   -1.1105   -4.3070 H   0  0  0  0  0  0  0  0  0  0  0  0
    2.7739   -2.7571   -4.6820 H   0  0  0  0  0  0  0  0  0  0  0  0
    4.9013   -0.2874   -3.3082 H   0  0  0  0  0  0  0  0  0  0  0  0
    4.7688   -0.7796   -1.6070 H   0  0  0  0  0  0  0  0  0  0  0  0
    3.3979   -0.0171   -2.4711 H   0  0  0  0  0  0  0  0  0  0  0  0
  1  2  1  0
  1 22  1  0
  1 23  1  0
  1 24  1  0
  2  3  1  0
  2  4  2  3
  3 25  1  0
  3 26  1  0
  3 27  1  0
  4 10  1  0
  4  5  1  0
  5  6  1  0
  5  7  1  0
  5  8  1  0
  6 28  1  0
  6 29  1  0
  6 30  1  0
  7 31  1  0
  7 32  1  0
  7 33  1  0
  8 18  1  0
  8  9  2  0
  9 12  1  0
  9 10  1  0
 10 11  1  1
 10 12  1  0
 11 34  1  0
 12 13  1  1
 12 14  1  0
 13 35  1  0
 13 36  1  0
 13 37  1  0
 14 15  1  0
 14 16  1  0
 14 38  1  6
 15 39  1  0
 16 19  1  0
 16 17  1  0
 16 40  1  6
 17 18  1  0
 17 19  1  0
 17 41  1  6
 18 42  1  0
 18 43  1  0
 19 20  1  0
 19 21  1  0
 20 44  1  0
 20 45  1  0
 20 46  1  0
 21 47  1  0
 21 48  1  0
 21 49  1  0
M  END
>  <i_m_ct_stereo_status>  (351) 
1

>  <s_m_source_file>  (351) 
/var/tmp/pbs.5076255.sched01/tmpm28zzdm2/1449lyhn0we.sdf

>  <i_m_source_file_index>  (351) 
12

>  <i_lp_mmshare_version>  (351) 
48012

>  <i_f3d_flags>  (351) 
0

>  <s_epik_input>  (351) 
W0NIM11DKFtDSDNdKT1DMUMoW0NIM10pKFtDSDNdKUMoPUMyQzEzW09IXSlbQ0gyXVtDQEhdNFtDQEhdKEM0KFtDSDNdKVtDSDNdKVtDQEhdKFtPSF0pQzIzW0NIM10=

>  <s_epik_cmdline>  (351) 
J2VwaWtfcHl0aG9uJywgJy1waHQnLCAnMi4wJywgJy1waCcsICc3LjAnLCAnLXRuJywgJzgnLCAnLW1hJywgJzIwMCcsICctaW1hZScsICc8aW5maWxlLm1hZT4nLCAnLW9tYWUnLCAnPG91dGZpbGUubWFlPic=

>  <r_lp_tautomer_probability>  (351) 
1

>  <r_epik_Ionization_Penalty>  (351) 
1.53554e-07

>  <r_epik_Ionization_Penalty_Charging>  (351) 
0

>  <r_epik_Ionization_Penalty_Neutral>  (351) 
1.53554e-07

>  <r_epik_State_Penalty>  (351) 
-0

>  <r_epik_Charging_Adjusted_Penalty>  (351) 
0

>  <i_epik_Tot_Q>  (351) 
0

>  <i_epik_Tot_abs_Q>  (351) 
0

>  <s_lp_Force_Field>  (351) 
OPLS3e

>  <r_lp_Energy>  (351) 
65.0578

>  <b_lp_Chiralities_Consistent>  (351) 
1

>  <s_lp_Variant>  (351) 
101:0-2

>  <s_i_glide_gridfile>  (351) 
pfpi4k_grid

>  <i_i_glide_lignum>  (351) 
12

>  <i_i_glide_rotatable_bonds>  (351) 
2

>  <r_i_docking_score>  (351) 
-3.30657

>  <r_i_glide_ligand_efficiency>  (351) 
-0.157456

>  <r_i_glide_ligand_efficiency_sa>  (351) 
-0.434409

>  <r_i_glide_ligand_efficiency_ln>  (351) 
-0.817543

>  <r_i_glide_gscore>  (351) 
-3.30657

>  <r_i_glide_lipo>  (351) 
-0.782849

>  <r_i_glide_hbond>  (351) 
-0.14535

>  <r_i_glide_metal>  (351) 
-0

>  <r_i_glide_rewards>  (351) 
-1.44256

>  <r_i_glide_evdw>  (351) 
-11.4315

>  <r_i_glide_ecoul>  (351) 
-2.53605

>  <r_i_glide_erotb>  (351) 
0

>  <r_i_glide_esite>  (351) 
0

>  <r_i_glide_emodel>  (351) 
-10.0435

>  <r_i_glide_energy>  (351) 
-13.9676

>  <r_i_glide_einternal>  (351) 
1.62665

>  <r_i_glide_intrahb_reward>  (351) 
-0

>  <i_i_glide_confnum>  (351) 
2

>  <i_i_glide_posenum>  (351) 
13

>  <r_i_glide_eff_state_penalty>  (351) 
0

>  <ligand_id>  (351) 
101

>  <original_smiles>  (351) 
CC(C)=C1C(C)(C)C2=C3C1(O)C3(C)C(O)C1C(C2)C1(C)C

>  <smiles>  (351) 
[H]OC12C(=C(C([H])([H])[H])C([H])([H])[H])C(C([H])([H])[H])(C([H])([H])[H])C3=C1C2(C([H])([H])[H])C([H])(O[H])C1([H])C([H])(C3([H])[H])C1(C([H])([H])[H])C([H])([H])[H]

$$$$
101:1:2
     RDKit          3D

 49 52  0  0  1  0  0  0  0  0999 V2000
    5.1325   -1.9971    3.6121 C   0  0  0  0  0  0  0  0  0  0  0  0
    4.3278   -3.0959    2.9884 C   0  0  0  0  0  0  0  0  0  0  0  0
    2.9657   -3.2753    3.6772 C   0  0  0  0  0  0  0  0  0  0  0  0
    4.6904   -3.8729    1.9350 C   0  0  0  0  0  0  0  0  0  0  0  0
    5.9551   -3.7717    0.9539 C   0  0  0  0  0  0  0  0  0  0  0  0
    6.4967   -2.3218    0.7777 C   0  0  0  0  0  0  0  0  0  0  0  0
    7.0571   -4.6876    1.4816 C   0  0  0  0  0  0  0  0  0  0  0  0
    5.4964   -4.4107   -0.3776 C   0  0  0  0  0  0  0  0  0  0  0  0
    4.2408   -4.8623    0.0809 C   0  0  0  0  0  0  0  0  0  0  0  0
    3.6926   -4.8239    1.4098 C   0  0  1  0  0  0  0  0  0  0  0  0
    3.7315   -6.1063    2.0222 O   0  0  0  0  0  0  0  0  0  0  0  0
    2.7832   -4.6559    0.2477 C   0  0  2  0  0  0  0  0  0  0  0  0
    1.7699   -5.7649    0.0425 C   0  0  0  0  0  0  0  0  0  0  0  0
    2.4893   -3.3641   -0.5024 C   0  0  1  0  0  0  0  0  0  0  0  0
    2.9486   -2.2285    0.1859 O   0  0  0  0  0  0  0  0  0  0  0  0
    2.8588   -3.3620   -2.0009 C   0  0  2  0  0  0  0  0  0  0  0  0
    4.2608   -3.5935   -2.5471 C   0  0  2  0  0  0  0  0  0  0  0  0
    5.5536   -3.6830   -1.7397 C   0  0  0  0  0  0  0  0  0  0  0  0
    3.5636   -2.2815   -2.8232 C   0  0  0  0  0  0  0  0  0  0  0  0
    3.0414   -2.0297   -4.2278 C   0  0  0  0  0  0  0  0  0  0  0  0
    4.1157   -0.9973   -2.2720 C   0  0  0  0  0  0  0  0  0  0  0  0
    4.8398   -1.8531    4.6523 H   0  0  0  0  0  0  0  0  0  0  0  0
    5.0103   -1.0473    3.0850 H   0  0  0  0  0  0  0  0  0  0  0  0
    6.1773   -2.2858    3.6116 H   0  0  0  0  0  0  0  0  0  0  0  0
    2.4575   -2.3162    3.7709 H   0  0  0  0  0  0  0  0  0  0  0  0
    3.1198   -3.6902    4.6719 H   0  0  0  0  0  0  0  0  0  0  0  0
    2.2681   -3.9307    3.1665 H   0  0  0  0  0  0  0  0  0  0  0  0
    5.7151   -1.5997    0.5606 H   0  0  0  0  0  0  0  0  0  0  0  0
    7.2594   -2.2468    0.0013 H   0  0  0  0  0  0  0  0  0  0  0  0
    7.0011   -1.9721    1.6653 H   0  0  0  0  0  0  0  0  0  0  0  0
    6.6879   -5.7113    1.5816 H   0  0  0  0  0  0  0  0  0  0  0  0
    7.3499   -4.3923    2.4740 H   0  0  0  0  0  0  0  0  0  0  0  0
    7.9320   -4.6919    0.8194 H   0  0  0  0  0  0  0  0  0  0  0  0
    4.6071   -6.2981    2.2520 H   0  0  0  0  0  0  0  0  0  0  0  0
    0.9012   -5.5248    0.6312 H   0  0  0  0  0  0  0  0  0  0  0  0
    2.0926   -6.7224    0.4211 H   0  0  0  0  0  0  0  0  0  0  0  0
    1.4541   -5.8340   -0.9929 H   0  0  0  0  0  0  0  0  0  0  0  0
    1.4079   -3.2570   -0.4999 H   0  0  0  0  0  0  0  0  0  0  0  0
    2.3755   -1.5191   -0.1099 H   0  0  0  0  0  0  0  0  0  0  0  0
    2.0816   -3.8669   -2.5645 H   0  0  0  0  0  0  0  0  0  0  0  0
    4.2895   -4.2559   -3.4036 H   0  0  0  0  0  0  0  0  0  0  0  0
    6.0856   -2.7361   -1.7310 H   0  0  0  0  0  0  0  0  0  0  0  0
    6.2131   -4.2416   -2.4055 H   0  0  0  0  0  0  0  0  0  0  0  0
    3.8203   -1.6238   -4.8725 H   0  0  0  0  0  0  0  0  0  0  0  0
    2.2278   -1.3001   -4.2126 H   0  0  0  0  0  0  0  0  0  0  0  0
    2.6617   -2.9471   -4.6763 H   0  0  0  0  0  0  0  0  0  0  0  0
    4.8487   -0.5619   -2.9503 H   0  0  0  0  0  0  0  0  0  0  0  0
    4.5971   -1.1506   -1.3096 H   0  0  0  0  0  0  0  0  0  0  0  0
    3.3052   -0.2848   -2.1536 H   0  0  0  0  0  0  0  0  0  0  0  0
  1  2  1  0
  1 22  1  0
  1 23  1  0
  1 24  1  0
  2  3  1  0
  2  4  2  3
  3 25  1  0
  3 26  1  0
  3 27  1  0
  4 10  1  0
  4  5  1  0
  5  6  1  0
  5  7  1  0
  5  8  1  0
  6 28  1  0
  6 29  1  0
  6 30  1  0
  7 31  1  0
  7 32  1  0
  7 33  1  0
  8 18  1  0
  8  9  2  0
  9 12  1  0
  9 10  1  0
 10 11  1  1
 10 12  1  0
 11 34  1  0
 12 13  1  6
 12 14  1  0
 13 35  1  0
 13 36  1  0
 13 37  1  0
 14 15  1  0
 14 16  1  0
 14 38  1  6
 15 39  1  0
 16 19  1  0
 16 17  1  0
 16 40  1  6
 17 18  1  0
 17 19  1  0
 17 41  1  6
 18 42  1  0
 18 43  1  0
 19 20  1  0
 19 21  1  0
 20 44  1  0
 20 45  1  0
 20 46  1  0
 21 47  1  0
 21 48  1  0
 21 49  1  0
M  END
>  <i_m_ct_stereo_status>  (352) 
1

>  <s_m_source_file>  (352) 
/var/tmp/pbs.5076255.sched01/tmpm28zzdm2/1449lyhn0we.sdf

>  <i_m_source_file_index>  (352) 
12

>  <i_lp_mmshare_version>  (352) 
48012

>  <i_f3d_flags>  (352) 
0

>  <s_epik_input>  (352) 
W0NIM11DKFtDSDNdKT1DMUMoW0NIM10pKFtDSDNdKUMoPUMyQzEzW09IXSlbQ0gyXVtDQEhdNFtDQEhdKEM0KFtDSDNdKVtDSDNdKVtDQEhdKFtPSF0pQzIzW0NIM10=

>  <s_epik_cmdline>  (352) 
J2VwaWtfcHl0aG9uJywgJy1waHQnLCAnMi4wJywgJy1waCcsICc3LjAnLCAnLXRuJywgJzgnLCAnLW1hJywgJzIwMCcsICctaW1hZScsICc8aW5maWxlLm1hZT4nLCAnLW9tYWUnLCAnPG91dGZpbGUubWFlPic=

>  <r_lp_tautomer_probability>  (352) 
1

>  <r_epik_Ionization_Penalty>  (352) 
1.53554e-07

>  <r_epik_Ionization_Penalty_Charging>  (352) 
0

>  <r_epik_Ionization_Penalty_Neutral>  (352) 
1.53554e-07

>  <r_epik_State_Penalty>  (352) 
-0

>  <r_epik_Charging_Adjusted_Penalty>  (352) 
0

>  <i_epik_Tot_Q>  (352) 
0

>  <i_epik_Tot_abs_Q>  (352) 
0

>  <s_lp_Force_Field>  (352) 
OPLS3e

>  <r_lp_Energy>  (352) 
65.0578

>  <b_lp_Chiralities_Consistent>  (352) 
1

>  <s_lp_Variant>  (352) 
101:0-2

>  <s_i_glide_gridfile>  (352) 
pfpi4k_grid

>  <i_i_glide_lignum>  (352) 
12

>  <i_i_glide_rotatable_bonds>  (352) 
2

>  <r_i_docking_score>  (352) 
-2.88267

>  <r_i_glide_ligand_efficiency>  (352) 
-0.13727

>  <r_i_glide_ligand_efficiency_sa>  (352) 
-0.378717

>  <r_i_glide_ligand_efficiency_ln>  (352) 
-0.712733

>  <r_i_glide_gscore>  (352) 
-2.88267

>  <r_i_glide_lipo>  (352) 
-0.597721

>  <r_i_glide_hbond>  (352) 
-0.154515

>  <r_i_glide_metal>  (352) 
-0

>  <r_i_glide_rewards>  (352) 
-1.44256

>  <r_i_glide_evdw>  (352) 
-9.46098

>  <r_i_glide_ecoul>  (352) 
-1.43214

>  <r_i_glide_erotb>  (352) 
0

>  <r_i_glide_esite>  (352) 
0

>  <r_i_glide_emodel>  (352) 
-7.61561

>  <r_i_glide_energy>  (352) 
-10.8931

>  <r_i_glide_einternal>  (352) 
0.965317

>  <r_i_glide_intrahb_reward>  (352) 
-0

>  <i_i_glide_confnum>  (352) 
2

>  <i_i_glide_posenum>  (352) 
12

>  <r_i_glide_eff_state_penalty>  (352) 
0

>  <ligand_id>  (352) 
101

>  <original_smiles>  (352) 
CC(C)=C1C(C)(C)C2=C3C1(O)C3(C)C(O)C1C(C2)C1(C)C

>  <smiles>  (352) 
[H]OC12C(=C(C([H])([H])[H])C([H])([H])[H])C(C([H])([H])[H])(C([H])([H])[H])C3=C1C2(C([H])([H])[H])C([H])(O[H])C1([H])C([H])(C3([H])[H])C1(C([H])([H])[H])C([H])([H])[H]

$$$$
101:2:0
     RDKit          3D

 49 52  0  0  1  0  0  0  0  0999 V2000
    1.3223   -5.5854    3.6808 C   0  0  0  0  0  0  0  0  0  0  0  0
    2.2701   -4.4291    3.6633 C   0  0  0  0  0  0  0  0  0  0  0  0
    1.8127   -3.2476    4.5412 C   0  0  0  0  0  0  0  0  0  0  0  0
    3.4226   -4.3541    2.9473 C   0  0  0  0  0  0  0  0  0  0  0  0
    4.0363   -5.3834    1.9024 C   0  0  0  0  0  0  0  0  0  0  0  0
    4.7380   -6.5500    2.6249 C   0  0  0  0  0  0  0  0  0  0  0  0
    2.9924   -5.9037    0.9115 C   0  0  0  0  0  0  0  0  0  0  0  0
    5.1672   -4.5563    1.1576 C   0  0  0  0  0  0  0  0  0  0  0  0
    5.0045   -3.3615    1.8221 C   0  0  0  0  0  0  0  0  0  0  0  0
    4.2210   -3.0733    2.9708 C   0  0  2  0  0  0  0  0  0  0  0  0
    4.9981   -2.9291    4.1497 O   0  0  0  0  0  0  0  0  0  0  0  0
    4.3291   -2.0555    1.9405 C   0  0  1  0  0  0  0  0  0  0  0  0
    5.0502   -0.7858    2.2721 C   0  0  0  0  0  0  0  0  0  0  0  0
    3.2063   -1.9826    0.8730 C   0  0  1  0  0  0  0  0  0  0  0  0
    2.7029   -0.6991    0.8338 O   0  0  0  0  0  0  0  0  0  0  0  0
    3.4336   -2.5043   -0.5629 C   0  0  2  0  0  0  0  0  0  0  0  0
    4.3229   -3.6426   -1.0841 C   0  0  2  0  0  0  0  0  0  0  0  0
    5.3206   -4.5055   -0.3394 C   0  0  0  0  0  0  0  0  0  0  0  0
    4.5808   -2.1898   -1.5096 C   0  0  0  0  0  0  0  0  0  0  0  0
    4.2061   -1.7399   -2.9223 C   0  0  0  0  0  0  0  0  0  0  0  0
    5.8131   -1.4705   -1.0607 C   0  0  0  0  0  0  0  0  0  0  0  0
    0.8425   -5.6387    4.6586 H   0  0  0  0  0  0  0  0  0  0  0  0
    1.8182   -6.5362    3.4891 H   0  0  0  0  0  0  0  0  0  0  0  0
    0.5505   -5.4049    2.9246 H   0  0  0  0  0  0  0  0  0  0  0  0
    0.7774   -3.0120    4.3204 H   0  0  0  0  0  0  0  0  0  0  0  0
    2.3613   -2.3173    4.4105 H   0  0  0  0  0  0  0  0  0  0  0  0
    1.9069   -3.5227    5.5920 H   0  0  0  0  0  0  0  0  0  0  0  0
    5.5125   -6.1712    3.3087 H   0  0  0  0  0  0  0  0  0  0  0  0
    5.2326   -7.2193    1.9084 H   0  0  0  0  0  0  0  0  0  0  0  0
    4.0232   -7.1333    3.2054 H   0  0  0  0  0  0  0  0  0  0  0  0
    2.4081   -5.0938    0.4783 H   0  0  0  0  0  0  0  0  0  0  0  0
    2.2974   -6.5704    1.3908 H   0  0  0  0  0  0  0  0  0  0  0  0
    3.4279   -6.4763    0.0825 H   0  0  0  0  0  0  0  0  0  0  0  0
    4.4499   -2.6783    4.8772 H   0  0  0  0  0  0  0  0  0  0  0  0
    4.4091   -0.1657    2.9180 H   0  0  0  0  0  0  0  0  0  0  0  0
    5.2796   -0.1844    1.3958 H   0  0  0  0  0  0  0  0  0  0  0  0
    5.9579   -0.9606    2.8398 H   0  0  0  0  0  0  0  0  0  0  0  0
    2.4112   -2.6358    1.2348 H   0  0  0  0  0  0  0  0  0  0  0  0
    1.9262   -0.7406    0.2426 H   0  0  0  0  0  0  0  0  0  0  0  0
    2.4722   -2.5123   -1.0525 H   0  0  0  0  0  0  0  0  0  0  0  0
    3.8511   -4.2195   -1.8780 H   0  0  0  0  0  0  0  0  0  0  0  0
    6.3132   -4.1204   -0.5894 H   0  0  0  0  0  0  0  0  0  0  0  0
    5.3359   -5.5050   -0.7670 H   0  0  0  0  0  0  0  0  0  0  0  0
    5.0100   -1.9375   -3.6192 H   0  0  0  0  0  0  0  0  0  0  0  0
    3.9894   -0.6752   -2.9474 H   0  0  0  0  0  0  0  0  0  0  0  0
    3.3161   -2.2588   -3.2858 H   0  0  0  0  0  0  0  0  0  0  0  0
    6.6085   -1.6308   -1.7862 H   0  0  0  0  0  0  0  0  0  0  0  0
    6.1443   -1.8268   -0.0869 H   0  0  0  0  0  0  0  0  0  0  0  0
    5.5940   -0.3902   -0.9846 H   0  0  0  0  0  0  0  0  0  0  0  0
  1  2  1  0
  1 22  1  0
  1 23  1  0
  1 24  1  0
  2  3  1  0
  2  4  2  3
  3 25  1  0
  3 26  1  0
  3 27  1  0
  4 10  1  0
  4  5  1  0
  5  6  1  0
  5  7  1  0
  5  8  1  0
  6 28  1  0
  6 29  1  0
  6 30  1  0
  7 31  1  0
  7 32  1  0
  7 33  1  0
  8 18  1  0
  8  9  2  0
  9 12  1  0
  9 10  1  0
 10 11  1  1
 10 12  1  0
 11 34  1  0
 12 13  1  1
 12 14  1  0
 13 35  1  0
 13 36  1  0
 13 37  1  0
 14 15  1  0
 14 16  1  0
 14 38  1  1
 15 39  1  0
 16 19  1  0
 16 17  1  0
 16 40  1  6
 17 18  1  0
 17 19  1  0
 17 41  1  6
 18 42  1  0
 18 43  1  0
 19 20  1  0
 19 21  1  0
 20 44  1  0
 20 45  1  0
 20 46  1  0
 21 47  1  0
 21 48  1  0
 21 49  1  0
M  END
>  <i_m_ct_stereo_status>  (353) 
1

>  <s_m_source_file>  (353) 
/var/tmp/pbs.5076255.sched01/tmpm28zzdm2/1449lyhn0we.sdf

>  <i_m_source_file_index>  (353) 
13

>  <i_lp_mmshare_version>  (353) 
48012

>  <i_f3d_flags>  (353) 
0

>  <s_epik_input>  (353) 
W0NIM11DKFtDSDNdKT1DMUMoW0NIM10pKFtDSDNdKUMoPUMyQzEzW09IXSlbQ0gyXVtDQEhdNFtDQEhdKEM0KFtDSDNdKVtDSDNdKVtDQEhdKFtPSF0pQzIzW0NIM10=

>  <s_epik_cmdline>  (353) 
J2VwaWtfcHl0aG9uJywgJy1waHQnLCAnMi4wJywgJy1waCcsICc3LjAnLCAnLXRuJywgJzgnLCAnLW1hJywgJzIwMCcsICctaW1hZScsICc8aW5maWxlLm1hZT4nLCAnLW9tYWUnLCAnPG91dGZpbGUubWFlPic=

>  <r_lp_tautomer_probability>  (353) 
1

>  <r_epik_Ionization_Penalty>  (353) 
1.53554e-07

>  <r_epik_Ionization_Penalty_Charging>  (353) 
0

>  <r_epik_Ionization_Penalty_Neutral>  (353) 
1.53554e-07

>  <r_epik_State_Penalty>  (353) 
-0

>  <r_epik_Charging_Adjusted_Penalty>  (353) 
0

>  <i_epik_Tot_Q>  (353) 
0

>  <i_epik_Tot_abs_Q>  (353) 
0

>  <s_lp_Force_Field>  (353) 
OPLS3e

>  <r_lp_Energy>  (353) 
61.6797

>  <b_lp_Chiralities_Consistent>  (353) 
1

>  <s_lp_Variant>  (353) 
101:0-3

>  <s_i_glide_gridfile>  (353) 
pfpi4k_grid

>  <i_i_glide_lignum>  (353) 
13

>  <i_i_glide_rotatable_bonds>  (353) 
2

>  <r_i_docking_score>  (353) 
-3.66309

>  <r_i_glide_ligand_efficiency>  (353) 
-0.174433

>  <r_i_glide_ligand_efficiency_sa>  (353) 
-0.481246

>  <r_i_glide_ligand_efficiency_ln>  (353) 
-0.90569

>  <r_i_glide_gscore>  (353) 
-3.66309

>  <r_i_glide_lipo>  (353) 
-0.323208

>  <r_i_glide_hbond>  (353) 
-0.16

>  <r_i_glide_metal>  (353) 
-0

>  <r_i_glide_rewards>  (353) 
-1.44256

>  <r_i_glide_evdw>  (353) 
-18.2671

>  <r_i_glide_ecoul>  (353) 
-5.49309

>  <r_i_glide_erotb>  (353) 
0

>  <r_i_glide_esite>  (353) 
0

>  <r_i_glide_emodel>  (353) 
-27.9742

>  <r_i_glide_energy>  (353) 
-23.7602

>  <r_i_glide_einternal>  (353) 
0.39751

>  <r_i_glide_intrahb_reward>  (353) 
-0

>  <i_i_glide_confnum>  (353) 
2

>  <i_i_glide_posenum>  (353) 
1

>  <r_i_glide_eff_state_penalty>  (353) 
0

>  <ligand_id>  (353) 
101

>  <original_smiles>  (353) 
CC(C)=C1C(C)(C)C2=C3C1(O)C3(C)C(O)C1C(C2)C1(C)C

>  <smiles>  (353) 
[H]OC12C(=C(C([H])([H])[H])C([H])([H])[H])C(C([H])([H])[H])(C([H])([H])[H])C3=C1C2(C([H])([H])[H])C([H])(O[H])C1([H])C([H])(C3([H])[H])C1(C([H])([H])[H])C([H])([H])[H]

$$$$
101:2:1
     RDKit          3D

 49 52  0  0  1  0  0  0  0  0999 V2000
    1.3917   -5.5911    3.6840 C   0  0  0  0  0  0  0  0  0  0  0  0
    2.3500   -4.4362    3.6760 C   0  0  0  0  0  0  0  0  0  0  0  0
    1.8704   -3.2600    4.5484 C   0  0  0  0  0  0  0  0  0  0  0  0
    3.5140   -4.3572    2.9908 C   0  0  0  0  0  0  0  0  0  0  0  0
    4.1038   -5.3738    1.9011 C   0  0  0  0  0  0  0  0  0  0  0  0
    4.8118   -6.5324    2.6108 C   0  0  0  0  0  0  0  0  0  0  0  0
    3.0394   -5.9055    0.9168 C   0  0  0  0  0  0  0  0  0  0  0  0
    5.2118   -4.5635    1.1542 C   0  0  0  0  0  0  0  0  0  0  0  0
    5.0164   -3.3456    1.8120 C   0  0  0  0  0  0  0  0  0  0  0  0
    4.2845   -3.0789    3.0016 C   0  0  2  0  0  0  0  0  0  0  0  0
    5.1487   -2.9360    4.1228 O   0  0  0  0  0  0  0  0  0  0  0  0
    4.3246   -2.0400    1.9685 C   0  0  1  0  0  0  0  0  0  0  0  0
    5.0652   -0.7600    2.2710 C   0  0  0  0  0  0  0  0  0  0  0  0
    3.2161   -1.9912    0.9059 C   0  0  1  0  0  0  0  0  0  0  0  0
    2.5617   -0.7613    0.8971 O   0  0  0  0  0  0  0  0  0  0  0  0
    3.4357   -2.4848   -0.5472 C   0  0  2  0  0  0  0  0  0  0  0  0
    4.3217   -3.6292   -1.0947 C   0  0  2  0  0  0  0  0  0  0  0  0
    5.3546   -4.4845   -0.3581 C   0  0  0  0  0  0  0  0  0  0  0  0
    4.5769   -2.1806   -1.5227 C   0  0  0  0  0  0  0  0  0  0  0  0
    4.1885   -1.7369   -2.9340 C   0  0  0  0  0  0  0  0  0  0  0  0
    5.8073   -1.4462   -1.0794 C   0  0  0  0  0  0  0  0  0  0  0  0
    0.9182   -5.6598    4.6636 H   0  0  0  0  0  0  0  0  0  0  0  0
    1.8907   -6.5455    3.4966 H   0  0  0  0  0  0  0  0  0  0  0  0
    0.6066   -5.4311    2.9390 H   0  0  0  0  0  0  0  0  0  0  0  0
    0.8294   -3.0303    4.3349 H   0  0  0  0  0  0  0  0  0  0  0  0
    2.4139   -2.3305    4.4152 H   0  0  0  0  0  0  0  0  0  0  0  0
    1.9678   -3.5355    5.5964 H   0  0  0  0  0  0  0  0  0  0  0  0
    5.5834   -6.1461    3.2887 H   0  0  0  0  0  0  0  0  0  0  0  0
    5.3076   -7.1976    1.8895 H   0  0  0  0  0  0  0  0  0  0  0  0
    4.1066   -7.1228    3.1984 H   0  0  0  0  0  0  0  0  0  0  0  0
    2.4404   -5.1106    0.4821 H   0  0  0  0  0  0  0  0  0  0  0  0
    2.3535   -6.5855    1.3984 H   0  0  0  0  0  0  0  0  0  0  0  0
    3.4686   -6.4773    0.0874 H   0  0  0  0  0  0  0  0  0  0  0  0
    5.3201   -3.7831    4.4616 H   0  0  0  0  0  0  0  0  0  0  0  0
    4.4078   -0.1730    2.9063 H   0  0  0  0  0  0  0  0  0  0  0  0
    5.2617   -0.1732    1.3849 H   0  0  0  0  0  0  0  0  0  0  0  0
    5.9770   -0.9177    2.8318 H   0  0  0  0  0  0  0  0  0  0  0  0
    2.4547   -2.6802    1.2488 H   0  0  0  0  0  0  0  0  0  0  0  0
    1.8816   -0.7844    0.2362 H   0  0  0  0  0  0  0  0  0  0  0  0
    2.4784   -2.5221   -1.0506 H   0  0  0  0  0  0  0  0  0  0  0  0
    3.8746   -4.2110   -1.8916 H   0  0  0  0  0  0  0  0  0  0  0  0
    6.3390   -4.0881   -0.6122 H   0  0  0  0  0  0  0  0  0  0  0  0
    5.3662   -5.4932   -0.7851 H   0  0  0  0  0  0  0  0  0  0  0  0
    4.9939   -1.9255   -3.6394 H   0  0  0  0  0  0  0  0  0  0  0  0
    3.9605   -0.6699   -2.9647 H   0  0  0  0  0  0  0  0  0  0  0  0
    3.3051   -2.2631   -3.2966 H   0  0  0  0  0  0  0  0  0  0  0  0
    6.6055   -1.5996   -1.8035 H   0  0  0  0  0  0  0  0  0  0  0  0
    6.1436   -1.8004   -0.1109 H   0  0  0  0  0  0  0  0  0  0  0  0
    5.5809   -0.3797   -1.0022 H   0  0  0  0  0  0  0  0  0  0  0  0
  1  2  1  0
  1 22  1  0
  1 23  1  0
  1 24  1  0
  2  3  1  0
  2  4  2  3
  3 25  1  0
  3 26  1  0
  3 27  1  0
  4 10  1  0
  4  5  1  0
  5  6  1  0
  5  7  1  0
  5  8  1  0
  6 28  1  0
  6 29  1  0
  6 30  1  0
  7 31  1  0
  7 32  1  0
  7 33  1  0
  8 18  1  0
  8  9  2  0
  9 12  1  0
  9 10  1  0
 10 11  1  1
 10 12  1  0
 11 34  1  0
 12 13  1  1
 12 14  1  0
 13 35  1  0
 13 36  1  0
 13 37  1  0
 14 15  1  0
 14 16  1  0
 14 38  1  1
 15 39  1  0
 16 19  1  0
 16 17  1  0
 16 40  1  6
 17 18  1  0
 17 19  1  0
 17 41  1  6
 18 42  1  0
 18 43  1  0
 19 20  1  0
 19 21  1  0
 20 44  1  0
 20 45  1  0
 20 46  1  0
 21 47  1  0
 21 48  1  0
 21 49  1  0
M  END
>  <i_m_ct_stereo_status>  (354) 
1

>  <s_m_source_file>  (354) 
/var/tmp/pbs.5076255.sched01/tmpm28zzdm2/1449lyhn0we.sdf

>  <i_m_source_file_index>  (354) 
13

>  <i_lp_mmshare_version>  (354) 
48012

>  <i_f3d_flags>  (354) 
0

>  <s_epik_input>  (354) 
W0NIM11DKFtDSDNdKT1DMUMoW0NIM10pKFtDSDNdKUMoPUMyQzEzW09IXSlbQ0gyXVtDQEhdNFtDQEhdKEM0KFtDSDNdKVtDSDNdKVtDQEhdKFtPSF0pQzIzW0NIM10=

>  <s_epik_cmdline>  (354) 
J2VwaWtfcHl0aG9uJywgJy1waHQnLCAnMi4wJywgJy1waCcsICc3LjAnLCAnLXRuJywgJzgnLCAnLW1hJywgJzIwMCcsICctaW1hZScsICc8aW5maWxlLm1hZT4nLCAnLW9tYWUnLCAnPG91dGZpbGUubWFlPic=

>  <r_lp_tautomer_probability>  (354) 
1

>  <r_epik_Ionization_Penalty>  (354) 
1.53554e-07

>  <r_epik_Ionization_Penalty_Charging>  (354) 
0

>  <r_epik_Ionization_Penalty_Neutral>  (354) 
1.53554e-07

>  <r_epik_State_Penalty>  (354) 
-0

>  <r_epik_Charging_Adjusted_Penalty>  (354) 
0

>  <i_epik_Tot_Q>  (354) 
0

>  <i_epik_Tot_abs_Q>  (354) 
0

>  <s_lp_Force_Field>  (354) 
OPLS3e

>  <r_lp_Energy>  (354) 
61.6797

>  <b_lp_Chiralities_Consistent>  (354) 
1

>  <s_lp_Variant>  (354) 
101:0-3

>  <s_i_glide_gridfile>  (354) 
pfpi4k_grid

>  <i_i_glide_lignum>  (354) 
13

>  <i_i_glide_rotatable_bonds>  (354) 
2

>  <r_i_docking_score>  (354) 
-3.59924

>  <r_i_glide_ligand_efficiency>  (354) 
-0.171392

>  <r_i_glide_ligand_efficiency_sa>  (354) 
-0.472858

>  <r_i_glide_ligand_efficiency_ln>  (354) 
-0.889904

>  <r_i_glide_gscore>  (354) 
-3.59924

>  <r_i_glide_lipo>  (354) 
-0.335246

>  <r_i_glide_hbond>  (354) 
-0.16

>  <r_i_glide_metal>  (354) 
-0

>  <r_i_glide_rewards>  (354) 
-1.44256

>  <r_i_glide_evdw>  (354) 
-16.9099

>  <r_i_glide_ecoul>  (354) 
-5.43959

>  <r_i_glide_erotb>  (354) 
0

>  <r_i_glide_esite>  (354) 
0

>  <r_i_glide_emodel>  (354) 
-25.9776

>  <r_i_glide_energy>  (354) 
-22.3495

>  <r_i_glide_einternal>  (354) 
0.861375

>  <r_i_glide_intrahb_reward>  (354) 
-0

>  <i_i_glide_confnum>  (354) 
2

>  <i_i_glide_posenum>  (354) 
36

>  <r_i_glide_eff_state_penalty>  (354) 
0

>  <ligand_id>  (354) 
101

>  <original_smiles>  (354) 
CC(C)=C1C(C)(C)C2=C3C1(O)C3(C)C(O)C1C(C2)C1(C)C

>  <smiles>  (354) 
[H]OC12C(=C(C([H])([H])[H])C([H])([H])[H])C(C([H])([H])[H])(C([H])([H])[H])C3=C1C2(C([H])([H])[H])C([H])(O[H])C1([H])C([H])(C3([H])[H])C1(C([H])([H])[H])C([H])([H])[H]

$$$$
101:3:0
     RDKit          3D

 49 52  0  0  1  0  0  0  0  0999 V2000
    4.9243   -4.1972    4.4779 C   0  0  0  0  0  0  0  0  0  0  0  0
    5.5328   -4.2902    3.0894 C   0  0  0  0  0  0  0  0  0  0  0  0
    6.2307   -5.6214    2.8574 C   0  0  0  0  0  0  0  0  0  0  0  0
    5.4785   -3.3330    2.1300 C   0  0  0  0  0  0  0  0  0  0  0  0
    4.6466   -1.9677    2.1637 C   0  0  0  0  0  0  0  0  0  0  0  0
    3.1746   -2.1081    2.6362 C   0  0  0  0  0  0  0  0  0  0  0  0
    5.3724   -0.9189    3.0249 C   0  0  0  0  0  0  0  0  0  0  0  0
    4.7052   -1.4384    0.7101 C   0  0  0  0  0  0  0  0  0  0  0  0
    5.3065   -2.5458    0.2137 C   0  0  0  0  0  0  0  0  0  0  0  0
    6.0600   -3.6031    0.7371 C   0  0  1  0  0  0  0  0  0  0  0  0
    7.4325   -3.4409    0.5810 O   0  0  0  0  0  0  0  0  0  0  0  0
    5.2356   -3.8345   -0.5342 C   0  0  1  0  0  0  0  0  0  0  0  0
    3.9557   -4.5768   -0.1884 C   0  0  0  0  0  0  0  0  0  0  0  0
    5.3800   -3.3398   -1.9849 C   0  0  1  0  0  0  0  0  0  0  0  0
    5.0112   -4.2574   -2.9596 O   0  0  0  0  0  0  0  0  0  0  0  0
    4.7699   -2.0112   -2.4704 C   0  0  2  0  0  0  0  0  0  0  0  0
    3.9859   -0.9716   -1.6809 C   0  0  2  0  0  0  0  0  0  0  0  0
    3.5492   -1.0867   -0.2132 C   0  0  0  0  0  0  0  0  0  0  0  0
    3.3417   -1.7422   -2.8788 C   0  0  0  0  0  0  0  0  0  0  0  0
    3.1232   -0.9425   -4.1680 C   0  0  0  0  0  0  0  0  0  0  0  0
    2.2605   -2.7801   -2.6907 C   0  0  0  0  0  0  0  0  0  0  0  0
    5.6193   -4.6298    5.1969 H   0  0  0  0  0  0  0  0  0  0  0  0
    4.0025   -4.7793    4.5219 H   0  0  0  0  0  0  0  0  0  0  0  0
    4.7232   -3.1795    4.8004 H   0  0  0  0  0  0  0  0  0  0  0  0
    5.6207   -6.4458    3.2204 H   0  0  0  0  0  0  0  0  0  0  0  0
    7.1734   -5.6366    3.4000 H   0  0  0  0  0  0  0  0  0  0  0  0
    6.4543   -5.8404    1.8141 H   0  0  0  0  0  0  0  0  0  0  0  0
    2.6632   -2.9231    2.1407 H   0  0  0  0  0  0  0  0  0  0  0  0
    2.5838   -1.2032    2.4678 H   0  0  0  0  0  0  0  0  0  0  0  0
    3.1127   -2.3051    3.6977 H   0  0  0  0  0  0  0  0  0  0  0  0
    6.4096   -0.7870    2.6857 H   0  0  0  0  0  0  0  0  0  0  0  0
    5.4026   -1.2191    4.0751 H   0  0  0  0  0  0  0  0  0  0  0  0
    4.8812    0.0659    2.9761 H   0  0  0  0  0  0  0  0  0  0  0  0
    7.7806   -3.1424    1.3992 H   0  0  0  0  0  0  0  0  0  0  0  0
    4.1619   -5.3156    0.6137 H   0  0  0  0  0  0  0  0  0  0  0  0
    3.5683   -5.0992   -1.0537 H   0  0  0  0  0  0  0  0  0  0  0  0
    3.1852   -3.8885    0.2173 H   0  0  0  0  0  0  0  0  0  0  0  0
    6.4648   -3.2302   -2.1257 H   0  0  0  0  0  0  0  0  0  0  0  0
    4.2083   -4.6721   -2.6930 H   0  0  0  0  0  0  0  0  0  0  0  0
    5.4015   -1.6264   -3.2559 H   0  0  0  0  0  0  0  0  0  0  0  0
    4.2545    0.0484   -1.9418 H   0  0  0  0  0  0  0  0  0  0  0  0
    2.7792   -1.8500   -0.1227 H   0  0  0  0  0  0  0  0  0  0  0  0
    3.0631   -0.1672    0.1043 H   0  0  0  0  0  0  0  0  0  0  0  0
    2.2197   -0.3528   -4.1516 H   0  0  0  0  0  0  0  0  0  0  0  0
    3.0710   -1.6056   -5.0215 H   0  0  0  0  0  0  0  0  0  0  0  0
    3.8925   -0.1950   -4.3281 H   0  0  0  0  0  0  0  0  0  0  0  0
    1.3086   -2.2991   -2.6051 H   0  0  0  0  0  0  0  0  0  0  0  0
    2.3816   -3.3398   -1.7702 H   0  0  0  0  0  0  0  0  0  0  0  0
    2.2109   -3.4761   -3.5260 H   0  0  0  0  0  0  0  0  0  0  0  0
  1  2  1  0
  1 22  1  0
  1 23  1  0
  1 24  1  0
  2  3  1  0
  2  4  2  3
  3 25  1  0
  3 26  1  0
  3 27  1  0
  4 10  1  0
  4  5  1  0
  5  6  1  0
  5  7  1  0
  5  8  1  0
  6 28  1  0
  6 29  1  0
  6 30  1  0
  7 31  1  0
  7 32  1  0
  7 33  1  0
  8 18  1  0
  8  9  2  0
  9 12  1  0
  9 10  1  0
 10 11  1  1
 10 12  1  0
 11 34  1  0
 12 13  1  6
 12 14  1  0
 13 35  1  0
 13 36  1  0
 13 37  1  0
 14 15  1  0
 14 16  1  0
 14 38  1  6
 15 39  1  0
 16 19  1  0
 16 17  1  0
 16 40  1  6
 17 18  1  0
 17 19  1  0
 17 41  1  6
 18 42  1  0
 18 43  1  0
 19 20  1  0
 19 21  1  0
 20 44  1  0
 20 45  1  0
 20 46  1  0
 21 47  1  0
 21 48  1  0
 21 49  1  0
M  END
>  <i_m_ct_stereo_status>  (355) 
1

>  <s_m_source_file>  (355) 
/var/tmp/pbs.5076255.sched01/tmpm28zzdm2/1449lyhn0we.sdf

>  <i_m_source_file_index>  (355) 
14

>  <i_lp_mmshare_version>  (355) 
48012

>  <i_f3d_flags>  (355) 
0

>  <s_epik_input>  (355) 
W0NIM11DKFtDSDNdKT1DMUMoW0NIM10pKFtDSDNdKUMoPUMyQzEzW09IXSlbQ0gyXVtDQEhdNFtDQEhdKEM0KFtDSDNdKVtDSDNdKVtDQEhdKFtPSF0pQzIzW0NIM10=

>  <s_epik_cmdline>  (355) 
J2VwaWtfcHl0aG9uJywgJy1waHQnLCAnMi4wJywgJy1waCcsICc3LjAnLCAnLXRuJywgJzgnLCAnLW1hJywgJzIwMCcsICctaW1hZScsICc8aW5maWxlLm1hZT4nLCAnLW9tYWUnLCAnPG91dGZpbGUubWFlPic=

>  <r_lp_tautomer_probability>  (355) 
1

>  <r_epik_Ionization_Penalty>  (355) 
1.53554e-07

>  <r_epik_Ionization_Penalty_Charging>  (355) 
0

>  <r_epik_Ionization_Penalty_Neutral>  (355) 
1.53554e-07

>  <r_epik_State_Penalty>  (355) 
-0

>  <r_epik_Charging_Adjusted_Penalty>  (355) 
0

>  <i_epik_Tot_Q>  (355) 
0

>  <i_epik_Tot_abs_Q>  (355) 
0

>  <s_lp_Force_Field>  (355) 
OPLS3e

>  <r_lp_Energy>  (355) 
94.1627

>  <b_lp_Chiralities_Consistent>  (355) 
1

>  <s_lp_Variant>  (355) 
101:0-4

>  <s_i_glide_gridfile>  (355) 
pfpi4k_grid

>  <i_i_glide_lignum>  (355) 
14

>  <i_i_glide_rotatable_bonds>  (355) 
2

>  <r_i_docking_score>  (355) 
-3.85612

>  <r_i_glide_ligand_efficiency>  (355) 
-0.183625

>  <r_i_glide_ligand_efficiency_sa>  (355) 
-0.506607

>  <r_i_glide_ligand_efficiency_ln>  (355) 
-0.953419

>  <r_i_glide_gscore>  (355) 
-3.85612

>  <r_i_glide_lipo>  (355) 
-0.731196

>  <r_i_glide_hbond>  (355) 
-0.32

>  <r_i_glide_metal>  (355) 
-0

>  <r_i_glide_rewards>  (355) 
-1.44256

>  <r_i_glide_evdw>  (355) 
-15.4727

>  <r_i_glide_ecoul>  (355) 
-3.92486

>  <r_i_glide_erotb>  (355) 
0

>  <r_i_glide_esite>  (355) 
0

>  <r_i_glide_emodel>  (355) 
-18.6252

>  <r_i_glide_energy>  (355) 
-19.3976

>  <r_i_glide_einternal>  (355) 
0.611549

>  <r_i_glide_intrahb_reward>  (355) 
-0

>  <i_i_glide_confnum>  (355) 
2

>  <i_i_glide_posenum>  (355) 
28

>  <r_i_glide_eff_state_penalty>  (355) 
0

>  <ligand_id>  (355) 
101

>  <original_smiles>  (355) 
CC(C)=C1C(C)(C)C2=C3C1(O)C3(C)C(O)C1C(C2)C1(C)C

>  <smiles>  (355) 
[H]OC12C(=C(C([H])([H])[H])C([H])([H])[H])C(C([H])([H])[H])(C([H])([H])[H])C3=C1C2(C([H])([H])[H])C([H])(O[H])C1([H])C([H])(C3([H])[H])C1(C([H])([H])[H])C([H])([H])[H]

$$$$
101:3:1
     RDKit          3D

 49 52  0  0  1  0  0  0  0  0999 V2000
    5.4008   -4.5536    3.7774 C   0  0  0  0  0  0  0  0  0  0  0  0
    5.9974   -4.3599    2.4055 C   0  0  0  0  0  0  0  0  0  0  0  0
    6.9425   -5.4980    2.0150 C   0  0  0  0  0  0  0  0  0  0  0  0
    5.7404   -3.3276    1.5691 C   0  0  0  0  0  0  0  0  0  0  0  0
    4.6961   -2.1276    1.7485 C   0  0  0  0  0  0  0  0  0  0  0  0
    3.2871   -2.6026    2.1651 C   0  0  0  0  0  0  0  0  0  0  0  0
    5.2294   -1.0891    2.7470 C   0  0  0  0  0  0  0  0  0  0  0  0
    4.6668   -1.4298    0.3618 C   0  0  0  0  0  0  0  0  0  0  0  0
    5.4858   -2.3194   -0.2471 C   0  0  0  0  0  0  0  0  0  0  0  0
    6.3517   -3.3229    0.1904 C   0  0  1  0  0  0  0  0  0  0  0  0
    7.7141   -3.0310    0.1013 O   0  0  0  0  0  0  0  0  0  0  0  0
    5.6057   -3.5213   -1.1176 C   0  0  1  0  0  0  0  0  0  0  0  0
    4.5207   -4.5304   -0.8727 C   0  0  0  0  0  0  0  0  0  0  0  0
    5.6507   -2.8798   -2.5161 C   0  0  1  0  0  0  0  0  0  0  0  0
    5.4018   -3.7913   -3.5370 O   0  0  0  0  0  0  0  0  0  0  0  0
    4.7729   -1.6465   -2.8669 C   0  0  2  0  0  0  0  0  0  0  0  0
    3.8442   -0.8674   -1.9793 C   0  0  2  0  0  0  0  0  0  0  0  0
    3.4299   -1.1906   -0.5184 C   0  0  0  0  0  0  0  0  0  0  0  0
    3.3201   -1.5584   -3.2341 C   0  0  0  0  0  0  0  0  0  0  0  0
    2.9724   -0.6402   -4.4176 C   0  0  0  0  0  0  0  0  0  0  0  0
    2.4410   -2.7896   -3.2032 C   0  0  0  0  0  0  0  0  0  0  0  0
    6.1684   -4.9350    4.4481 H   0  0  0  0  0  0  0  0  0  0  0  0
    4.6025   -5.2949    3.7283 H   0  0  0  0  0  0  0  0  0  0  0  0
    5.0154   -3.6366    4.2144 H   0  0  0  0  0  0  0  0  0  0  0  0
    6.4956   -6.4592    2.2648 H   0  0  0  0  0  0  0  0  0  0  0  0
    7.8766   -5.4087    2.5686 H   0  0  0  0  0  0  0  0  0  0  0  0
    7.1943   -5.5507    0.9571 H   0  0  0  0  0  0  0  0  0  0  0  0
    2.9325   -3.4338    1.5606 H   0  0  0  0  0  0  0  0  0  0  0  0
    2.5339   -1.8100    2.0993 H   0  0  0  0  0  0  0  0  0  0  0  0
    3.2665   -2.9424    3.1899 H   0  0  0  0  0  0  0  0  0  0  0  0
    6.2187   -0.7302    2.4449 H   0  0  0  0  0  0  0  0  0  0  0  0
    5.3137   -1.5067    3.7476 H   0  0  0  0  0  0  0  0  0  0  0  0
    4.5616   -0.2168    2.8042 H   0  0  0  0  0  0  0  0  0  0  0  0
    8.1648   -3.7996    0.4180 H   0  0  0  0  0  0  0  0  0  0  0  0
    4.8651   -5.2960   -0.1675 H   0  0  0  0  0  0  0  0  0  0  0  0
    4.3031   -5.0152   -1.8079 H   0  0  0  0  0  0  0  0  0  0  0  0
    3.6295   -4.0495   -0.4731 H   0  0  0  0  0  0  0  0  0  0  0  0
    6.6908   -2.5527   -2.6476 H   0  0  0  0  0  0  0  0  0  0  0  0
    5.1137   -4.6254   -3.1177 H   0  0  0  0  0  0  0  0  0  0  0  0
    5.3102   -1.0081   -3.5245 H   0  0  0  0  0  0  0  0  0  0  0  0
    4.0352    0.1832   -2.1419 H   0  0  0  0  0  0  0  0  0  0  0  0
    2.8536   -2.0874   -0.5254 H   0  0  0  0  0  0  0  0  0  0  0  0
    2.8266   -0.3955   -0.1105 H   0  0  0  0  0  0  0  0  0  0  0  0
    1.9331   -0.3294   -4.4206 H   0  0  0  0  0  0  0  0  0  0  0  0
    3.1813   -1.1259   -5.3603 H   0  0  0  0  0  0  0  0  0  0  0  0
    3.5559    0.2791   -4.4281 H   0  0  0  0  0  0  0  0  0  0  0  0
    1.4126   -2.4896   -3.0710 H   0  0  0  0  0  0  0  0  0  0  0  0
    2.7012   -3.4261   -2.3619 H   0  0  0  0  0  0  0  0  0  0  0  0
    2.5359   -3.3619   -4.1265 H   0  0  0  0  0  0  0  0  0  0  0  0
  1  2  1  0
  1 22  1  0
  1 23  1  0
  1 24  1  0
  2  3  1  0
  2  4  2  3
  3 25  1  0
  3 26  1  0
  3 27  1  0
  4 10  1  0
  4  5  1  0
  5  6  1  0
  5  7  1  0
  5  8  1  0
  6 28  1  0
  6 29  1  0
  6 30  1  0
  7 31  1  0
  7 32  1  0
  7 33  1  0
  8 18  1  0
  8  9  2  0
  9 12  1  0
  9 10  1  0
 10 11  1  1
 10 12  1  0
 11 34  1  0
 12 13  1  6
 12 14  1  0
 13 35  1  0
 13 36  1  0
 13 37  1  0
 14 15  1  0
 14 16  1  0
 14 38  1  6
 15 39  1  0
 16 19  1  0
 16 17  1  0
 16 40  1  6
 17 18  1  0
 17 19  1  0
 17 41  1  6
 18 42  1  0
 18 43  1  0
 19 20  1  0
 19 21  1  0
 20 44  1  0
 20 45  1  0
 20 46  1  0
 21 47  1  0
 21 48  1  0
 21 49  1  0
M  END
>  <i_m_ct_stereo_status>  (356) 
1

>  <s_m_source_file>  (356) 
/var/tmp/pbs.5076255.sched01/tmpm28zzdm2/1449lyhn0we.sdf

>  <i_m_source_file_index>  (356) 
14

>  <i_lp_mmshare_version>  (356) 
48012

>  <i_f3d_flags>  (356) 
0

>  <s_epik_input>  (356) 
W0NIM11DKFtDSDNdKT1DMUMoW0NIM10pKFtDSDNdKUMoPUMyQzEzW09IXSlbQ0gyXVtDQEhdNFtDQEhdKEM0KFtDSDNdKVtDSDNdKVtDQEhdKFtPSF0pQzIzW0NIM10=

>  <s_epik_cmdline>  (356) 
J2VwaWtfcHl0aG9uJywgJy1waHQnLCAnMi4wJywgJy1waCcsICc3LjAnLCAnLXRuJywgJzgnLCAnLW1hJywgJzIwMCcsICctaW1hZScsICc8aW5maWxlLm1hZT4nLCAnLW9tYWUnLCAnPG91dGZpbGUubWFlPic=

>  <r_lp_tautomer_probability>  (356) 
1

>  <r_epik_Ionization_Penalty>  (356) 
1.53554e-07

>  <r_epik_Ionization_Penalty_Charging>  (356) 
0

>  <r_epik_Ionization_Penalty_Neutral>  (356) 
1.53554e-07

>  <r_epik_State_Penalty>  (356) 
-0

>  <r_epik_Charging_Adjusted_Penalty>  (356) 
0

>  <i_epik_Tot_Q>  (356) 
0

>  <i_epik_Tot_abs_Q>  (356) 
0

>  <s_lp_Force_Field>  (356) 
OPLS3e

>  <r_lp_Energy>  (356) 
94.1627

>  <b_lp_Chiralities_Consistent>  (356) 
1

>  <s_lp_Variant>  (356) 
101:0-4

>  <s_i_glide_gridfile>  (356) 
pfpi4k_grid

>  <i_i_glide_lignum>  (356) 
14

>  <i_i_glide_rotatable_bonds>  (356) 
2

>  <r_i_docking_score>  (356) 
-3.32032

>  <r_i_glide_ligand_efficiency>  (356) 
-0.15811

>  <r_i_glide_ligand_efficiency_sa>  (356) 
-0.436215

>  <r_i_glide_ligand_efficiency_ln>  (356) 
-0.820942

>  <r_i_glide_gscore>  (356) 
-3.32032

>  <r_i_glide_lipo>  (356) 
-1.01602

>  <r_i_glide_hbond>  (356) 
0

>  <r_i_glide_metal>  (356) 
-0

>  <r_i_glide_rewards>  (356) 
-1.44256

>  <r_i_glide_evdw>  (356) 
-9.04327

>  <r_i_glide_ecoul>  (356) 
-2.87536

>  <r_i_glide_erotb>  (356) 
0

>  <r_i_glide_esite>  (356) 
0

>  <r_i_glide_emodel>  (356) 
-8.62383

>  <r_i_glide_energy>  (356) 
-11.9186

>  <r_i_glide_einternal>  (356) 
1.39176

>  <r_i_glide_intrahb_reward>  (356) 
-0

>  <i_i_glide_confnum>  (356) 
1

>  <i_i_glide_posenum>  (356) 
14

>  <r_i_glide_eff_state_penalty>  (356) 
0

>  <ligand_id>  (356) 
101

>  <original_smiles>  (356) 
CC(C)=C1C(C)(C)C2=C3C1(O)C3(C)C(O)C1C(C2)C1(C)C

>  <smiles>  (356) 
[H]OC12C(=C(C([H])([H])[H])C([H])([H])[H])C(C([H])([H])[H])(C([H])([H])[H])C3=C1C2(C([H])([H])[H])C([H])(O[H])C1([H])C([H])(C3([H])[H])C1(C([H])([H])[H])C([H])([H])[H]

$$$$
102:0:0
     RDKit          3D

 27 29  0  0  1  0  0  0  0  0999 V2000
  -10.0808   -4.8562   -7.6372 O   0  0  0  0  0  0  0  0  0  0  0  0
   -9.3666   -5.8556   -7.5450 C   0  0  0  0  0  0  0  0  0  0  0  0
   -9.5232   -7.1768   -8.1924 C   0  0  0  0  0  0  0  0  0  0  0  0
  -10.5338   -7.5592   -8.9955 C   0  0  0  0  0  0  0  0  0  0  0  0
  -10.6788   -8.8173   -9.6668 C   0  0  0  0  0  0  0  0  0  0  0  0
  -11.7553   -9.4529  -10.2165 C   0  0  0  0  0  0  0  0  0  0  0  0
  -11.3173  -10.7289  -10.6965 C   0  0  0  0  0  0  0  0  0  0  0  0
   -9.9876  -10.8544  -10.4205 C   0  0  0  0  0  0  0  0  0  0  0  0
   -9.6150   -9.6913   -9.7822 N   0  0  0  0  0  0  0  0  0  0  0  0
   -8.4900   -8.0080   -7.8383 O   0  0  0  0  0  0  0  0  0  0  0  0
   -7.6802   -7.3061   -6.9834 C   0  0  0  0  0  0  0  0  0  0  0  0
   -6.5199   -7.7851   -6.3512 C   0  0  0  0  0  0  0  0  0  0  0  0
   -5.8190   -6.9072   -5.4935 C   0  0  0  0  0  0  0  0  0  0  0  0
   -4.6818   -7.3364   -4.8681 O   0  0  0  0  0  0  0  0  0  0  0  0
   -6.2864   -5.5843   -5.2680 C   0  0  0  0  0  0  0  0  0  0  0  0
   -7.4767   -5.1223   -5.8843 C   0  0  0  0  0  0  0  0  0  0  0  0
   -7.9564   -3.8692   -5.6208 O   0  0  0  0  0  0  0  0  0  0  0  0
   -8.1419   -6.0085   -6.7555 C   0  0  0  0  0  0  0  0  0  0  0  0
   -8.6900   -9.4903   -9.4401 H   0  0  0  0  0  0  0  0  0  0  0  0
  -11.3053   -6.8372   -9.2136 H   0  0  0  0  0  0  0  0  0  0  0  0
  -12.7585   -9.0460  -10.2555 H   0  0  0  0  0  0  0  0  0  0  0  0
  -11.9161  -11.4895  -11.1800 H   0  0  0  0  0  0  0  0  0  0  0  0
   -9.2817  -11.6567  -10.6036 H   0  0  0  0  0  0  0  0  0  0  0  0
   -6.1837   -8.7944   -6.5307 H   0  0  0  0  0  0  0  0  0  0  0  0
   -4.5723   -8.2778   -4.8860 H   0  0  0  0  0  0  0  0  0  0  0  0
   -5.7347   -4.9240   -4.6147 H   0  0  0  0  0  0  0  0  0  0  0  0
   -8.7783   -3.6783   -6.0490 H   0  0  0  0  0  0  0  0  0  0  0  0
  1  2  2  0
  2 18  1  0
  2  3  1  0
  3  4  2  3
  3 10  1  0
  4  5  1  0
  4 20  1  0
  5  9  1  0
  5  6  2  0
  6  7  1  0
  6 21  1  0
  7  8  2  0
  7 22  1  0
  8  9  1  0
  8 23  1  0
  9 19  1  0
 10 11  1  0
 11 18  2  0
 11 12  1  0
 12 13  2  0
 12 24  1  0
 13 14  1  0
 13 15  1  0
 14 25  1  0
 15 16  2  0
 15 26  1  0
 16 17  1  0
 16 18  1  0
 17 27  1  0
M  END
>  <i_m_ct_stereo_status>  (357) 
1

>  <s_m_source_file>  (357) 
/var/tmp/pbs.5076255.sched01/tmpm28zzdm2/1449lyhn0we.sdf

>  <i_m_source_file_index>  (357) 
15

>  <i_lp_mmshare_version>  (357) 
48012

>  <i_f3d_flags>  (357) 
0

>  <s_epik_input>  (357) 
W2NIXTFjKFtPSF0pW2NIXWMoW09IXSljKGMxMilDKD1PKS9DKE8yKT1bQ0hdL2MzW2NIXVtjSF1bY0hdW25IXTM=

>  <s_epik_cmdline>  (357) 
J2VwaWtfcHl0aG9uJywgJy1waHQnLCAnMi4wJywgJy1waCcsICc3LjAnLCAnLXRuJywgJzgnLCAnLW1hJywgJzIwMCcsICctaW1hZScsICc8aW5maWxlLm1hZT4nLCAnLW9tYWUnLCAnPG91dGZpbGUubWFlPic=

>  <r_epik_Ionization_Penalty>  (357) 
0.463116

>  <r_epik_Ionization_Penalty_Charging>  (357) 
0

>  <r_epik_Ionization_Penalty_Neutral>  (357) 
0.463116

>  <r_epik_State_Penalty>  (357) 
0.431806

>  <r_epik_Charging_Adjusted_Penalty>  (357) 
0.431806

>  <i_epik_Tot_Q>  (357) 
0

>  <i_epik_Tot_abs_Q>  (357) 
0

>  <s_lp_Force_Field>  (357) 
OPLS3e

>  <r_lp_Energy>  (357) 
5.01724

>  <b_lp_Chiralities_Consistent>  (357) 
1

>  <s_lp_Variant>  (357) 
102:0-1

>  <s_i_glide_gridfile>  (357) 
pfpi4k_grid

>  <i_i_glide_lignum>  (357) 
15

>  <i_i_glide_rotatable_bonds>  (357) 
3

>  <r_i_docking_score>  (357) 
-5.91733

>  <r_i_glide_ligand_efficiency>  (357) 
-0.328741

>  <r_i_glide_ligand_efficiency_sa>  (357) 
-0.861544

>  <r_i_glide_ligand_efficiency_ln>  (357) 
-1.52102

>  <r_i_glide_gscore>  (357) 
-5.91733

>  <r_i_glide_lipo>  (357) 
-1.56292

>  <r_i_glide_hbond>  (357) 
-0.108066

>  <r_i_glide_metal>  (357) 
-0

>  <r_i_glide_rewards>  (357) 
-2.75916

>  <r_i_glide_evdw>  (357) 
-22.452

>  <r_i_glide_ecoul>  (357) 
-2.43057

>  <r_i_glide_erotb>  (357) 
0

>  <r_i_glide_esite>  (357) 
0

>  <r_i_glide_emodel>  (357) 
-42.3778

>  <r_i_glide_energy>  (357) 
-24.8825

>  <r_i_glide_einternal>  (357) 
1.67211

>  <r_i_glide_intrahb_reward>  (357) 
-0.5

>  <i_i_glide_confnum>  (357) 
2

>  <i_i_glide_posenum>  (357) 
35

>  <r_i_glide_eff_state_penalty>  (357) 
0

>  <ligand_id>  (357) 
102

>  <original_smiles>  (357) 
O=C1C(=Cc2ccc[nH]2)Oc2cc(O)cc(O)c21

>  <smiles>  (357) 
[H]Oc1c([H])c(O[H])c2c(c1[H])OC(=C([H])c1c([H])c([H])c([H])n1[H])C2=O

$$$$
102:0:1
     RDKit          3D

 27 29  0  0  1  0  0  0  0  0999 V2000
    1.8692   -3.9394    4.7712 O   0  0  0  0  0  0  0  0  0  0  0  0
    1.8311   -4.6823    3.7906 C   0  0  0  0  0  0  0  0  0  0  0  0
    2.6332   -4.6260    2.5535 C   0  0  0  0  0  0  0  0  0  0  0  0
    3.6055   -3.7367    2.2675 C   0  0  0  0  0  0  0  0  0  0  0  0
    4.3917   -3.6577    1.0718 C   0  0  0  0  0  0  0  0  0  0  0  0
    5.4411   -2.8637    0.6906 C   0  0  0  0  0  0  0  0  0  0  0  0
    5.8332   -3.2548   -0.6272 C   0  0  0  0  0  0  0  0  0  0  0  0
    5.0195   -4.2746   -1.0287 C   0  0  0  0  0  0  0  0  0  0  0  0
    4.1593   -4.5145    0.0144 N   0  0  0  0  0  0  0  0  0  0  0  0
    2.2544   -5.6291    1.6981 O   0  0  0  0  0  0  0  0  0  0  0  0
    1.2617   -6.3372    2.3147 C   0  0  0  0  0  0  0  0  0  0  0  0
    0.5867   -7.4491    1.7904 C   0  0  0  0  0  0  0  0  0  0  0  0
   -0.4260   -8.0446    2.5729 C   0  0  0  0  0  0  0  0  0  0  0  0
   -1.0868   -9.1374    2.0802 O   0  0  0  0  0  0  0  0  0  0  0  0
   -0.7558   -7.5250    3.8495 C   0  0  0  0  0  0  0  0  0  0  0  0
   -0.0633   -6.4047    4.3729 C   0  0  0  0  0  0  0  0  0  0  0  0
   -0.3801   -5.9009    5.6055 O   0  0  0  0  0  0  0  0  0  0  0  0
    0.9488   -5.8305    3.5742 C   0  0  0  0  0  0  0  0  0  0  0  0
    3.4432   -5.2267    0.0068 H   0  0  0  0  0  0  0  0  0  0  0  0
    3.8279   -2.9804    3.0052 H   0  0  0  0  0  0  0  0  0  0  0  0
    5.8805   -2.0853    1.2996 H   0  0  0  0  0  0  0  0  0  0  0  0
    6.6287   -2.8435   -1.2276 H   0  0  0  0  0  0  0  0  0  0  0  0
    4.9772   -4.8610   -1.9361 H   0  0  0  0  0  0  0  0  0  0  0  0
    0.8497   -7.8375    0.8185 H   0  0  0  0  0  0  0  0  0  0  0  0
   -0.7392   -9.4507    1.2475 H   0  0  0  0  0  0  0  0  0  0  0  0
   -1.5324   -8.0033    4.4358 H   0  0  0  0  0  0  0  0  0  0  0  0
    0.2211   -5.2318    5.9019 H   0  0  0  0  0  0  0  0  0  0  0  0
  1  2  2  0
  2 18  1  0
  2  3  1  0
  3  4  2  3
  3 10  1  0
  4  5  1  0
  4 20  1  0
  5  9  1  0
  5  6  2  0
  6  7  1  0
  6 21  1  0
  7  8  2  0
  7 22  1  0
  8  9  1  0
  8 23  1  0
  9 19  1  0
 10 11  1  0
 11 18  2  0
 11 12  1  0
 12 13  2  0
 12 24  1  0
 13 14  1  0
 13 15  1  0
 14 25  1  0
 15 16  2  0
 15 26  1  0
 16 17  1  0
 16 18  1  0
 17 27  1  0
M  END
>  <i_m_ct_stereo_status>  (358) 
1

>  <s_m_source_file>  (358) 
/var/tmp/pbs.5076255.sched01/tmpm28zzdm2/1449lyhn0we.sdf

>  <i_m_source_file_index>  (358) 
15

>  <i_lp_mmshare_version>  (358) 
48012

>  <i_f3d_flags>  (358) 
0

>  <s_epik_input>  (358) 
W2NIXTFjKFtPSF0pW2NIXWMoW09IXSljKGMxMilDKD1PKS9DKE8yKT1bQ0hdL2MzW2NIXVtjSF1bY0hdW25IXTM=

>  <s_epik_cmdline>  (358) 
J2VwaWtfcHl0aG9uJywgJy1waHQnLCAnMi4wJywgJy1waCcsICc3LjAnLCAnLXRuJywgJzgnLCAnLW1hJywgJzIwMCcsICctaW1hZScsICc8aW5maWxlLm1hZT4nLCAnLW9tYWUnLCAnPG91dGZpbGUubWFlPic=

>  <r_epik_Ionization_Penalty>  (358) 
0.463116

>  <r_epik_Ionization_Penalty_Charging>  (358) 
0

>  <r_epik_Ionization_Penalty_Neutral>  (358) 
0.463116

>  <r_epik_State_Penalty>  (358) 
0.431806

>  <r_epik_Charging_Adjusted_Penalty>  (358) 
0.431806

>  <i_epik_Tot_Q>  (358) 
0

>  <i_epik_Tot_abs_Q>  (358) 
0

>  <s_lp_Force_Field>  (358) 
OPLS3e

>  <r_lp_Energy>  (358) 
5.01724

>  <b_lp_Chiralities_Consistent>  (358) 
1

>  <s_lp_Variant>  (358) 
102:0-1

>  <s_i_glide_gridfile>  (358) 
pfpi4k_grid

>  <i_i_glide_lignum>  (358) 
15

>  <i_i_glide_rotatable_bonds>  (358) 
3

>  <r_i_docking_score>  (358) 
-5.08443

>  <r_i_glide_ligand_efficiency>  (358) 
-0.282469

>  <r_i_glide_ligand_efficiency_sa>  (358) 
-0.740277

>  <r_i_glide_ligand_efficiency_ln>  (358) 
-1.30693

>  <r_i_glide_gscore>  (358) 
-5.08443

>  <r_i_glide_lipo>  (358) 
-0.134533

>  <r_i_glide_hbond>  (358) 
-0.32

>  <r_i_glide_metal>  (358) 
-0

>  <r_i_glide_rewards>  (358) 
-2.75081

>  <r_i_glide_evdw>  (358) 
-18.7508

>  <r_i_glide_ecoul>  (358) 
-6.21324

>  <r_i_glide_erotb>  (358) 
0

>  <r_i_glide_esite>  (358) 
-0.00956987

>  <r_i_glide_emodel>  (358) 
-46.0429

>  <r_i_glide_energy>  (358) 
-24.964

>  <r_i_glide_einternal>  (358) 
0.713136

>  <r_i_glide_intrahb_reward>  (358) 
-1

>  <i_i_glide_confnum>  (358) 
2

>  <i_i_glide_posenum>  (358) 
29

>  <r_i_glide_eff_state_penalty>  (358) 
0

>  <ligand_id>  (358) 
102

>  <original_smiles>  (358) 
O=C1C(=Cc2ccc[nH]2)Oc2cc(O)cc(O)c21

>  <smiles>  (358) 
[H]Oc1c([H])c(O[H])c2c(c1[H])OC(=C([H])c1c([H])c([H])c([H])n1[H])C2=O

$$$$
102:0:2
     RDKit          3D

 27 29  0  0  1  0  0  0  0  0999 V2000
    0.8065   -1.7245    4.4249 O   0  0  0  0  0  0  0  0  0  0  0  0
    1.4355   -2.2427    3.5009 C   0  0  0  0  0  0  0  0  0  0  0  0
    1.4786   -3.6602    3.0989 C   0  0  0  0  0  0  0  0  0  0  0  0
    0.8147   -4.6802    3.6780 C   0  0  0  0  0  0  0  0  0  0  0  0
    0.8353   -6.0599    3.2911 C   0  0  0  0  0  0  0  0  0  0  0  0
    0.1459   -7.1635    3.7191 C   0  0  0  0  0  0  0  0  0  0  0  0
    0.5844   -8.2848    2.9464 C   0  0  0  0  0  0  0  0  0  0  0  0
    1.5236   -7.8496    2.0542 C   0  0  0  0  0  0  0  0  0  0  0  0
    1.6561   -6.4979    2.2690 N   0  0  0  0  0  0  0  0  0  0  0  0
    2.2919   -3.8198    2.0059 O   0  0  0  0  0  0  0  0  0  0  0  0
    2.7834   -2.5881    1.6798 C   0  0  0  0  0  0  0  0  0  0  0  0
    3.6641   -2.2979    0.6245 C   0  0  0  0  0  0  0  0  0  0  0  0
    4.0722   -0.9608    0.4456 C   0  0  0  0  0  0  0  0  0  0  0  0
    4.9270   -0.6551   -0.5748 O   0  0  0  0  0  0  0  0  0  0  0  0
    3.5974    0.0577    1.3118 C   0  0  0  0  0  0  0  0  0  0  0  0
    2.7098   -0.2441    2.3719 C   0  0  0  0  0  0  0  0  0  0  0  0
    2.2661    0.7444    3.2041 O   0  0  0  0  0  0  0  0  0  0  0  0
    2.3173   -1.5874    2.5314 C   0  0  0  0  0  0  0  0  0  0  0  0
    2.2965   -5.8962    1.7701 H   0  0  0  0  0  0  0  0  0  0  0  0
    0.1941   -4.4538    4.5296 H   0  0  0  0  0  0  0  0  0  0  0  0
   -0.5908   -7.1715    4.5106 H   0  0  0  0  0  0  0  0  0  0  0  0
    0.2568   -9.3100    3.0330 H   0  0  0  0  0  0  0  0  0  0  0  0
    2.1035   -8.3702    1.3042 H   0  0  0  0  0  0  0  0  0  0  0  0
    4.0106   -3.0824   -0.0351 H   0  0  0  0  0  0  0  0  0  0  0  0
    5.0159    0.2807   -0.7137 H   0  0  0  0  0  0  0  0  0  0  0  0
    3.9080    1.0803    1.1664 H   0  0  0  0  0  0  0  0  0  0  0  0
    1.6215    0.4532    3.8326 H   0  0  0  0  0  0  0  0  0  0  0  0
  1  2  2  0
  2 18  1  0
  2  3  1  0
  3  4  2  3
  3 10  1  0
  4  5  1  0
  4 20  1  0
  5  9  1  0
  5  6  2  0
  6  7  1  0
  6 21  1  0
  7  8  2  0
  7 22  1  0
  8  9  1  0
  8 23  1  0
  9 19  1  0
 10 11  1  0
 11 18  2  0
 11 12  1  0
 12 13  2  0
 12 24  1  0
 13 14  1  0
 13 15  1  0
 14 25  1  0
 15 16  2  0
 15 26  1  0
 16 17  1  0
 16 18  1  0
 17 27  1  0
M  END
>  <i_m_ct_stereo_status>  (359) 
1

>  <s_m_source_file>  (359) 
/var/tmp/pbs.5076255.sched01/tmpm28zzdm2/1449lyhn0we.sdf

>  <i_m_source_file_index>  (359) 
15

>  <i_lp_mmshare_version>  (359) 
48012

>  <i_f3d_flags>  (359) 
0

>  <s_epik_input>  (359) 
W2NIXTFjKFtPSF0pW2NIXWMoW09IXSljKGMxMilDKD1PKS9DKE8yKT1bQ0hdL2MzW2NIXVtjSF1bY0hdW25IXTM=

>  <s_epik_cmdline>  (359) 
J2VwaWtfcHl0aG9uJywgJy1waHQnLCAnMi4wJywgJy1waCcsICc3LjAnLCAnLXRuJywgJzgnLCAnLW1hJywgJzIwMCcsICctaW1hZScsICc8aW5maWxlLm1hZT4nLCAnLW9tYWUnLCAnPG91dGZpbGUubWFlPic=

>  <r_epik_Ionization_Penalty>  (359) 
0.463116

>  <r_epik_Ionization_Penalty_Charging>  (359) 
0

>  <r_epik_Ionization_Penalty_Neutral>  (359) 
0.463116

>  <r_epik_State_Penalty>  (359) 
0.431806

>  <r_epik_Charging_Adjusted_Penalty>  (359) 
0.431806

>  <i_epik_Tot_Q>  (359) 
0

>  <i_epik_Tot_abs_Q>  (359) 
0

>  <s_lp_Force_Field>  (359) 
OPLS3e

>  <r_lp_Energy>  (359) 
5.01724

>  <b_lp_Chiralities_Consistent>  (359) 
1

>  <s_lp_Variant>  (359) 
102:0-1

>  <s_i_glide_gridfile>  (359) 
pfpi4k_grid

>  <i_i_glide_lignum>  (359) 
15

>  <i_i_glide_rotatable_bonds>  (359) 
3

>  <r_i_docking_score>  (359) 
-4.74715

>  <r_i_glide_ligand_efficiency>  (359) 
-0.263731

>  <r_i_glide_ligand_efficiency_sa>  (359) 
-0.69117

>  <r_i_glide_ligand_efficiency_ln>  (359) 
-1.22023

>  <r_i_glide_gscore>  (359) 
-4.74715

>  <r_i_glide_lipo>  (359) 
-0.0317993

>  <r_i_glide_hbond>  (359) 
-0.32

>  <r_i_glide_metal>  (359) 
-0

>  <r_i_glide_rewards>  (359) 
-2.80189

>  <r_i_glide_evdw>  (359) 
-17.4284

>  <r_i_glide_ecoul>  (359) 
-4.61763

>  <r_i_glide_erotb>  (359) 
0

>  <r_i_glide_esite>  (359) 
-0.0293991

>  <r_i_glide_emodel>  (359) 
-42.283

>  <r_i_glide_energy>  (359) 
-22.046

>  <r_i_glide_einternal>  (359) 
0.830372

>  <r_i_glide_intrahb_reward>  (359) 
-1

>  <i_i_glide_confnum>  (359) 
1

>  <i_i_glide_posenum>  (359) 
6

>  <r_i_glide_eff_state_penalty>  (359) 
0

>  <ligand_id>  (359) 
102

>  <original_smiles>  (359) 
O=C1C(=Cc2ccc[nH]2)Oc2cc(O)cc(O)c21

>  <smiles>  (359) 
[H]Oc1c([H])c(O[H])c2c(c1[H])OC(=C([H])c1c([H])c([H])c([H])n1[H])C2=O

$$$$
102:1:0
     RDKit          3D

 27 29  0  0  1  0  0  0  0  0999 V2000
    3.4318   -6.6163    0.7484 O   0  0  0  0  0  0  0  0  0  0  0  0
    2.6043   -6.2188    1.5655 C   0  0  0  0  0  0  0  0  0  0  0  0
    2.2296   -4.8360    1.9589 C   0  0  0  0  0  0  0  0  0  0  0  0
    2.7120   -3.6517    1.5191 C   0  0  0  0  0  0  0  0  0  0  0  0
    3.6777   -3.2912    0.5190 C   0  0  0  0  0  0  0  0  0  0  0  0
    4.3333   -2.1237    0.2315 C   0  0  0  0  0  0  0  0  0  0  0  0
    5.2328   -2.3761   -0.8549 C   0  0  0  0  0  0  0  0  0  0  0  0
    5.1079   -3.6891   -1.2040 C   0  0  0  0  0  0  0  0  0  0  0  0
    4.1673   -4.2290   -0.3606 N   0  0  0  0  0  0  0  0  0  0  0  0
    1.2617   -4.8944    2.9284 O   0  0  0  0  0  0  0  0  0  0  0  0
    0.9827   -6.2153    3.1611 C   0  0  0  0  0  0  0  0  0  0  0  0
    0.0501   -6.7347    4.0656 C   0  0  0  0  0  0  0  0  0  0  0  0
   -0.0915   -8.1409    4.1434 C   0  0  0  0  0  0  0  0  0  0  0  0
   -1.0027   -8.6552    5.0104 O   0  0  0  0  0  0  0  0  0  0  0  0
    0.6959   -9.0031    3.3407 C   0  0  0  0  0  0  0  0  0  0  0  0
    1.6420   -8.4669    2.4429 C   0  0  0  0  0  0  0  0  0  0  0  0
    2.4243   -9.2888    1.6817 O   0  0  0  0  0  0  0  0  0  0  0  0
    1.7491   -7.0638    2.3729 C   0  0  0  0  0  0  0  0  0  0  0  0
    3.8792   -5.2013   -0.3623 H   0  0  0  0  0  0  0  0  0  0  0  0
    2.2646   -2.7875    1.9841 H   0  0  0  0  0  0  0  0  0  0  0  0
    4.1898   -1.1831    0.7540 H   0  0  0  0  0  0  0  0  0  0  0  0
    5.9093   -1.6807   -1.3337 H   0  0  0  0  0  0  0  0  0  0  0  0
    5.5864   -4.3037   -1.9535 H   0  0  0  0  0  0  0  0  0  0  0  0
   -0.5463   -6.0820    4.6864 H   0  0  0  0  0  0  0  0  0  0  0  0
   -1.2171   -9.5810    4.9250 H   0  0  0  0  0  0  0  0  0  0  0  0
    0.5931  -10.0773    3.4172 H   0  0  0  0  0  0  0  0  0  0  0  0
    3.0643   -8.8533    1.1397 H   0  0  0  0  0  0  0  0  0  0  0  0
  1  2  2  0
  2 18  1  0
  2  3  1  0
  3  4  2  3
  3 10  1  0
  4  5  1  0
  4 20  1  0
  5  9  1  0
  5  6  2  0
  6  7  1  0
  6 21  1  0
  7  8  2  0
  7 22  1  0
  8  9  1  0
  8 23  1  0
  9 19  1  0
 10 11  1  0
 11 18  2  0
 11 12  1  0
 12 13  2  0
 12 24  1  0
 13 14  1  0
 13 15  1  0
 14 25  1  0
 15 16  2  0
 15 26  1  0
 16 17  1  0
 16 18  1  0
 17 27  1  0
M  END
>  <i_m_ct_stereo_status>  (360) 
1

>  <s_m_source_file>  (360) 
/var/tmp/pbs.5076255.sched01/tmpm28zzdm2/1449lyhn0we.sdf

>  <i_m_source_file_index>  (360) 
16

>  <i_lp_mmshare_version>  (360) 
48012

>  <i_f3d_flags>  (360) 
0

>  <s_epik_input>  (360) 
W2NIXTFjKFtPSF0pW2NIXWMoW09IXSljKGMxMilDKD1PKS9DKE8yKT1bQ0hdL2MzW2NIXVtjSF1bY0hdW25IXTM=

>  <s_epik_cmdline>  (360) 
J2VwaWtfcHl0aG9uJywgJy1waHQnLCAnMi4wJywgJy1waCcsICc3LjAnLCAnLXRuJywgJzgnLCAnLW1hJywgJzIwMCcsICctaW1hZScsICc8aW5maWxlLm1hZT4nLCAnLW9tYWUnLCAnPG91dGZpbGUubWFlPic=

>  <r_epik_Ionization_Penalty>  (360) 
0.463116

>  <r_epik_Ionization_Penalty_Charging>  (360) 
0

>  <r_epik_Ionization_Penalty_Neutral>  (360) 
0.463116

>  <r_epik_State_Penalty>  (360) 
0.431806

>  <r_epik_Charging_Adjusted_Penalty>  (360) 
0.431806

>  <i_epik_Tot_Q>  (360) 
0

>  <i_epik_Tot_abs_Q>  (360) 
0

>  <s_lp_Force_Field>  (360) 
OPLS3e

>  <r_lp_Energy>  (360) 
8.5326

>  <b_lp_Chiralities_Consistent>  (360) 
1

>  <s_lp_Variant>  (360) 
102:0-2

>  <s_i_glide_gridfile>  (360) 
pfpi4k_grid

>  <i_i_glide_lignum>  (360) 
16

>  <i_i_glide_rotatable_bonds>  (360) 
3

>  <r_i_docking_score>  (360) 
-4.41647

>  <r_i_glide_ligand_efficiency>  (360) 
-0.24536

>  <r_i_glide_ligand_efficiency_sa>  (360) 
-0.643024

>  <r_i_glide_ligand_efficiency_ln>  (360) 
-1.13523

>  <r_i_glide_gscore>  (360) 
-4.41647

>  <r_i_glide_lipo>  (360) 
-0.0355646

>  <r_i_glide_hbond>  (360) 
-0.16

>  <r_i_glide_metal>  (360) 
-0

>  <r_i_glide_rewards>  (360) 
-2.75081

>  <r_i_glide_evdw>  (360) 
-18.8095

>  <r_i_glide_ecoul>  (360) 
-3.38446

>  <r_i_glide_erotb>  (360) 
0

>  <r_i_glide_esite>  (360) 
-0.0219541

>  <r_i_glide_emodel>  (360) 
-41.3946

>  <r_i_glide_energy>  (360) 
-22.194

>  <r_i_glide_einternal>  (360) 
1.17076

>  <r_i_glide_intrahb_reward>  (360) 
-1

>  <i_i_glide_confnum>  (360) 
2

>  <i_i_glide_posenum>  (360) 
23

>  <r_i_glide_eff_state_penalty>  (360) 
0

>  <ligand_id>  (360) 
102

>  <original_smiles>  (360) 
O=C1C(=Cc2ccc[nH]2)Oc2cc(O)cc(O)c21

>  <smiles>  (360) 
[H]Oc1c([H])c(O[H])c2c(c1[H])OC(=C([H])c1c([H])c([H])c([H])n1[H])C2=O

$$$$
102:1:1
     RDKit          3D

 27 29  0  0  1  0  0  0  0  0999 V2000
    2.2433    1.1165    4.7308 O   0  0  0  0  0  0  0  0  0  0  0  0
    2.3301    0.8333    3.5354 C   0  0  0  0  0  0  0  0  0  0  0  0
    1.3583    1.0174    2.4360 C   0  0  0  0  0  0  0  0  0  0  0  0
    0.1059    1.5354    2.4604 C   0  0  0  0  0  0  0  0  0  0  0  0
   -0.7049    2.0892    3.5020 C   0  0  0  0  0  0  0  0  0  0  0  0
   -1.9992    2.5485    3.5509 C   0  0  0  0  0  0  0  0  0  0  0  0
   -2.2733    2.9627    4.8961 C   0  0  0  0  0  0  0  0  0  0  0  0
   -1.1415    2.7451    5.6354 C   0  0  0  0  0  0  0  0  0  0  0  0
   -0.2114    2.2140    4.7757 N   0  0  0  0  0  0  0  0  0  0  0  0
    1.9064    0.5448    1.2752 O   0  0  0  0  0  0  0  0  0  0  0  0
    3.1610    0.0761    1.5512 C   0  0  0  0  0  0  0  0  0  0  0  0
    4.0815   -0.4777    0.6429 C   0  0  0  0  0  0  0  0  0  0  0  0
    5.3420   -0.8839    1.1384 C   0  0  0  0  0  0  0  0  0  0  0  0
    6.2733   -1.4103    0.2929 O   0  0  0  0  0  0  0  0  0  0  0  0
    5.6521   -0.7449    2.5132 C   0  0  0  0  0  0  0  0  0  0  0  0
    4.7177   -0.1880    3.4140 C   0  0  0  0  0  0  0  0  0  0  0  0
    5.0249   -0.0333    4.7369 O   0  0  0  0  0  0  0  0  0  0  0  0
    3.4772    0.2162    2.8938 C   0  0  0  0  0  0  0  0  0  0  0  0
    0.7347    1.9263    5.0224 H   0  0  0  0  0  0  0  0  0  0  0  0
   -0.3881    1.5467    1.4940 H   0  0  0  0  0  0  0  0  0  0  0  0
   -2.6802    2.5817    2.7107 H   0  0  0  0  0  0  0  0  0  0  0  0
   -3.1943    3.3613    5.2988 H   0  0  0  0  0  0  0  0  0  0  0  0
   -0.9021    2.9010    6.6777 H   0  0  0  0  0  0  0  0  0  0  0  0
    3.8334   -0.5825   -0.4065 H   0  0  0  0  0  0  0  0  0  0  0  0
    7.0329   -1.7352    0.7494 H   0  0  0  0  0  0  0  0  0  0  0  0
    6.6169   -1.0516    2.8770 H   0  0  0  0  0  0  0  0  0  0  0  0
    4.3340    0.3660    5.2486 H   0  0  0  0  0  0  0  0  0  0  0  0
  1  2  2  0
  2 18  1  0
  2  3  1  0
  3  4  2  3
  3 10  1  0
  4  5  1  0
  4 20  1  0
  5  9  1  0
  5  6  2  0
  6  7  1  0
  6 21  1  0
  7  8  2  0
  7 22  1  0
  8  9  1  0
  8 23  1  0
  9 19  1  0
 10 11  1  0
 11 18  2  0
 11 12  1  0
 12 13  2  0
 12 24  1  0
 13 14  1  0
 13 15  1  0
 14 25  1  0
 15 16  2  0
 15 26  1  0
 16 17  1  0
 16 18  1  0
 17 27  1  0
M  END
>  <i_m_ct_stereo_status>  (361) 
1

>  <s_m_source_file>  (361) 
/var/tmp/pbs.5076255.sched01/tmpm28zzdm2/1449lyhn0we.sdf

>  <i_m_source_file_index>  (361) 
16

>  <i_lp_mmshare_version>  (361) 
48012

>  <i_f3d_flags>  (361) 
0

>  <s_epik_input>  (361) 
W2NIXTFjKFtPSF0pW2NIXWMoW09IXSljKGMxMilDKD1PKS9DKE8yKT1bQ0hdL2MzW2NIXVtjSF1bY0hdW25IXTM=

>  <s_epik_cmdline>  (361) 
J2VwaWtfcHl0aG9uJywgJy1waHQnLCAnMi4wJywgJy1waCcsICc3LjAnLCAnLXRuJywgJzgnLCAnLW1hJywgJzIwMCcsICctaW1hZScsICc8aW5maWxlLm1hZT4nLCAnLW9tYWUnLCAnPG91dGZpbGUubWFlPic=

>  <r_epik_Ionization_Penalty>  (361) 
0.463116

>  <r_epik_Ionization_Penalty_Charging>  (361) 
0

>  <r_epik_Ionization_Penalty_Neutral>  (361) 
0.463116

>  <r_epik_State_Penalty>  (361) 
0.431806

>  <r_epik_Charging_Adjusted_Penalty>  (361) 
0.431806

>  <i_epik_Tot_Q>  (361) 
0

>  <i_epik_Tot_abs_Q>  (361) 
0

>  <s_lp_Force_Field>  (361) 
OPLS3e

>  <r_lp_Energy>  (361) 
8.5326

>  <b_lp_Chiralities_Consistent>  (361) 
1

>  <s_lp_Variant>  (361) 
102:0-2

>  <s_i_glide_gridfile>  (361) 
pfpi4k_grid

>  <i_i_glide_lignum>  (361) 
16

>  <i_i_glide_rotatable_bonds>  (361) 
3

>  <r_i_docking_score>  (361) 
-4.36204

>  <r_i_glide_ligand_efficiency>  (361) 
-0.242336

>  <r_i_glide_ligand_efficiency_sa>  (361) 
-0.635099

>  <r_i_glide_ligand_efficiency_ln>  (361) 
-1.12124

>  <r_i_glide_gscore>  (361) 
-4.36204

>  <r_i_glide_lipo>  (361) 
-0.425577

>  <r_i_glide_hbond>  (361) 
0

>  <r_i_glide_metal>  (361) 
-0

>  <r_i_glide_rewards>  (361) 
-2.75081

>  <r_i_glide_evdw>  (361) 
-20.0085

>  <r_i_glide_ecoul>  (361) 
-1.11772

>  <r_i_glide_erotb>  (361) 
0

>  <r_i_glide_esite>  (361) 
-0.0175689

>  <r_i_glide_emodel>  (361) 
-40.395

>  <r_i_glide_energy>  (361) 
-21.1263

>  <r_i_glide_einternal>  (361) 
0.808507

>  <r_i_glide_intrahb_reward>  (361) 
-1

>  <i_i_glide_confnum>  (361) 
1

>  <i_i_glide_posenum>  (361) 
19

>  <r_i_glide_eff_state_penalty>  (361) 
0

>  <ligand_id>  (361) 
102

>  <original_smiles>  (361) 
O=C1C(=Cc2ccc[nH]2)Oc2cc(O)cc(O)c21

>  <smiles>  (361) 
[H]Oc1c([H])c(O[H])c2c(c1[H])OC(=C([H])c1c([H])c([H])c([H])n1[H])C2=O

$$$$
102:1:2
     RDKit          3D

 27 29  0  0  1  0  0  0  0  0999 V2000
    2.5880   -0.4224    1.5286 O   0  0  0  0  0  0  0  0  0  0  0  0
    2.2671   -1.4433    2.1360 C   0  0  0  0  0  0  0  0  0  0  0  0
    2.7309   -2.8401    1.9631 C   0  0  0  0  0  0  0  0  0  0  0  0
    3.6188   -3.3363    1.0754 C   0  0  0  0  0  0  0  0  0  0  0  0
    4.3099   -2.7534   -0.0341 C   0  0  0  0  0  0  0  0  0  0  0  0
    5.5059   -3.0531   -0.6303 C   0  0  0  0  0  0  0  0  0  0  0  0
    5.7306   -2.0966   -1.6665 C   0  0  0  0  0  0  0  0  0  0  0  0
    4.6744   -1.2267   -1.6735 C   0  0  0  0  0  0  0  0  0  0  0  0
    3.8123   -1.6432   -0.6838 N   0  0  0  0  0  0  0  0  0  0  0  0
    2.1511   -3.6383    2.9144 O   0  0  0  0  0  0  0  0  0  0  0  0
    1.3415   -2.8445    3.6804 C   0  0  0  0  0  0  0  0  0  0  0  0
    0.5641   -3.2495    4.7711 C   0  0  0  0  0  0  0  0  0  0  0  0
   -0.2204   -2.2754    5.4281 C   0  0  0  0  0  0  0  0  0  0  0  0
   -0.9961   -2.6491    6.4805 O   0  0  0  0  0  0  0  0  0  0  0  0
   -0.2145   -0.9240    4.9983 C   0  0  0  0  0  0  0  0  0  0  0  0
    0.5764   -0.5305    3.8964 C   0  0  0  0  0  0  0  0  0  0  0  0
    0.5734    0.7699    3.4689 O   0  0  0  0  0  0  0  0  0  0  0  0
    1.3490   -1.5200    3.2607 C   0  0  0  0  0  0  0  0  0  0  0  0
    2.9376   -1.1900   -0.4402 H   0  0  0  0  0  0  0  0  0  0  0  0
    3.8111   -4.3945    1.1711 H   0  0  0  0  0  0  0  0  0  0  0  0
    6.1577   -3.8694   -0.3489 H   0  0  0  0  0  0  0  0  0  0  0  0
    6.5839   -2.0443   -2.3220 H   0  0  0  0  0  0  0  0  0  0  0  0
    4.4464   -0.3508   -2.2669 H   0  0  0  0  0  0  0  0  0  0  0  0
    0.5602   -4.2833    5.0843 H   0  0  0  0  0  0  0  0  0  0  0  0
   -0.8592   -3.5553    6.7123 H   0  0  0  0  0  0  0  0  0  0  0  0
   -0.8153   -0.1834    5.5051 H   0  0  0  0  0  0  0  0  0  0  0  0
    1.0725    0.9282    2.6760 H   0  0  0  0  0  0  0  0  0  0  0  0
  1  2  2  0
  2 18  1  0
  2  3  1  0
  3  4  2  3
  3 10  1  0
  4  5  1  0
  4 20  1  0
  5  9  1  0
  5  6  2  0
  6  7  1  0
  6 21  1  0
  7  8  2  0
  7 22  1  0
  8  9  1  0
  8 23  1  0
  9 19  1  0
 10 11  1  0
 11 18  2  0
 11 12  1  0
 12 13  2  0
 12 24  1  0
 13 14  1  0
 13 15  1  0
 14 25  1  0
 15 16  2  0
 15 26  1  0
 16 17  1  0
 16 18  1  0
 17 27  1  0
M  END
>  <i_m_ct_stereo_status>  (362) 
1

>  <s_m_source_file>  (362) 
/var/tmp/pbs.5076255.sched01/tmpm28zzdm2/1449lyhn0we.sdf

>  <i_m_source_file_index>  (362) 
16

>  <i_lp_mmshare_version>  (362) 
48012

>  <i_f3d_flags>  (362) 
0

>  <s_epik_input>  (362) 
W2NIXTFjKFtPSF0pW2NIXWMoW09IXSljKGMxMilDKD1PKS9DKE8yKT1bQ0hdL2MzW2NIXVtjSF1bY0hdW25IXTM=

>  <s_epik_cmdline>  (362) 
J2VwaWtfcHl0aG9uJywgJy1waHQnLCAnMi4wJywgJy1waCcsICc3LjAnLCAnLXRuJywgJzgnLCAnLW1hJywgJzIwMCcsICctaW1hZScsICc8aW5maWxlLm1hZT4nLCAnLW9tYWUnLCAnPG91dGZpbGUubWFlPic=

>  <r_epik_Ionization_Penalty>  (362) 
0.463116

>  <r_epik_Ionization_Penalty_Charging>  (362) 
0

>  <r_epik_Ionization_Penalty_Neutral>  (362) 
0.463116

>  <r_epik_State_Penalty>  (362) 
0.431806

>  <r_epik_Charging_Adjusted_Penalty>  (362) 
0.431806

>  <i_epik_Tot_Q>  (362) 
0

>  <i_epik_Tot_abs_Q>  (362) 
0

>  <s_lp_Force_Field>  (362) 
OPLS3e

>  <r_lp_Energy>  (362) 
8.5326

>  <b_lp_Chiralities_Consistent>  (362) 
1

>  <s_lp_Variant>  (362) 
102:0-2

>  <s_i_glide_gridfile>  (362) 
pfpi4k_grid

>  <i_i_glide_lignum>  (362) 
16

>  <i_i_glide_rotatable_bonds>  (362) 
3

>  <r_i_docking_score>  (362) 
-4.3205

>  <r_i_glide_ligand_efficiency>  (362) 
-0.240028

>  <r_i_glide_ligand_efficiency_sa>  (362) 
-0.629051

>  <r_i_glide_ligand_efficiency_ln>  (362) 
-1.11056

>  <r_i_glide_gscore>  (362) 
-4.3205

>  <r_i_glide_lipo>  (362) 
-0.0795417

>  <r_i_glide_hbond>  (362) 
-0.0700097

>  <r_i_glide_metal>  (362) 
-0

>  <r_i_glide_rewards>  (362) 
-2.75081

>  <r_i_glide_evdw>  (362) 
-18.3931

>  <r_i_glide_ecoul>  (362) 
-2.63903

>  <r_i_glide_erotb>  (362) 
0

>  <r_i_glide_esite>  (362) 
-0.104632

>  <r_i_glide_emodel>  (362) 
-39.8924

>  <r_i_glide_energy>  (362) 
-21.0321

>  <r_i_glide_einternal>  (362) 
1.793

>  <r_i_glide_intrahb_reward>  (362) 
-1

>  <i_i_glide_confnum>  (362) 
2

>  <i_i_glide_posenum>  (362) 
40

>  <r_i_glide_eff_state_penalty>  (362) 
0

>  <ligand_id>  (362) 
102

>  <original_smiles>  (362) 
O=C1C(=Cc2ccc[nH]2)Oc2cc(O)cc(O)c21

>  <smiles>  (362) 
[H]Oc1c([H])c(O[H])c2c(c1[H])OC(=C([H])c1c([H])c([H])c([H])n1[H])C2=O

$$$$
102:2:0
     RDKit          3D

 26 28  0  0  1  0  0  0  0  0999 V2000
  -10.5463   -4.6329   -7.5927 O   0  0  0  0  0  0  0  0  0  0  0  0
   -9.6793   -5.4990   -7.4842 C   0  0  0  0  0  0  0  0  0  0  0  0
   -9.6078   -6.8193   -8.1323 C   0  0  0  0  0  0  0  0  0  0  0  0
  -10.5133   -7.3589   -8.9727 C   0  0  0  0  0  0  0  0  0  0  0  0
  -10.4313   -8.6220   -9.6478 C   0  0  0  0  0  0  0  0  0  0  0  0
  -11.3704   -9.4295  -10.2246 C   0  0  0  0  0  0  0  0  0  0  0  0
  -10.7097  -10.6068  -10.6987 C   0  0  0  0  0  0  0  0  0  0  0  0
   -9.3827  -10.5029  -10.3947 C   0  0  0  0  0  0  0  0  0  0  0  0
   -9.2293   -9.2971   -9.7465 N   0  0  0  0  0  0  0  0  0  0  0  0
   -8.4703   -7.4818   -7.7453 O   0  0  0  0  0  0  0  0  0  0  0  0
   -7.8164   -6.6739   -6.8628 C   0  0  0  0  0  0  0  0  0  0  0  0
   -6.6233   -6.9736   -6.1945 C   0  0  0  0  0  0  0  0  0  0  0  0
   -6.0855   -5.9991   -5.3285 C   0  0  0  0  0  0  0  0  0  0  0  0
   -4.8845   -6.2479   -4.7401 O   0  0  0  0  0  0  0  0  0  0  0  0
   -6.7632   -4.7732   -5.1006 C   0  0  0  0  0  0  0  0  0  0  0  0
   -7.9886   -4.5041   -5.7580 C   0  0  0  0  0  0  0  0  0  0  0  0
   -8.6684   -3.3450   -5.5257 O   0  0  0  0  0  0  0  0  0  0  0  0
   -8.4795   -5.4658   -6.6556 C   0  0  0  0  0  0  0  0  0  0  0  0
   -8.3567   -8.9435   -9.3793 H   0  0  0  0  0  0  0  0  0  0  0  0
  -11.3866   -6.7644   -9.2124 H   0  0  0  0  0  0  0  0  0  0  0  0
  -12.4256   -9.1999  -10.2826 H   0  0  0  0  0  0  0  0  0  0  0  0
  -11.1609  -11.4501  -11.1984 H   0  0  0  0  0  0  0  0  0  0  0  0
   -8.5465  -11.1675  -10.5664 H   0  0  0  0  0  0  0  0  0  0  0  0
   -6.1093   -7.9071   -6.3608 H   0  0  0  0  0  0  0  0  0  0  0  0
   -6.3338   -4.0407   -4.4310 H   0  0  0  0  0  0  0  0  0  0  0  0
   -9.5201   -3.2681   -5.9391 H   0  0  0  0  0  0  0  0  0  0  0  0
  1  2  2  0
  2 18  1  0
  2  3  1  0
  3  4  2  3
  3 10  1  0
  4  5  1  0
  4 20  1  0
  5  9  1  0
  5  6  2  0
  6  7  1  0
  6 21  1  0
  7  8  2  0
  7 22  1  0
  8  9  1  0
  8 23  1  0
  9 19  1  0
 10 11  1  0
 11 18  2  0
 11 12  1  0
 12 13  2  0
 12 24  1  0
 13 14  1  0
 13 15  1  0
 15 16  2  0
 15 25  1  0
 16 17  1  0
 16 18  1  0
 17 26  1  0
M  CHG  1  14  -1
M  END
>  <i_m_ct_stereo_status>  (363) 
1

>  <s_m_source_file>  (363) 
/var/tmp/pbs.5076255.sched01/tmpm28zzdm2/1449lyhn0we.sdf

>  <i_m_source_file_index>  (363) 
17

>  <i_lp_mmshare_version>  (363) 
48012

>  <i_f3d_flags>  (363) 
0

>  <s_epik_input>  (363) 
W2NIXTFjKFtPSF0pW2NIXWMoW09IXSljKGMxMilDKD1PKS9DKE8yKT1bQ0hdL2MzW2NIXVtjSF1bY0hdW25IXTM=

>  <s_epik_cmdline>  (363) 
J2VwaWtfcHl0aG9uJywgJy1waHQnLCAnMi4wJywgJy1waCcsICc3LjAnLCAnLXRuJywgJzgnLCAnLW1hJywgJzIwMCcsICctaW1hZScsICc8aW5maWxlLm1hZT4nLCAnLW9tYWUnLCAnPG91dGZpbGUubWFlPic=

>  <r_epik_Ionization_Penalty>  (363) 
0.414585

>  <r_epik_Ionization_Penalty_Charging>  (363) 
0.413995

>  <r_epik_Ionization_Penalty_Neutral>  (363) 
0.000590349

>  <r_epik_State_Penalty>  (363) 
0.438862

>  <r_epik_Charging_Adjusted_Penalty>  (363) 
0.852857

>  <i_epik_Tot_Q>  (363) 
-1

>  <i_epik_Tot_abs_Q>  (363) 
1

>  <s_lp_Force_Field>  (363) 
OPLS3e

>  <r_lp_Energy>  (363) 
4.41755

>  <b_lp_Chiralities_Consistent>  (363) 
1

>  <s_lp_Variant>  (363) 
102:0-3

>  <s_i_glide_gridfile>  (363) 
pfpi4k_grid

>  <i_i_glide_lignum>  (363) 
17

>  <i_i_glide_rotatable_bonds>  (363) 
2

>  <r_i_docking_score>  (363) 
-6.12593

>  <r_i_glide_ligand_efficiency>  (363) 
-0.340329

>  <r_i_glide_ligand_efficiency_sa>  (363) 
-0.891915

>  <r_i_glide_ligand_efficiency_ln>  (363) 
-1.57464

>  <r_i_glide_gscore>  (363) 
-6.12593

>  <r_i_glide_lipo>  (363) 
-1.73389

>  <r_i_glide_hbond>  (363) 
-0.16

>  <r_i_glide_metal>  (363) 
-0

>  <r_i_glide_rewards>  (363) 
-2.78396

>  <r_i_glide_evdw>  (363) 
-21.5633

>  <r_i_glide_ecoul>  (363) 
-2.46611

>  <r_i_glide_erotb>  (363) 
0

>  <r_i_glide_esite>  (363) 
0

>  <r_i_glide_emodel>  (363) 
-43.4543

>  <r_i_glide_energy>  (363) 
-24.0294

>  <r_i_glide_einternal>  (363) 
1.40036

>  <r_i_glide_intrahb_reward>  (363) 
-0.5

>  <i_i_glide_confnum>  (363) 
1

>  <i_i_glide_posenum>  (363) 
4

>  <r_i_glide_eff_state_penalty>  (363) 
0

>  <ligand_id>  (363) 
102

>  <original_smiles>  (363) 
O=C1C(=Cc2ccc[nH]2)Oc2cc(O)cc(O)c21

>  <smiles>  (363) 
[H]Oc1c([H])c([O-])c([H])c2c1C(=O)C(=C([H])c1c([H])c([H])c([H])n1[H])O2

$$$$
102:2:1
     RDKit          3D

 26 28  0  0  1  0  0  0  0  0999 V2000
   -8.6259   -7.9828   -9.0005 O   0  0  0  0  0  0  0  0  0  0  0  0
   -7.8453   -7.8854   -8.0547 C   0  0  0  0  0  0  0  0  0  0  0  0
   -6.8325   -8.8551   -7.6003 C   0  0  0  0  0  0  0  0  0  0  0  0
   -6.5690  -10.0556   -8.1455 C   0  0  0  0  0  0  0  0  0  0  0  0
   -5.5922  -11.0069   -7.7053 C   0  0  0  0  0  0  0  0  0  0  0  0
   -4.7127  -11.0376   -6.6541 C   0  0  0  0  0  0  0  0  0  0  0  0
   -3.9668  -12.2502   -6.7371 C   0  0  0  0  0  0  0  0  0  0  0  0
   -4.3974  -12.9337   -7.8402 C   0  0  0  0  0  0  0  0  0  0  0  0
   -5.3864  -12.1679   -8.4188 N   0  0  0  0  0  0  0  0  0  0  0  0
   -6.1595   -8.3703   -6.5134 O   0  0  0  0  0  0  0  0  0  0  0  0
   -6.6833   -7.1430   -6.2410 C   0  0  0  0  0  0  0  0  0  0  0  0
   -6.2796   -6.2980   -5.2037 C   0  0  0  0  0  0  0  0  0  0  0  0
   -6.9358   -5.0626   -5.0695 C   0  0  0  0  0  0  0  0  0  0  0  0
   -6.5646   -4.2610   -4.0411 O   0  0  0  0  0  0  0  0  0  0  0  0
   -7.9659   -4.6726   -5.9633 C   0  0  0  0  0  0  0  0  0  0  0  0
   -8.3675   -5.5369   -7.0102 C   0  0  0  0  0  0  0  0  0  0  0  0
   -9.3714   -5.1758   -7.8670 O   0  0  0  0  0  0  0  0  0  0  0  0
   -7.7022   -6.7769   -7.1191 C   0  0  0  0  0  0  0  0  0  0  0  0
   -5.9013  -12.4202   -9.2486 H   0  0  0  0  0  0  0  0  0  0  0  0
   -7.1570  -10.3527   -9.0023 H   0  0  0  0  0  0  0  0  0  0  0  0
   -4.6119  -10.2715   -5.8956 H   0  0  0  0  0  0  0  0  0  0  0  0
   -3.1968  -12.5849   -6.0565 H   0  0  0  0  0  0  0  0  0  0  0  0
   -4.0999  -13.8867   -8.2544 H   0  0  0  0  0  0  0  0  0  0  0  0
   -5.4928   -6.5836   -4.5219 H   0  0  0  0  0  0  0  0  0  0  0  0
   -8.4532   -3.7157   -5.8342 H   0  0  0  0  0  0  0  0  0  0  0  0
   -9.6582   -5.8867   -8.4241 H   0  0  0  0  0  0  0  0  0  0  0  0
  1  2  2  0
  2 18  1  0
  2  3  1  0
  3  4  2  3
  3 10  1  0
  4  5  1  0
  4 20  1  0
  5  9  1  0
  5  6  2  0
  6  7  1  0
  6 21  1  0
  7  8  2  0
  7 22  1  0
  8  9  1  0
  8 23  1  0
  9 19  1  0
 10 11  1  0
 11 18  2  0
 11 12  1  0
 12 13  2  0
 12 24  1  0
 13 14  1  0
 13 15  1  0
 15 16  2  0
 15 25  1  0
 16 17  1  0
 16 18  1  0
 17 26  1  0
M  CHG  1  14  -1
M  END
>  <i_m_ct_stereo_status>  (364) 
1

>  <s_m_source_file>  (364) 
/var/tmp/pbs.5076255.sched01/tmpm28zzdm2/1449lyhn0we.sdf

>  <i_m_source_file_index>  (364) 
17

>  <i_lp_mmshare_version>  (364) 
48012

>  <i_f3d_flags>  (364) 
0

>  <s_epik_input>  (364) 
W2NIXTFjKFtPSF0pW2NIXWMoW09IXSljKGMxMilDKD1PKS9DKE8yKT1bQ0hdL2MzW2NIXVtjSF1bY0hdW25IXTM=

>  <s_epik_cmdline>  (364) 
J2VwaWtfcHl0aG9uJywgJy1waHQnLCAnMi4wJywgJy1waCcsICc3LjAnLCAnLXRuJywgJzgnLCAnLW1hJywgJzIwMCcsICctaW1hZScsICc8aW5maWxlLm1hZT4nLCAnLW9tYWUnLCAnPG91dGZpbGUubWFlPic=

>  <r_epik_Ionization_Penalty>  (364) 
0.414585

>  <r_epik_Ionization_Penalty_Charging>  (364) 
0.413995

>  <r_epik_Ionization_Penalty_Neutral>  (364) 
0.000590349

>  <r_epik_State_Penalty>  (364) 
0.438862

>  <r_epik_Charging_Adjusted_Penalty>  (364) 
0.852857

>  <i_epik_Tot_Q>  (364) 
-1

>  <i_epik_Tot_abs_Q>  (364) 
1

>  <s_lp_Force_Field>  (364) 
OPLS3e

>  <r_lp_Energy>  (364) 
4.41755

>  <b_lp_Chiralities_Consistent>  (364) 
1

>  <s_lp_Variant>  (364) 
102:0-3

>  <s_i_glide_gridfile>  (364) 
pfpi4k_grid

>  <i_i_glide_lignum>  (364) 
17

>  <i_i_glide_rotatable_bonds>  (364) 
2

>  <r_i_docking_score>  (364) 
-6.12014

>  <r_i_glide_ligand_efficiency>  (364) 
-0.340008

>  <r_i_glide_ligand_efficiency_sa>  (364) 
-0.891073

>  <r_i_glide_ligand_efficiency_ln>  (364) 
-1.57315

>  <r_i_glide_gscore>  (364) 
-6.12014

>  <r_i_glide_lipo>  (364) 
-2.02842

>  <r_i_glide_hbond>  (364) 
0

>  <r_i_glide_metal>  (364) 
-0

>  <r_i_glide_rewards>  (364) 
-2.89676

>  <r_i_glide_evdw>  (364) 
-25.3013

>  <r_i_glide_ecoul>  (364) 
0.50045

>  <r_i_glide_erotb>  (364) 
0

>  <r_i_glide_esite>  (364) 
-0.00496518

>  <r_i_glide_emodel>  (364) 
-44.9299

>  <r_i_glide_energy>  (364) 
-24.8008

>  <r_i_glide_einternal>  (364) 
0.130116

>  <r_i_glide_intrahb_reward>  (364) 
-0.5

>  <i_i_glide_confnum>  (364) 
2

>  <i_i_glide_posenum>  (364) 
7

>  <r_i_glide_eff_state_penalty>  (364) 
0

>  <ligand_id>  (364) 
102

>  <original_smiles>  (364) 
O=C1C(=Cc2ccc[nH]2)Oc2cc(O)cc(O)c21

>  <smiles>  (364) 
[H]Oc1c([H])c([O-])c([H])c2c1C(=O)C(=C([H])c1c([H])c([H])c([H])n1[H])O2

$$$$
102:2:2
     RDKit          3D

 26 28  0  0  1  0  0  0  0  0999 V2000
    1.5337    1.7544    1.6959 O   0  0  0  0  0  0  0  0  0  0  0  0
    1.1139    0.8990    2.4696 C   0  0  0  0  0  0  0  0  0  0  0  0
    1.4447   -0.5335    2.5157 C   0  0  0  0  0  0  0  0  0  0  0  0
    2.2647   -1.1879    1.6726 C   0  0  0  0  0  0  0  0  0  0  0  0
    2.6170   -2.5745    1.7056 C   0  0  0  0  0  0  0  0  0  0  0  0
    3.2694   -3.3935    0.8249 C   0  0  0  0  0  0  0  0  0  0  0  0
    3.2813   -4.7102    1.3800 C   0  0  0  0  0  0  0  0  0  0  0  0
    2.6302   -4.6773    2.5793 C   0  0  0  0  0  0  0  0  0  0  0  0
    2.2275   -3.3752    2.7597 N   0  0  0  0  0  0  0  0  0  0  0  0
    0.7984   -1.1464    3.5546 O   0  0  0  0  0  0  0  0  0  0  0  0
    0.0658   -0.1826    4.1823 C   0  0  0  0  0  0  0  0  0  0  0  0
   -0.7567   -0.3830    5.3006 C   0  0  0  0  0  0  0  0  0  0  0  0
   -1.4558    0.7299    5.8205 C   0  0  0  0  0  0  0  0  0  0  0  0
   -2.2874    0.5476    6.8668 O   0  0  0  0  0  0  0  0  0  0  0  0
   -1.3006    2.0159    5.2402 C   0  0  0  0  0  0  0  0  0  0  0  0
   -0.4729    2.2108    4.1043 C   0  0  0  0  0  0  0  0  0  0  0  0
   -0.3655    3.4562    3.5402 O   0  0  0  0  0  0  0  0  0  0  0  0
    0.1970    1.0759    3.5953 C   0  0  0  0  0  0  0  0  0  0  0  0
    1.7079   -3.0293    3.5528 H   0  0  0  0  0  0  0  0  0  0  0  0
    2.7156   -0.6132    0.8781 H   0  0  0  0  0  0  0  0  0  0  0  0
    3.6827   -3.0781   -0.1217 H   0  0  0  0  0  0  0  0  0  0  0  0
    3.7217   -5.5936    0.9455 H   0  0  0  0  0  0  0  0  0  0  0  0
    2.4188   -5.4432    3.3162 H   0  0  0  0  0  0  0  0  0  0  0  0
   -0.8575   -1.3609    5.7427 H   0  0  0  0  0  0  0  0  0  0  0  0
   -1.8433    2.8489    5.6676 H   0  0  0  0  0  0  0  0  0  0  0  0
    0.0377    3.4713    2.6739 H   0  0  0  0  0  0  0  0  0  0  0  0
  1  2  2  0
  2 18  1  0
  2  3  1  0
  3  4  2  3
  3 10  1  0
  4  5  1  0
  4 20  1  0
  5  9  1  0
  5  6  2  0
  6  7  1  0
  6 21  1  0
  7  8  2  0
  7 22  1  0
  8  9  1  0
  8 23  1  0
  9 19  1  0
 10 11  1  0
 11 18  2  0
 11 12  1  0
 12 13  2  0
 12 24  1  0
 13 14  1  0
 13 15  1  0
 15 16  2  0
 15 25  1  0
 16 17  1  0
 16 18  1  0
 17 26  1  0
M  CHG  1  14  -1
M  END
>  <i_m_ct_stereo_status>  (365) 
1

>  <s_m_source_file>  (365) 
/var/tmp/pbs.5076255.sched01/tmpm28zzdm2/1449lyhn0we.sdf

>  <i_m_source_file_index>  (365) 
17

>  <i_lp_mmshare_version>  (365) 
48012

>  <i_f3d_flags>  (365) 
0

>  <s_epik_input>  (365) 
W2NIXTFjKFtPSF0pW2NIXWMoW09IXSljKGMxMilDKD1PKS9DKE8yKT1bQ0hdL2MzW2NIXVtjSF1bY0hdW25IXTM=

>  <s_epik_cmdline>  (365) 
J2VwaWtfcHl0aG9uJywgJy1waHQnLCAnMi4wJywgJy1waCcsICc3LjAnLCAnLXRuJywgJzgnLCAnLW1hJywgJzIwMCcsICctaW1hZScsICc8aW5maWxlLm1hZT4nLCAnLW9tYWUnLCAnPG91dGZpbGUubWFlPic=

>  <r_epik_Ionization_Penalty>  (365) 
0.414585

>  <r_epik_Ionization_Penalty_Charging>  (365) 
0.413995

>  <r_epik_Ionization_Penalty_Neutral>  (365) 
0.000590349

>  <r_epik_State_Penalty>  (365) 
0.438862

>  <r_epik_Charging_Adjusted_Penalty>  (365) 
0.852857

>  <i_epik_Tot_Q>  (365) 
-1

>  <i_epik_Tot_abs_Q>  (365) 
1

>  <s_lp_Force_Field>  (365) 
OPLS3e

>  <r_lp_Energy>  (365) 
4.41755

>  <b_lp_Chiralities_Consistent>  (365) 
1

>  <s_lp_Variant>  (365) 
102:0-3

>  <s_i_glide_gridfile>  (365) 
pfpi4k_grid

>  <i_i_glide_lignum>  (365) 
17

>  <i_i_glide_rotatable_bonds>  (365) 
2

>  <r_i_docking_score>  (365) 
-4.60815

>  <r_i_glide_ligand_efficiency>  (365) 
-0.256008

>  <r_i_glide_ligand_efficiency_sa>  (365) 
-0.670931

>  <r_i_glide_ligand_efficiency_ln>  (365) 
-1.1845

>  <r_i_glide_gscore>  (365) 
-4.60815

>  <r_i_glide_lipo>  (365) 
-0.00453759

>  <r_i_glide_hbond>  (365) 
-0.199762

>  <r_i_glide_metal>  (365) 
-0

>  <r_i_glide_rewards>  (365) 
-2.75768

>  <r_i_glide_evdw>  (365) 
-15.2131

>  <r_i_glide_ecoul>  (365) 
-5.6479

>  <r_i_glide_erotb>  (365) 
0

>  <r_i_glide_esite>  (365) 
-0.0383247

>  <r_i_glide_emodel>  (365) 
-41.6294

>  <r_i_glide_energy>  (365) 
-20.861

>  <r_i_glide_einternal>  (365) 
0.990947

>  <r_i_glide_intrahb_reward>  (365) 
-1

>  <i_i_glide_confnum>  (365) 
1

>  <i_i_glide_posenum>  (365) 
30

>  <r_i_glide_eff_state_penalty>  (365) 
0

>  <ligand_id>  (365) 
102

>  <original_smiles>  (365) 
O=C1C(=Cc2ccc[nH]2)Oc2cc(O)cc(O)c21

>  <smiles>  (365) 
[H]Oc1c([H])c([O-])c([H])c2c1C(=O)C(=C([H])c1c([H])c([H])c([H])n1[H])O2

$$$$
102:3:0
     RDKit          3D

 26 28  0  0  1  0  0  0  0  0999 V2000
    2.2792    0.4880    1.3551 O   0  0  0  0  0  0  0  0  0  0  0  0
    1.8259   -0.3744    2.1123 C   0  0  0  0  0  0  0  0  0  0  0  0
    2.1940   -1.8080    2.2678 C   0  0  0  0  0  0  0  0  0  0  0  0
    3.1457   -2.5167    1.6257 C   0  0  0  0  0  0  0  0  0  0  0  0
    4.0138   -2.2106    0.5343 C   0  0  0  0  0  0  0  0  0  0  0  0
    5.2541   -2.6657    0.1903 C   0  0  0  0  0  0  0  0  0  0  0  0
    5.6774   -1.9485   -0.9728 C   0  0  0  0  0  0  0  0  0  0  0  0
    4.6917   -1.0605   -1.3049 C   0  0  0  0  0  0  0  0  0  0  0  0
    3.6923   -1.2357   -0.3792 N   0  0  0  0  0  0  0  0  0  0  0  0
    1.4477   -2.3708    3.2760 O   0  0  0  0  0  0  0  0  0  0  0  0
    0.6254   -1.3943    3.7666 C   0  0  0  0  0  0  0  0  0  0  0  0
   -0.3263   -1.5340    4.7905 C   0  0  0  0  0  0  0  0  0  0  0  0
   -1.1261   -0.4098    5.1217 C   0  0  0  0  0  0  0  0  0  0  0  0
   -2.1248   -0.5213    6.0395 O   0  0  0  0  0  0  0  0  0  0  0  0
   -0.9235    0.8336    4.4756 C   0  0  0  0  0  0  0  0  0  0  0  0
    0.0347    0.9634    3.4484 C   0  0  0  0  0  0  0  0  0  0  0  0
    0.1841    2.1561    2.8123 O   0  0  0  0  0  0  0  0  0  0  0  0
    0.7923   -0.1749    3.1133 C   0  0  0  0  0  0  0  0  0  0  0  0
    2.8153   -0.7239   -0.3498 H   0  0  0  0  0  0  0  0  0  0  0  0
    3.2174   -3.5448    1.9428 H   0  0  0  0  0  0  0  0  0  0  0  0
    5.8100   -3.4313    0.7215 H   0  0  0  0  0  0  0  0  0  0  0  0
    6.6084   -2.0672   -1.5047 H   0  0  0  0  0  0  0  0  0  0  0  0
    4.5942   -0.3247   -2.0871 H   0  0  0  0  0  0  0  0  0  0  0  0
   -0.4594   -2.4838    5.2872 H   0  0  0  0  0  0  0  0  0  0  0  0
   -1.5283    1.6796    4.7540 H   0  0  0  0  0  0  0  0  0  0  0  0
    0.6891    2.1401    2.0123 H   0  0  0  0  0  0  0  0  0  0  0  0
  1  2  2  0
  2 18  1  0
  2  3  1  0
  3  4  2  3
  3 10  1  0
  4  5  1  0
  4 20  1  0
  5  9  1  0
  5  6  2  0
  6  7  1  0
  6 21  1  0
  7  8  2  0
  7 22  1  0
  8  9  1  0
  8 23  1  0
  9 19  1  0
 10 11  1  0
 11 18  2  0
 11 12  1  0
 12 13  2  0
 12 24  1  0
 13 14  1  0
 13 15  1  0
 15 16  2  0
 15 25  1  0
 16 17  1  0
 16 18  1  0
 17 26  1  0
M  CHG  1  14  -1
M  END
>  <i_m_ct_stereo_status>  (366) 
1

>  <s_m_source_file>  (366) 
/var/tmp/pbs.5076255.sched01/tmpm28zzdm2/1449lyhn0we.sdf

>  <i_m_source_file_index>  (366) 
18

>  <i_lp_mmshare_version>  (366) 
48012

>  <i_f3d_flags>  (366) 
0

>  <s_epik_input>  (366) 
W2NIXTFjKFtPSF0pW2NIXWMoW09IXSljKGMxMilDKD1PKS9DKE8yKT1bQ0hdL2MzW2NIXVtjSF1bY0hdW25IXTM=

>  <s_epik_cmdline>  (366) 
J2VwaWtfcHl0aG9uJywgJy1waHQnLCAnMi4wJywgJy1waCcsICc3LjAnLCAnLXRuJywgJzgnLCAnLW1hJywgJzIwMCcsICctaW1hZScsICc8aW5maWxlLm1hZT4nLCAnLW9tYWUnLCAnPG91dGZpbGUubWFlPic=

>  <r_epik_Ionization_Penalty>  (366) 
0.414585

>  <r_epik_Ionization_Penalty_Charging>  (366) 
0.413995

>  <r_epik_Ionization_Penalty_Neutral>  (366) 
0.000590349

>  <r_epik_State_Penalty>  (366) 
0.438862

>  <r_epik_Charging_Adjusted_Penalty>  (366) 
0.852857

>  <i_epik_Tot_Q>  (366) 
-1

>  <i_epik_Tot_abs_Q>  (366) 
1

>  <s_lp_Force_Field>  (366) 
OPLS3e

>  <r_lp_Energy>  (366) 
8.74883

>  <b_lp_Chiralities_Consistent>  (366) 
1

>  <s_lp_Variant>  (366) 
102:0-4

>  <s_i_glide_gridfile>  (366) 
pfpi4k_grid

>  <i_i_glide_lignum>  (366) 
18

>  <i_i_glide_rotatable_bonds>  (366) 
2

>  <r_i_docking_score>  (366) 
-4.57255

>  <r_i_glide_ligand_efficiency>  (366) 
-0.25403

>  <r_i_glide_ligand_efficiency_sa>  (366) 
-0.665748

>  <r_i_glide_ligand_efficiency_ln>  (366) 
-1.17535

>  <r_i_glide_gscore>  (366) 
-4.57255

>  <r_i_glide_lipo>  (366) 
-0.0231077

>  <r_i_glide_hbond>  (366) 
-0.242819

>  <r_i_glide_metal>  (366) 
-0

>  <r_i_glide_rewards>  (366) 
-2.75768

>  <r_i_glide_evdw>  (366) 
-18.2623

>  <r_i_glide_ecoul>  (366) 
-3.35768

>  <r_i_glide_erotb>  (366) 
0

>  <r_i_glide_esite>  (366) 
-0.132173

>  <r_i_glide_emodel>  (366) 
-41.9571

>  <r_i_glide_energy>  (366) 
-21.6199

>  <r_i_glide_einternal>  (366) 
2.36807

>  <r_i_glide_intrahb_reward>  (366) 
-1

>  <i_i_glide_confnum>  (366) 
2

>  <i_i_glide_posenum>  (366) 
37

>  <r_i_glide_eff_state_penalty>  (366) 
0

>  <ligand_id>  (366) 
102

>  <original_smiles>  (366) 
O=C1C(=Cc2ccc[nH]2)Oc2cc(O)cc(O)c21

>  <smiles>  (366) 
[H]Oc1c([H])c([O-])c([H])c2c1C(=O)C(=C([H])c1c([H])c([H])c([H])n1[H])O2

$$$$
102:3:1
     RDKit          3D

 26 28  0  0  1  0  0  0  0  0999 V2000
    3.2854    0.1990    1.5933 O   0  0  0  0  0  0  0  0  0  0  0  0
    3.2110   -1.0205    1.7569 C   0  0  0  0  0  0  0  0  0  0  0  0
    2.1763   -1.8476    2.4370 C   0  0  0  0  0  0  0  0  0  0  0  0
    1.0310   -1.4687    3.0591 C   0  0  0  0  0  0  0  0  0  0  0  0
    0.3850   -0.2019    3.2462 C   0  0  0  0  0  0  0  0  0  0  0  0
   -0.6818    0.2085    4.0052 C   0  0  0  0  0  0  0  0  0  0  0  0
   -0.8528    1.6140    3.7967 C   0  0  0  0  0  0  0  0  0  0  0  0
    0.1109    2.0297    2.9206 C   0  0  0  0  0  0  0  0  0  0  0  0
    0.8369    0.9156    2.5928 N   0  0  0  0  0  0  0  0  0  0  0  0
    2.5399   -3.1692    2.3812 O   0  0  0  0  0  0  0  0  0  0  0  0
    3.7402   -3.2339    1.7164 C   0  0  0  0  0  0  0  0  0  0  0  0
    4.4970   -4.3827    1.4414 C   0  0  0  0  0  0  0  0  0  0  0  0
    5.7346   -4.2336    0.7559 C   0  0  0  0  0  0  0  0  0  0  0  0
    6.5070   -5.3322    0.5031 O   0  0  0  0  0  0  0  0  0  0  0  0
    6.1744   -2.9437    0.3471 C   0  0  0  0  0  0  0  0  0  0  0  0
    5.3995   -1.8008    0.6206 C   0  0  0  0  0  0  0  0  0  0  0  0
    5.8273   -0.5697    0.2113 O   0  0  0  0  0  0  0  0  0  0  0  0
    4.1893   -1.9770    1.3172 C   0  0  0  0  0  0  0  0  0  0  0  0
    1.6445    0.9007    1.9790 H   0  0  0  0  0  0  0  0  0  0  0  0
    0.4569   -2.2887    3.4690 H   0  0  0  0  0  0  0  0  0  0  0  0
   -1.2737   -0.4377    4.6398 H   0  0  0  0  0  0  0  0  0  0  0  0
   -1.5868    2.2714    4.2344 H   0  0  0  0  0  0  0  0  0  0  0  0
    0.3662    2.9927    2.4972 H   0  0  0  0  0  0  0  0  0  0  0  0
    4.1480   -5.3625    1.7508 H   0  0  0  0  0  0  0  0  0  0  0  0
    7.1143   -2.8449   -0.1856 H   0  0  0  0  0  0  0  0  0  0  0  0
    5.2031    0.1302    0.3504 H   0  0  0  0  0  0  0  0  0  0  0  0
  1  2  2  0
  2 18  1  0
  2  3  1  0
  3  4  2  3
  3 10  1  0
  4  5  1  0
  4 20  1  0
  5  9  1  0
  5  6  2  0
  6  7  1  0
  6 21  1  0
  7  8  2  0
  7 22  1  0
  8  9  1  0
  8 23  1  0
  9 19  1  0
 10 11  1  0
 11 18  2  0
 11 12  1  0
 12 13  2  0
 12 24  1  0
 13 14  1  0
 13 15  1  0
 15 16  2  0
 15 25  1  0
 16 17  1  0
 16 18  1  0
 17 26  1  0
M  CHG  1  14  -1
M  END
>  <i_m_ct_stereo_status>  (367) 
1

>  <s_m_source_file>  (367) 
/var/tmp/pbs.5076255.sched01/tmpm28zzdm2/1449lyhn0we.sdf

>  <i_m_source_file_index>  (367) 
18

>  <i_lp_mmshare_version>  (367) 
48012

>  <i_f3d_flags>  (367) 
0

>  <s_epik_input>  (367) 
W2NIXTFjKFtPSF0pW2NIXWMoW09IXSljKGMxMilDKD1PKS9DKE8yKT1bQ0hdL2MzW2NIXVtjSF1bY0hdW25IXTM=

>  <s_epik_cmdline>  (367) 
J2VwaWtfcHl0aG9uJywgJy1waHQnLCAnMi4wJywgJy1waCcsICc3LjAnLCAnLXRuJywgJzgnLCAnLW1hJywgJzIwMCcsICctaW1hZScsICc8aW5maWxlLm1hZT4nLCAnLW9tYWUnLCAnPG91dGZpbGUubWFlPic=

>  <r_epik_Ionization_Penalty>  (367) 
0.414585

>  <r_epik_Ionization_Penalty_Charging>  (367) 
0.413995

>  <r_epik_Ionization_Penalty_Neutral>  (367) 
0.000590349

>  <r_epik_State_Penalty>  (367) 
0.438862

>  <r_epik_Charging_Adjusted_Penalty>  (367) 
0.852857

>  <i_epik_Tot_Q>  (367) 
-1

>  <i_epik_Tot_abs_Q>  (367) 
1

>  <s_lp_Force_Field>  (367) 
OPLS3e

>  <r_lp_Energy>  (367) 
8.74883

>  <b_lp_Chiralities_Consistent>  (367) 
1

>  <s_lp_Variant>  (367) 
102:0-4

>  <s_i_glide_gridfile>  (367) 
pfpi4k_grid

>  <i_i_glide_lignum>  (367) 
18

>  <i_i_glide_rotatable_bonds>  (367) 
2

>  <r_i_docking_score>  (367) 
-4.06264

>  <r_i_glide_ligand_efficiency>  (367) 
-0.225702

>  <r_i_glide_ligand_efficiency_sa>  (367) 
-0.591507

>  <r_i_glide_ligand_efficiency_ln>  (367) 
-1.04428

>  <r_i_glide_gscore>  (367) 
-4.06264

>  <r_i_glide_lipo>  (367) 
-0.234909

>  <r_i_glide_hbond>  (367) 
0

>  <r_i_glide_metal>  (367) 
-0

>  <r_i_glide_rewards>  (367) 
-2.75768

>  <r_i_glide_evdw>  (367) 
-18.0292

>  <r_i_glide_ecoul>  (367) 
-0.724706

>  <r_i_glide_erotb>  (367) 
0

>  <r_i_glide_esite>  (367) 
-0.0598836

>  <r_i_glide_emodel>  (367) 
-38.417

>  <r_i_glide_energy>  (367) 
-18.7539

>  <r_i_glide_einternal>  (367) 
0.893795

>  <r_i_glide_intrahb_reward>  (367) 
-1

>  <i_i_glide_confnum>  (367) 
1

>  <i_i_glide_posenum>  (367) 
20

>  <r_i_glide_eff_state_penalty>  (367) 
0

>  <ligand_id>  (367) 
102

>  <original_smiles>  (367) 
O=C1C(=Cc2ccc[nH]2)Oc2cc(O)cc(O)c21

>  <smiles>  (367) 
[H]Oc1c([H])c([O-])c([H])c2c1C(=O)C(=C([H])c1c([H])c([H])c([H])n1[H])O2

$$$$
102:3:2
     RDKit          3D

 26 28  0  0  1  0  0  0  0  0999 V2000
    1.8701    1.3052    2.3090 O   0  0  0  0  0  0  0  0  0  0  0  0
    1.6981    0.1121    2.5595 C   0  0  0  0  0  0  0  0  0  0  0  0
    0.6267   -0.5506    3.3464 C   0  0  0  0  0  0  0  0  0  0  0  0
   -0.4376   -0.0072    3.9884 C   0  0  0  0  0  0  0  0  0  0  0  0
   -0.9457    1.3286    4.0783 C   0  0  0  0  0  0  0  0  0  0  0  0
   -1.7854    1.9526    4.9675 C   0  0  0  0  0  0  0  0  0  0  0  0
   -1.8858    3.3302    4.5892 C   0  0  0  0  0  0  0  0  0  0  0  0
   -1.0903    3.5213    3.4963 C   0  0  0  0  0  0  0  0  0  0  0  0
   -0.5376    2.3020    3.1974 N   0  0  0  0  0  0  0  0  0  0  0  0
    0.8592   -1.9022    3.3859 O   0  0  0  0  0  0  0  0  0  0  0  0
    2.0004   -2.1443    2.6711 C   0  0  0  0  0  0  0  0  0  0  0  0
    2.6085   -3.3902    2.4527 C   0  0  0  0  0  0  0  0  0  0  0  0
    3.7985   -3.4301    1.6855 C   0  0  0  0  0  0  0  0  0  0  0  0
    4.4141   -4.6275    1.4528 O   0  0  0  0  0  0  0  0  0  0  0  0
    4.3589   -2.2392    1.1602 C   0  0  0  0  0  0  0  0  0  0  0  0
    3.7371   -0.9970    1.3937 C   0  0  0  0  0  0  0  0  0  0  0  0
    4.2874    0.1419    0.9001 O   0  0  0  0  0  0  0  0  0  0  0  0
    2.5540   -0.9828    2.1500 C   0  0  0  0  0  0  0  0  0  0  0  0
    0.1393    2.1448    2.4544 H   0  0  0  0  0  0  0  0  0  0  0  0
   -1.0671   -0.7244    4.4973 H   0  0  0  0  0  0  0  0  0  0  0  0
   -2.2722    1.4733    5.8035 H   0  0  0  0  0  0  0  0  0  0  0  0
   -2.4511    4.1087    5.0785 H   0  0  0  0  0  0  0  0  0  0  0  0
   -0.8333    4.3869    2.8973 H   0  0  0  0  0  0  0  0  0  0  0  0
    2.1768   -4.2943    2.8549 H   0  0  0  0  0  0  0  0  0  0  0  0
    5.2704   -2.2766    0.5794 H   0  0  0  0  0  0  0  0  0  0  0  0
    3.8163    0.9320    1.1266 H   0  0  0  0  0  0  0  0  0  0  0  0
  1  2  2  0
  2 18  1  0
  2  3  1  0
  3  4  2  3
  3 10  1  0
  4  5  1  0
  4 20  1  0
  5  9  1  0
  5  6  2  0
  6  7  1  0
  6 21  1  0
  7  8  2  0
  7 22  1  0
  8  9  1  0
  8 23  1  0
  9 19  1  0
 10 11  1  0
 11 18  2  0
 11 12  1  0
 12 13  2  0
 12 24  1  0
 13 14  1  0
 13 15  1  0
 15 16  2  0
 15 25  1  0
 16 17  1  0
 16 18  1  0
 17 26  1  0
M  CHG  1  14  -1
M  END
>  <i_m_ct_stereo_status>  (368) 
1

>  <s_m_source_file>  (368) 
/var/tmp/pbs.5076255.sched01/tmpm28zzdm2/1449lyhn0we.sdf

>  <i_m_source_file_index>  (368) 
18

>  <i_lp_mmshare_version>  (368) 
48012

>  <i_f3d_flags>  (368) 
0

>  <s_epik_input>  (368) 
W2NIXTFjKFtPSF0pW2NIXWMoW09IXSljKGMxMilDKD1PKS9DKE8yKT1bQ0hdL2MzW2NIXVtjSF1bY0hdW25IXTM=

>  <s_epik_cmdline>  (368) 
J2VwaWtfcHl0aG9uJywgJy1waHQnLCAnMi4wJywgJy1waCcsICc3LjAnLCAnLXRuJywgJzgnLCAnLW1hJywgJzIwMCcsICctaW1hZScsICc8aW5maWxlLm1hZT4nLCAnLW9tYWUnLCAnPG91dGZpbGUubWFlPic=

>  <r_epik_Ionization_Penalty>  (368) 
0.414585

>  <r_epik_Ionization_Penalty_Charging>  (368) 
0.413995

>  <r_epik_Ionization_Penalty_Neutral>  (368) 
0.000590349

>  <r_epik_State_Penalty>  (368) 
0.438862

>  <r_epik_Charging_Adjusted_Penalty>  (368) 
0.852857

>  <i_epik_Tot_Q>  (368) 
-1

>  <i_epik_Tot_abs_Q>  (368) 
1

>  <s_lp_Force_Field>  (368) 
OPLS3e

>  <r_lp_Energy>  (368) 
8.74883

>  <b_lp_Chiralities_Consistent>  (368) 
1

>  <s_lp_Variant>  (368) 
102:0-4

>  <s_i_glide_gridfile>  (368) 
pfpi4k_grid

>  <i_i_glide_lignum>  (368) 
18

>  <i_i_glide_rotatable_bonds>  (368) 
2

>  <r_i_docking_score>  (368) 
-3.58061

>  <r_i_glide_ligand_efficiency>  (368) 
-0.198923

>  <r_i_glide_ligand_efficiency_sa>  (368) 
-0.521326

>  <r_i_glide_ligand_efficiency_ln>  (368) 
-0.920378

>  <r_i_glide_gscore>  (368) 
-3.58061

>  <r_i_glide_lipo>  (368) 
-0.00797585

>  <r_i_glide_hbond>  (368) 
0

>  <r_i_glide_metal>  (368) 
-0

>  <r_i_glide_rewards>  (368) 
-2.75768

>  <r_i_glide_evdw>  (368) 
-18.5683

>  <r_i_glide_ecoul>  (368) 
1.33742

>  <r_i_glide_erotb>  (368) 
0

>  <r_i_glide_esite>  (368) 
-0.0871562

>  <r_i_glide_emodel>  (368) 
-35.6245

>  <r_i_glide_energy>  (368) 
-17.2309

>  <r_i_glide_einternal>  (368) 
1.15799

>  <r_i_glide_intrahb_reward>  (368) 
-1

>  <i_i_glide_confnum>  (368) 
1

>  <i_i_glide_posenum>  (368) 
12

>  <r_i_glide_eff_state_penalty>  (368) 
0

>  <ligand_id>  (368) 
102

>  <original_smiles>  (368) 
O=C1C(=Cc2ccc[nH]2)Oc2cc(O)cc(O)c21

>  <smiles>  (368) 
[H]Oc1c([H])c([O-])c([H])c2c1C(=O)C(=C([H])c1c([H])c([H])c([H])n1[H])O2

$$$$
102:4:0
     RDKit          3D

 26 28  0  0  1  0  0  0  0  0999 V2000
   -0.5931   -2.1299    5.8894 O   0  0  0  0  0  0  0  0  0  0  0  0
   -0.2698   -1.3684    4.9771 C   0  0  0  0  0  0  0  0  0  0  0  0
    0.6482   -1.6452    3.8576 C   0  0  0  0  0  0  0  0  0  0  0  0
    1.3298   -2.7916    3.6403 C   0  0  0  0  0  0  0  0  0  0  0  0
    2.2180   -3.0862    2.5506 C   0  0  0  0  0  0  0  0  0  0  0  0
    3.0588   -4.1301    2.2795 C   0  0  0  0  0  0  0  0  0  0  0  0
    3.7061   -3.8629    1.0313 C   0  0  0  0  0  0  0  0  0  0  0  0
    3.2536   -2.6627    0.5660 C   0  0  0  0  0  0  0  0  0  0  0  0
    2.3595   -2.1985    1.5011 N   0  0  0  0  0  0  0  0  0  0  0  0
    0.7315   -0.5536    3.0338 O   0  0  0  0  0  0  0  0  0  0  0  0
   -0.0733    0.4180    3.5544 C   0  0  0  0  0  0  0  0  0  0  0  0
   -0.2661    1.7014    3.0127 C   0  0  0  0  0  0  0  0  0  0  0  0
   -1.1350    2.5847    3.6912 C   0  0  0  0  0  0  0  0  0  0  0  0
   -1.3382    3.8416    3.1890 O   0  0  0  0  0  0  0  0  0  0  0  0
   -1.7821    2.1750    4.8840 C   0  0  0  0  0  0  0  0  0  0  0  0
   -1.5671    0.8875    5.4295 C   0  0  0  0  0  0  0  0  0  0  0  0
   -2.1745    0.5518    6.6056 O   0  0  0  0  0  0  0  0  0  0  0  0
   -0.7090    0.0108    4.7275 C   0  0  0  0  0  0  0  0  0  0  0  0
    1.8384   -1.3361    1.4086 H   0  0  0  0  0  0  0  0  0  0  0  0
    1.1932   -3.6014    4.3468 H   0  0  0  0  0  0  0  0  0  0  0  0
    3.1955   -4.9966    2.9125 H   0  0  0  0  0  0  0  0  0  0  0  0
    4.4269   -4.4830    0.5245 H   0  0  0  0  0  0  0  0  0  0  0  0
    3.4665   -2.0954   -0.3302 H   0  0  0  0  0  0  0  0  0  0  0  0
    0.2410    2.0004    2.1016 H   0  0  0  0  0  0  0  0  0  0  0  0
   -0.8549    4.0007    2.3760 H   0  0  0  0  0  0  0  0  0  0  0  0
   -2.4456    2.8538    5.3955 H   0  0  0  0  0  0  0  0  0  0  0  0
  1  2  2  0
  2 18  1  0
  2  3  1  0
  3  4  2  3
  3 10  1  0
  4  5  1  0
  4 20  1  0
  5  9  1  0
  5  6  2  0
  6  7  1  0
  6 21  1  0
  7  8  2  0
  7 22  1  0
  8  9  1  0
  8 23  1  0
  9 19  1  0
 10 11  1  0
 11 18  2  0
 11 12  1  0
 12 13  2  0
 12 24  1  0
 13 14  1  0
 13 15  1  0
 14 25  1  0
 15 16  2  0
 15 26  1  0
 16 17  1  0
 16 18  1  0
M  CHG  1  17  -1
M  END
>  <i_m_ct_stereo_status>  (369) 
1

>  <s_m_source_file>  (369) 
/var/tmp/pbs.5076255.sched01/tmpm28zzdm2/1449lyhn0we.sdf

>  <i_m_source_file_index>  (369) 
19

>  <i_lp_mmshare_version>  (369) 
48012

>  <i_f3d_flags>  (369) 
0

>  <s_epik_input>  (369) 
W2NIXTFjKFtPSF0pW2NIXWMoW09IXSljKGMxMilDKD1PKS9DKE8yKT1bQ0hdL2MzW2NIXVtjSF1bY0hdW25IXTM=

>  <s_epik_cmdline>  (369) 
J2VwaWtfcHl0aG9uJywgJy1waHQnLCAnMi4wJywgJy1waCcsICc3LjAnLCAnLXRuJywgJzgnLCAnLW1hJywgJzIwMCcsICctaW1hZScsICc8aW5maWxlLm1hZT4nLCAnLW9tYWUnLCAnPG91dGZpbGUubWFlPic=

>  <r_epik_Ionization_Penalty>  (369) 
1.43403

>  <r_epik_Ionization_Penalty_Charging>  (369) 
1.42814

>  <r_epik_Ionization_Penalty_Neutral>  (369) 
0.00589214

>  <r_epik_State_Penalty>  (369) 
1.89628

>  <r_epik_Charging_Adjusted_Penalty>  (369) 
3.32442

>  <i_epik_Tot_Q>  (369) 
-1

>  <i_epik_Tot_abs_Q>  (369) 
1

>  <s_lp_Force_Field>  (369) 
OPLS3e

>  <r_lp_Energy>  (369) 
4.11648

>  <b_lp_Chiralities_Consistent>  (369) 
1

>  <s_lp_Variant>  (369) 
102:0-5

>  <s_i_glide_gridfile>  (369) 
pfpi4k_grid

>  <i_i_glide_lignum>  (369) 
19

>  <i_i_glide_rotatable_bonds>  (369) 
2

>  <r_i_docking_score>  (369) 
-4.7865

>  <r_i_glide_ligand_efficiency>  (369) 
-0.265917

>  <r_i_glide_ligand_efficiency_sa>  (369) 
-0.696899

>  <r_i_glide_ligand_efficiency_ln>  (369) 
-1.23035

>  <r_i_glide_gscore>  (369) 
-4.7865

>  <r_i_glide_lipo>  (369) 
-0.0460306

>  <r_i_glide_hbond>  (369) 
-0.36

>  <r_i_glide_metal>  (369) 
-0

>  <r_i_glide_rewards>  (369) 
-2.25768

>  <r_i_glide_evdw>  (369) 
-16.3096

>  <r_i_glide_ecoul>  (369) 
-8.28535

>  <r_i_glide_erotb>  (369) 
0

>  <r_i_glide_esite>  (369) 
-0.0645098

>  <r_i_glide_emodel>  (369) 
-42.5799

>  <r_i_glide_energy>  (369) 
-24.595

>  <r_i_glide_einternal>  (369) 
0.772724

>  <r_i_glide_intrahb_reward>  (369) 
-0.5

>  <i_i_glide_confnum>  (369) 
1

>  <i_i_glide_posenum>  (369) 
1

>  <r_i_glide_eff_state_penalty>  (369) 
0

>  <ligand_id>  (369) 
102

>  <original_smiles>  (369) 
O=C1C(=Cc2ccc[nH]2)Oc2cc(O)cc(O)c21

>  <smiles>  (369) 
[H]Oc1c([H])c([O-])c2c(c1[H])OC(=C([H])c1c([H])c([H])c([H])n1[H])C2=O

$$$$
102:4:1
     RDKit          3D

 26 28  0  0  1  0  0  0  0  0999 V2000
    1.6704   -3.7297    4.6308 O   0  0  0  0  0  0  0  0  0  0  0  0
    1.6766   -4.5392    3.7013 C   0  0  0  0  0  0  0  0  0  0  0  0
    2.5226   -4.5169    2.4965 C   0  0  0  0  0  0  0  0  0  0  0  0
    3.4729   -3.6060    2.2066 C   0  0  0  0  0  0  0  0  0  0  0  0
    4.3079   -3.5572    1.0382 C   0  0  0  0  0  0  0  0  0  0  0  0
    5.3635   -2.7688    0.6676 C   0  0  0  0  0  0  0  0  0  0  0  0
    5.8115   -3.2062   -0.6162 C   0  0  0  0  0  0  0  0  0  0  0  0
    5.0247   -4.2518   -1.0060 C   0  0  0  0  0  0  0  0  0  0  0  0
    4.1230   -4.4592    0.0083 N   0  0  0  0  0  0  0  0  0  0  0  0
    2.2196   -5.5738    1.6775 O   0  0  0  0  0  0  0  0  0  0  0  0
    1.2293   -6.2891    2.2852 C   0  0  0  0  0  0  0  0  0  0  0  0
    0.6245   -7.4518    1.7808 C   0  0  0  0  0  0  0  0  0  0  0  0
   -0.3974   -8.0600    2.5428 C   0  0  0  0  0  0  0  0  0  0  0  0
   -0.9886   -9.1997    2.0799 O   0  0  0  0  0  0  0  0  0  0  0  0
   -0.8010   -7.4971    3.7822 C   0  0  0  0  0  0  0  0  0  0  0  0
   -0.1812   -6.3287    4.2885 C   0  0  0  0  0  0  0  0  0  0  0  0
   -0.5815   -5.8216    5.4910 O   0  0  0  0  0  0  0  0  0  0  0  0
    0.8406   -5.7375    3.5099 C   0  0  0  0  0  0  0  0  0  0  0  0
    3.4108   -5.1737    0.0021 H   0  0  0  0  0  0  0  0  0  0  0  0
    3.6348   -2.8032    2.9128 H   0  0  0  0  0  0  0  0  0  0  0  0
    5.7788   -1.9625    1.2533 H   0  0  0  0  0  0  0  0  0  0  0  0
    6.6266   -2.7991   -1.1917 H   0  0  0  0  0  0  0  0  0  0  0  0
    5.0158   -4.8718   -1.8936 H   0  0  0  0  0  0  0  0  0  0  0  0
    0.9503   -7.8669    0.8337 H   0  0  0  0  0  0  0  0  0  0  0  0
   -0.6614   -9.4547    1.2259 H   0  0  0  0  0  0  0  0  0  0  0  0
   -1.5820   -7.9878    4.3465 H   0  0  0  0  0  0  0  0  0  0  0  0
  1  2  2  0
  2 18  1  0
  2  3  1  0
  3  4  2  3
  3 10  1  0
  4  5  1  0
  4 20  1  0
  5  9  1  0
  5  6  2  0
  6  7  1  0
  6 21  1  0
  7  8  2  0
  7 22  1  0
  8  9  1  0
  8 23  1  0
  9 19  1  0
 10 11  1  0
 11 18  2  0
 11 12  1  0
 12 13  2  0
 12 24  1  0
 13 14  1  0
 13 15  1  0
 14 25  1  0
 15 16  2  0
 15 26  1  0
 16 17  1  0
 16 18  1  0
M  CHG  1  17  -1
M  END
>  <i_m_ct_stereo_status>  (370) 
1

>  <s_m_source_file>  (370) 
/var/tmp/pbs.5076255.sched01/tmpm28zzdm2/1449lyhn0we.sdf

>  <i_m_source_file_index>  (370) 
19

>  <i_lp_mmshare_version>  (370) 
48012

>  <i_f3d_flags>  (370) 
0

>  <s_epik_input>  (370) 
W2NIXTFjKFtPSF0pW2NIXWMoW09IXSljKGMxMilDKD1PKS9DKE8yKT1bQ0hdL2MzW2NIXVtjSF1bY0hdW25IXTM=

>  <s_epik_cmdline>  (370) 
J2VwaWtfcHl0aG9uJywgJy1waHQnLCAnMi4wJywgJy1waCcsICc3LjAnLCAnLXRuJywgJzgnLCAnLW1hJywgJzIwMCcsICctaW1hZScsICc8aW5maWxlLm1hZT4nLCAnLW9tYWUnLCAnPG91dGZpbGUubWFlPic=

>  <r_epik_Ionization_Penalty>  (370) 
1.43403

>  <r_epik_Ionization_Penalty_Charging>  (370) 
1.42814

>  <r_epik_Ionization_Penalty_Neutral>  (370) 
0.00589214

>  <r_epik_State_Penalty>  (370) 
1.89628

>  <r_epik_Charging_Adjusted_Penalty>  (370) 
3.32442

>  <i_epik_Tot_Q>  (370) 
-1

>  <i_epik_Tot_abs_Q>  (370) 
1

>  <s_lp_Force_Field>  (370) 
OPLS3e

>  <r_lp_Energy>  (370) 
4.11648

>  <b_lp_Chiralities_Consistent>  (370) 
1

>  <s_lp_Variant>  (370) 
102:0-5

>  <s_i_glide_gridfile>  (370) 
pfpi4k_grid

>  <i_i_glide_lignum>  (370) 
19

>  <i_i_glide_rotatable_bonds>  (370) 
2

>  <r_i_docking_score>  (370) 
-4.47549

>  <r_i_glide_ligand_efficiency>  (370) 
-0.248639

>  <r_i_glide_ligand_efficiency_sa>  (370) 
-0.651617

>  <r_i_glide_ligand_efficiency_ln>  (370) 
-1.1504

>  <r_i_glide_gscore>  (370) 
-4.47549

>  <r_i_glide_lipo>  (370) 
-0.119402

>  <r_i_glide_hbond>  (370) 
-0.32

>  <r_i_glide_metal>  (370) 
-0

>  <r_i_glide_rewards>  (370) 
-2.25768

>  <r_i_glide_evdw>  (370) 
-17.4787

>  <r_i_glide_ecoul>  (370) 
-5.9499

>  <r_i_glide_erotb>  (370) 
0

>  <r_i_glide_esite>  (370) 
-0.0119927

>  <r_i_glide_emodel>  (370) 
-40.5557

>  <r_i_glide_energy>  (370) 
-23.4286

>  <r_i_glide_einternal>  (370) 
0.731121

>  <r_i_glide_intrahb_reward>  (370) 
-0.5

>  <i_i_glide_confnum>  (370) 
1

>  <i_i_glide_posenum>  (370) 
13

>  <r_i_glide_eff_state_penalty>  (370) 
0

>  <ligand_id>  (370) 
102

>  <original_smiles>  (370) 
O=C1C(=Cc2ccc[nH]2)Oc2cc(O)cc(O)c21

>  <smiles>  (370) 
[H]Oc1c([H])c([O-])c2c(c1[H])OC(=C([H])c1c([H])c([H])c([H])n1[H])C2=O

$$$$
102:4:2
     RDKit          3D

 26 28  0  0  1  0  0  0  0  0999 V2000
    2.2225   -3.9344    0.0486 O   0  0  0  0  0  0  0  0  0  0  0  0
    2.9429   -4.8426    0.4547 C   0  0  0  0  0  0  0  0  0  0  0  0
    4.4107   -4.8540    0.5221 C   0  0  0  0  0  0  0  0  0  0  0  0
    5.2286   -3.8471    0.1546 C   0  0  0  0  0  0  0  0  0  0  0  0
    6.6613   -3.8222    0.2341 C   0  0  0  0  0  0  0  0  0  0  0  0
    7.6101   -2.9733   -0.2608 C   0  0  0  0  0  0  0  0  0  0  0  0
    8.8897   -3.4800    0.1118 C   0  0  0  0  0  0  0  0  0  0  0  0
    8.7002   -4.6348    0.8202 C   0  0  0  0  0  0  0  0  0  0  0  0
    7.3424   -4.8318    0.8808 N   0  0  0  0  0  0  0  0  0  0  0  0
    4.8572   -6.0524    1.0185 O   0  0  0  0  0  0  0  0  0  0  0  0
    3.7566   -6.8172    1.2812 C   0  0  0  0  0  0  0  0  0  0  0  0
    3.7802   -8.1275    1.7867 C   0  0  0  0  0  0  0  0  0  0  0  0
    2.5488   -8.7772    1.9977 C   0  0  0  0  0  0  0  0  0  0  0  0
    2.5325  -10.0563    2.4705 O   0  0  0  0  0  0  0  0  0  0  0  0
    1.3297   -8.1205    1.7060 C   0  0  0  0  0  0  0  0  0  0  0  0
    1.3094   -6.8084    1.1776 C   0  0  0  0  0  0  0  0  0  0  0  0
    0.1030   -6.2630    0.8499 O   0  0  0  0  0  0  0  0  0  0  0  0
    2.5581   -6.1637    0.9777 C   0  0  0  0  0  0  0  0  0  0  0  0
    6.8900   -5.6124    1.3326 H   0  0  0  0  0  0  0  0  0  0  0  0
    4.7770   -2.9388   -0.2191 H   0  0  0  0  0  0  0  0  0  0  0  0
    7.4105   -2.0842   -0.8353 H   0  0  0  0  0  0  0  0  0  0  0  0
    9.8406   -3.0339   -0.1258 H   0  0  0  0  0  0  0  0  0  0  0  0
    9.3844   -5.3344    1.2847 H   0  0  0  0  0  0  0  0  0  0  0  0
    4.7202   -8.6108    2.0089 H   0  0  0  0  0  0  0  0  0  0  0  0
    3.3420  -10.5257    2.3272 H   0  0  0  0  0  0  0  0  0  0  0  0
    0.3951   -8.6470    1.8476 H   0  0  0  0  0  0  0  0  0  0  0  0
  1  2  2  0
  2 18  1  0
  2  3  1  0
  3  4  2  3
  3 10  1  0
  4  5  1  0
  4 20  1  0
  5  9  1  0
  5  6  2  0
  6  7  1  0
  6 21  1  0
  7  8  2  0
  7 22  1  0
  8  9  1  0
  8 23  1  0
  9 19  1  0
 10 11  1  0
 11 18  2  0
 11 12  1  0
 12 13  2  0
 12 24  1  0
 13 14  1  0
 13 15  1  0
 14 25  1  0
 15 16  2  0
 15 26  1  0
 16 17  1  0
 16 18  1  0
M  CHG  1  17  -1
M  END
>  <i_m_ct_stereo_status>  (371) 
1

>  <s_m_source_file>  (371) 
/var/tmp/pbs.5076255.sched01/tmpm28zzdm2/1449lyhn0we.sdf

>  <i_m_source_file_index>  (371) 
19

>  <i_lp_mmshare_version>  (371) 
48012

>  <i_f3d_flags>  (371) 
0

>  <s_epik_input>  (371) 
W2NIXTFjKFtPSF0pW2NIXWMoW09IXSljKGMxMilDKD1PKS9DKE8yKT1bQ0hdL2MzW2NIXVtjSF1bY0hdW25IXTM=

>  <s_epik_cmdline>  (371) 
J2VwaWtfcHl0aG9uJywgJy1waHQnLCAnMi4wJywgJy1waCcsICc3LjAnLCAnLXRuJywgJzgnLCAnLW1hJywgJzIwMCcsICctaW1hZScsICc8aW5maWxlLm1hZT4nLCAnLW9tYWUnLCAnPG91dGZpbGUubWFlPic=

>  <r_epik_Ionization_Penalty>  (371) 
1.43403

>  <r_epik_Ionization_Penalty_Charging>  (371) 
1.42814

>  <r_epik_Ionization_Penalty_Neutral>  (371) 
0.00589214

>  <r_epik_State_Penalty>  (371) 
1.89628

>  <r_epik_Charging_Adjusted_Penalty>  (371) 
3.32442

>  <i_epik_Tot_Q>  (371) 
-1

>  <i_epik_Tot_abs_Q>  (371) 
1

>  <s_lp_Force_Field>  (371) 
OPLS3e

>  <r_lp_Energy>  (371) 
4.11648

>  <b_lp_Chiralities_Consistent>  (371) 
1

>  <s_lp_Variant>  (371) 
102:0-5

>  <s_i_glide_gridfile>  (371) 
pfpi4k_grid

>  <i_i_glide_lignum>  (371) 
19

>  <i_i_glide_rotatable_bonds>  (371) 
2

>  <r_i_docking_score>  (371) 
-4.23695

>  <r_i_glide_ligand_efficiency>  (371) 
-0.235386

>  <r_i_glide_ligand_efficiency_sa>  (371) 
-0.616886

>  <r_i_glide_ligand_efficiency_ln>  (371) 
-1.08909

>  <r_i_glide_gscore>  (371) 
-4.23695

>  <r_i_glide_lipo>  (371) 
-0.461982

>  <r_i_glide_hbond>  (371) 
-0.2

>  <r_i_glide_metal>  (371) 
-0

>  <r_i_glide_rewards>  (371) 
-2.25768

>  <r_i_glide_evdw>  (371) 
-18.269

>  <r_i_glide_ecoul>  (371) 
-2.51914

>  <r_i_glide_erotb>  (371) 
0

>  <r_i_glide_esite>  (371) 
-0.0259623

>  <r_i_glide_emodel>  (371) 
-36.7853

>  <r_i_glide_energy>  (371) 
-20.7882

>  <r_i_glide_einternal>  (371) 
1.35762

>  <r_i_glide_intrahb_reward>  (371) 
-0.5

>  <i_i_glide_confnum>  (371) 
1

>  <i_i_glide_posenum>  (371) 
23

>  <r_i_glide_eff_state_penalty>  (371) 
0

>  <ligand_id>  (371) 
102

>  <original_smiles>  (371) 
O=C1C(=Cc2ccc[nH]2)Oc2cc(O)cc(O)c21

>  <smiles>  (371) 
[H]Oc1c([H])c([O-])c2c(c1[H])OC(=C([H])c1c([H])c([H])c([H])n1[H])C2=O

$$$$
102:5:0
     RDKit          3D

 26 28  0  0  1  0  0  0  0  0999 V2000
   -0.9390   -2.1270    5.8663 O   0  0  0  0  0  0  0  0  0  0  0  0
   -0.4777   -1.4516    4.9518 C   0  0  0  0  0  0  0  0  0  0  0  0
    0.4301   -1.8444    3.8425 C   0  0  0  0  0  0  0  0  0  0  0  0
    1.0142   -3.0402    3.5899 C   0  0  0  0  0  0  0  0  0  0  0  0
    1.0085   -4.3169    4.2520 C   0  0  0  0  0  0  0  0  0  0  0  0
    0.3993   -4.8236    5.3761 C   0  0  0  0  0  0  0  0  0  0  0  0
    0.7945   -6.1798    5.5330 C   0  0  0  0  0  0  0  0  0  0  0  0
    1.6408   -6.5004    4.5100 C   0  0  0  0  0  0  0  0  0  0  0  0
    1.7600   -5.3615    3.7344 N   0  0  0  0  0  0  0  0  0  0  0  0
    0.6342   -0.7608    3.0188 O   0  0  0  0  0  0  0  0  0  0  0  0
   -0.0703    0.2929    3.5393 C   0  0  0  0  0  0  0  0  0  0  0  0
   -0.1364    1.5975    3.0197 C   0  0  0  0  0  0  0  0  0  0  0  0
   -0.9236    2.5398    3.7304 C   0  0  0  0  0  0  0  0  0  0  0  0
   -0.9925    3.8274    3.2774 O   0  0  0  0  0  0  0  0  0  0  0  0
   -1.6224    2.1821    4.9057 C   0  0  0  0  0  0  0  0  0  0  0  0
   -1.5339    0.8742    5.4304 C   0  0  0  0  0  0  0  0  0  0  0  0
   -2.1692    0.5500    6.5991 O   0  0  0  0  0  0  0  0  0  0  0  0
   -0.7505   -0.0504    4.7001 C   0  0  0  0  0  0  0  0  0  0  0  0
    2.3496   -5.2995    2.9105 H   0  0  0  0  0  0  0  0  0  0  0  0
    1.6217   -3.0360    2.6923 H   0  0  0  0  0  0  0  0  0  0  0  0
   -0.2653   -4.3165    6.0548 H   0  0  0  0  0  0  0  0  0  0  0  0
    0.4810   -6.8326    6.3330 H   0  0  0  0  0  0  0  0  0  0  0  0
    2.1604   -7.4218    4.2869 H   0  0  0  0  0  0  0  0  0  0  0  0
    0.3994    1.8625    2.1218 H   0  0  0  0  0  0  0  0  0  0  0  0
   -0.5905    3.9421    2.4144 H   0  0  0  0  0  0  0  0  0  0  0  0
   -2.2258    2.8996    5.4440 H   0  0  0  0  0  0  0  0  0  0  0  0
  1  2  2  0
  2 18  1  0
  2  3  1  0
  3  4  2  3
  3 10  1  0
  4  5  1  0
  4 20  1  0
  5  9  1  0
  5  6  2  0
  6  7  1  0
  6 21  1  0
  7  8  2  0
  7 22  1  0
  8  9  1  0
  8 23  1  0
  9 19  1  0
 10 11  1  0
 11 18  2  0
 11 12  1  0
 12 13  2  0
 12 24  1  0
 13 14  1  0
 13 15  1  0
 14 25  1  0
 15 16  2  0
 15 26  1  0
 16 17  1  0
 16 18  1  0
M  CHG  1  17  -1
M  END
>  <i_m_ct_stereo_status>  (372) 
1

>  <s_m_source_file>  (372) 
/var/tmp/pbs.5076255.sched01/tmpm28zzdm2/1449lyhn0we.sdf

>  <i_m_source_file_index>  (372) 
20

>  <i_lp_mmshare_version>  (372) 
48012

>  <i_f3d_flags>  (372) 
0

>  <s_epik_input>  (372) 
W2NIXTFjKFtPSF0pW2NIXWMoW09IXSljKGMxMilDKD1PKS9DKE8yKT1bQ0hdL2MzW2NIXVtjSF1bY0hdW25IXTM=

>  <s_epik_cmdline>  (372) 
J2VwaWtfcHl0aG9uJywgJy1waHQnLCAnMi4wJywgJy1waCcsICc3LjAnLCAnLXRuJywgJzgnLCAnLW1hJywgJzIwMCcsICctaW1hZScsICc8aW5maWxlLm1hZT4nLCAnLW9tYWUnLCAnPG91dGZpbGUubWFlPic=

>  <r_epik_Ionization_Penalty>  (372) 
1.43403

>  <r_epik_Ionization_Penalty_Charging>  (372) 
1.42814

>  <r_epik_Ionization_Penalty_Neutral>  (372) 
0.00589214

>  <r_epik_State_Penalty>  (372) 
1.89628

>  <r_epik_Charging_Adjusted_Penalty>  (372) 
3.32442

>  <i_epik_Tot_Q>  (372) 
-1

>  <i_epik_Tot_abs_Q>  (372) 
1

>  <s_lp_Force_Field>  (372) 
OPLS3e

>  <r_lp_Energy>  (372) 
7.87952

>  <b_lp_Chiralities_Consistent>  (372) 
1

>  <s_lp_Variant>  (372) 
102:0-6

>  <s_i_glide_gridfile>  (372) 
pfpi4k_grid

>  <i_i_glide_lignum>  (372) 
20

>  <i_i_glide_rotatable_bonds>  (372) 
2

>  <r_i_docking_score>  (372) 
-4.21507

>  <r_i_glide_ligand_efficiency>  (372) 
-0.234171

>  <r_i_glide_ligand_efficiency_sa>  (372) 
-0.613701

>  <r_i_glide_ligand_efficiency_ln>  (372) 
-1.08346

>  <r_i_glide_gscore>  (372) 
-4.21507

>  <r_i_glide_lipo>  (372) 
-0.0551201

>  <r_i_glide_hbond>  (372) 
-0.36

>  <r_i_glide_metal>  (372) 
-0

>  <r_i_glide_rewards>  (372) 
-1.75768

>  <r_i_glide_evdw>  (372) 
-16.1288

>  <r_i_glide_ecoul>  (372) 
-8.04227

>  <r_i_glide_erotb>  (372) 
0

>  <r_i_glide_esite>  (372) 
-0.0294923

>  <r_i_glide_emodel>  (372) 
-35.5154

>  <r_i_glide_energy>  (372) 
-24.1711

>  <r_i_glide_einternal>  (372) 
0.0431734

>  <r_i_glide_intrahb_reward>  (372) 
-0

>  <i_i_glide_confnum>  (372) 
1

>  <i_i_glide_posenum>  (372) 
6

>  <r_i_glide_eff_state_penalty>  (372) 
0

>  <ligand_id>  (372) 
102

>  <original_smiles>  (372) 
O=C1C(=Cc2ccc[nH]2)Oc2cc(O)cc(O)c21

>  <smiles>  (372) 
[H]Oc1c([H])c([O-])c2c(c1[H])OC(=C([H])c1c([H])c([H])c([H])n1[H])C2=O

$$$$
102:5:1
     RDKit          3D

 26 28  0  0  1  0  0  0  0  0999 V2000
    1.7613   -4.0030    4.5227 O   0  0  0  0  0  0  0  0  0  0  0  0
    1.6962   -4.7300    3.5396 C   0  0  0  0  0  0  0  0  0  0  0  0
    2.4560   -4.6828    2.2632 C   0  0  0  0  0  0  0  0  0  0  0  0
    3.4157   -3.8170    1.8711 C   0  0  0  0  0  0  0  0  0  0  0  0
    4.0372   -2.6701    2.4746 C   0  0  0  0  0  0  0  0  0  0  0  0
    3.9060   -2.0024    3.6737 C   0  0  0  0  0  0  0  0  0  0  0  0
    4.8049   -0.9072    3.6901 C   0  0  0  0  0  0  0  0  0  0  0  0
    5.4874   -0.9013    2.5032 C   0  0  0  0  0  0  0  0  0  0  0  0
    5.0118   -1.9762    1.7788 N   0  0  0  0  0  0  0  0  0  0  0  0
    2.0218   -5.6973    1.4407 O   0  0  0  0  0  0  0  0  0  0  0  0
    1.0377   -6.3743    2.1136 C   0  0  0  0  0  0  0  0  0  0  0  0
    0.3078   -7.4657    1.6387 C   0  0  0  0  0  0  0  0  0  0  0  0
   -0.6750   -8.0271    2.4950 C   0  0  0  0  0  0  0  0  0  0  0  0
   -1.3785   -9.1141    2.0772 O   0  0  0  0  0  0  0  0  0  0  0  0
   -0.9324   -7.4809    3.7761 C   0  0  0  0  0  0  0  0  0  0  0  0
   -0.2006   -6.3690    4.2483 C   0  0  0  0  0  0  0  0  0  0  0  0
   -0.4639   -5.8367    5.4804 O   0  0  0  0  0  0  0  0  0  0  0  0
    0.7950   -5.8500    3.3720 C   0  0  0  0  0  0  0  0  0  0  0  0
    5.3330   -2.2121    0.8442 H   0  0  0  0  0  0  0  0  0  0  0  0
    3.8000   -4.0235    0.8819 H   0  0  0  0  0  0  0  0  0  0  0  0
    3.2435   -2.2329    4.4894 H   0  0  0  0  0  0  0  0  0  0  0  0
    4.9237   -0.2059    4.5014 H   0  0  0  0  0  0  0  0  0  0  0  0
    6.2530   -0.2429    2.1327 H   0  0  0  0  0  0  0  0  0  0  0  0
    0.5143   -7.8517    0.6555 H   0  0  0  0  0  0  0  0  0  0  0  0
   -1.0418   -9.4594    1.2646 H   0  0  0  0  0  0  0  0  0  0  0  0
   -1.6850   -7.9167    4.4234 H   0  0  0  0  0  0  0  0  0  0  0  0
  1  2  2  0
  2 18  1  0
  2  3  1  0
  3  4  2  3
  3 10  1  0
  4  5  1  0
  4 20  1  0
  5  9  1  0
  5  6  2  0
  6  7  1  0
  6 21  1  0
  7  8  2  0
  7 22  1  0
  8  9  1  0
  8 23  1  0
  9 19  1  0
 10 11  1  0
 11 18  2  0
 11 12  1  0
 12 13  2  0
 12 24  1  0
 13 14  1  0
 13 15  1  0
 14 25  1  0
 15 16  2  0
 15 26  1  0
 16 17  1  0
 16 18  1  0
M  CHG  1  17  -1
M  END
>  <i_m_ct_stereo_status>  (373) 
1

>  <s_m_source_file>  (373) 
/var/tmp/pbs.5076255.sched01/tmpm28zzdm2/1449lyhn0we.sdf

>  <i_m_source_file_index>  (373) 
20

>  <i_lp_mmshare_version>  (373) 
48012

>  <i_f3d_flags>  (373) 
0

>  <s_epik_input>  (373) 
W2NIXTFjKFtPSF0pW2NIXWMoW09IXSljKGMxMilDKD1PKS9DKE8yKT1bQ0hdL2MzW2NIXVtjSF1bY0hdW25IXTM=

>  <s_epik_cmdline>  (373) 
J2VwaWtfcHl0aG9uJywgJy1waHQnLCAnMi4wJywgJy1waCcsICc3LjAnLCAnLXRuJywgJzgnLCAnLW1hJywgJzIwMCcsICctaW1hZScsICc8aW5maWxlLm1hZT4nLCAnLW9tYWUnLCAnPG91dGZpbGUubWFlPic=

>  <r_epik_Ionization_Penalty>  (373) 
1.43403

>  <r_epik_Ionization_Penalty_Charging>  (373) 
1.42814

>  <r_epik_Ionization_Penalty_Neutral>  (373) 
0.00589214

>  <r_epik_State_Penalty>  (373) 
1.89628

>  <r_epik_Charging_Adjusted_Penalty>  (373) 
3.32442

>  <i_epik_Tot_Q>  (373) 
-1

>  <i_epik_Tot_abs_Q>  (373) 
1

>  <s_lp_Force_Field>  (373) 
OPLS3e

>  <r_lp_Energy>  (373) 
7.87952

>  <b_lp_Chiralities_Consistent>  (373) 
1

>  <s_lp_Variant>  (373) 
102:0-6

>  <s_i_glide_gridfile>  (373) 
pfpi4k_grid

>  <i_i_glide_lignum>  (373) 
20

>  <i_i_glide_rotatable_bonds>  (373) 
2

>  <r_i_docking_score>  (373) 
-3.74089

>  <r_i_glide_ligand_efficiency>  (373) 
-0.207827

>  <r_i_glide_ligand_efficiency_sa>  (373) 
-0.544661

>  <r_i_glide_ligand_efficiency_ln>  (373) 
-0.961576

>  <r_i_glide_gscore>  (373) 
-3.74089

>  <r_i_glide_lipo>  (373) 
-0.178504

>  <r_i_glide_hbond>  (373) 
-0.32

>  <r_i_glide_metal>  (373) 
-0

>  <r_i_glide_rewards>  (373) 
-1.75768

>  <r_i_glide_evdw>  (373) 
-17.5014

>  <r_i_glide_ecoul>  (373) 
-4.02067

>  <r_i_glide_erotb>  (373) 
0

>  <r_i_glide_esite>  (373) 
-0.00653163

>  <r_i_glide_emodel>  (373) 
-31.5473

>  <r_i_glide_energy>  (373) 
-21.5221

>  <r_i_glide_einternal>  (373) 
0.077167

>  <r_i_glide_intrahb_reward>  (373) 
-0

>  <i_i_glide_confnum>  (373) 
1

>  <i_i_glide_posenum>  (373) 
20

>  <r_i_glide_eff_state_penalty>  (373) 
0

>  <ligand_id>  (373) 
102

>  <original_smiles>  (373) 
O=C1C(=Cc2ccc[nH]2)Oc2cc(O)cc(O)c21

>  <smiles>  (373) 
[H]Oc1c([H])c([O-])c2c(c1[H])OC(=C([H])c1c([H])c([H])c([H])n1[H])C2=O

$$$$
102:5:2
     RDKit          3D

 26 28  0  0  1  0  0  0  0  0999 V2000
    2.9718    0.4669    1.8165 O   0  0  0  0  0  0  0  0  0  0  0  0
    2.1867   -0.2833    2.3938 C   0  0  0  0  0  0  0  0  0  0  0  0
    1.9693   -1.7397    2.2035 C   0  0  0  0  0  0  0  0  0  0  0  0
    2.5702   -2.5907    1.3366 C   0  0  0  0  0  0  0  0  0  0  0  0
    3.5486   -2.4167    0.2991 C   0  0  0  0  0  0  0  0  0  0  0  0
    4.3058   -3.2835   -0.4421 C   0  0  0  0  0  0  0  0  0  0  0  0
    5.1506   -2.5106   -1.3087 C   0  0  0  0  0  0  0  0  0  0  0  0
    4.8882   -1.1901   -1.0755 C   0  0  0  0  0  0  0  0  0  0  0  0
    3.9193   -1.1570   -0.1037 N   0  0  0  0  0  0  0  0  0  0  0  0
    1.0198   -2.1763    3.0917 O   0  0  0  0  0  0  0  0  0  0  0  0
    0.6063   -1.1025    3.8284 C   0  0  0  0  0  0  0  0  0  0  0  0
   -0.3643   -1.1074    4.8435 C   0  0  0  0  0  0  0  0  0  0  0  0
   -0.6572    0.1169    5.4823 C   0  0  0  0  0  0  0  0  0  0  0  0
   -1.6051    0.1659    6.4609 O   0  0  0  0  0  0  0  0  0  0  0  0
    0.0303    1.3079    5.1326 C   0  0  0  0  0  0  0  0  0  0  0  0
    1.0068    1.2961    4.1150 C   0  0  0  0  0  0  0  0  0  0  0  0
    1.6687    2.4512    3.8020 O   0  0  0  0  0  0  0  0  0  0  0  0
    1.2669    0.0697    3.4719 C   0  0  0  0  0  0  0  0  0  0  0  0
    3.5279   -0.3174    0.3190 H   0  0  0  0  0  0  0  0  0  0  0  0
    2.2294   -3.6128    1.4030 H   0  0  0  0  0  0  0  0  0  0  0  0
    4.2706   -4.3653   -0.3704 H   0  0  0  0  0  0  0  0  0  0  0  0
    5.8784   -2.8764   -2.0205 H   0  0  0  0  0  0  0  0  0  0  0  0
    5.2823   -0.2680   -1.4791 H   0  0  0  0  0  0  0  0  0  0  0  0
   -0.8759   -2.0173    5.1082 H   0  0  0  0  0  0  0  0  0  0  0  0
   -1.6935    1.0543    6.7732 H   0  0  0  0  0  0  0  0  0  0  0  0
   -0.1821    2.2422    5.6305 H   0  0  0  0  0  0  0  0  0  0  0  0
  1  2  2  0
  2 18  1  0
  2  3  1  0
  3  4  2  3
  3 10  1  0
  4  5  1  0
  4 20  1  0
  5  9  1  0
  5  6  2  0
  6  7  1  0
  6 21  1  0
  7  8  2  0
  7 22  1  0
  8  9  1  0
  8 23  1  0
  9 19  1  0
 10 11  1  0
 11 18  2  0
 11 12  1  0
 12 13  2  0
 12 24  1  0
 13 14  1  0
 13 15  1  0
 14 25  1  0
 15 16  2  0
 15 26  1  0
 16 17  1  0
 16 18  1  0
M  CHG  1  17  -1
M  END
>  <i_m_ct_stereo_status>  (374) 
1

>  <s_m_source_file>  (374) 
/var/tmp/pbs.5076255.sched01/tmpm28zzdm2/1449lyhn0we.sdf

>  <i_m_source_file_index>  (374) 
20

>  <i_lp_mmshare_version>  (374) 
48012

>  <i_f3d_flags>  (374) 
0

>  <s_epik_input>  (374) 
W2NIXTFjKFtPSF0pW2NIXWMoW09IXSljKGMxMilDKD1PKS9DKE8yKT1bQ0hdL2MzW2NIXVtjSF1bY0hdW25IXTM=

>  <s_epik_cmdline>  (374) 
J2VwaWtfcHl0aG9uJywgJy1waHQnLCAnMi4wJywgJy1waCcsICc3LjAnLCAnLXRuJywgJzgnLCAnLW1hJywgJzIwMCcsICctaW1hZScsICc8aW5maWxlLm1hZT4nLCAnLW9tYWUnLCAnPG91dGZpbGUubWFlPic=

>  <r_epik_Ionization_Penalty>  (374) 
1.43403

>  <r_epik_Ionization_Penalty_Charging>  (374) 
1.42814

>  <r_epik_Ionization_Penalty_Neutral>  (374) 
0.00589214

>  <r_epik_State_Penalty>  (374) 
1.89628

>  <r_epik_Charging_Adjusted_Penalty>  (374) 
3.32442

>  <i_epik_Tot_Q>  (374) 
-1

>  <i_epik_Tot_abs_Q>  (374) 
1

>  <s_lp_Force_Field>  (374) 
OPLS3e

>  <r_lp_Energy>  (374) 
7.87952

>  <b_lp_Chiralities_Consistent>  (374) 
1

>  <s_lp_Variant>  (374) 
102:0-6

>  <s_i_glide_gridfile>  (374) 
pfpi4k_grid

>  <i_i_glide_lignum>  (374) 
20

>  <i_i_glide_rotatable_bonds>  (374) 
2

>  <r_i_docking_score>  (374) 
-3.47707

>  <r_i_glide_ligand_efficiency>  (374) 
-0.193171

>  <r_i_glide_ligand_efficiency_sa>  (374) 
-0.50625

>  <r_i_glide_ligand_efficiency_ln>  (374) 
-0.893763

>  <r_i_glide_gscore>  (374) 
-3.47707

>  <r_i_glide_lipo>  (374) 
-0.0381224

>  <r_i_glide_hbond>  (374) 
-0.16

>  <r_i_glide_metal>  (374) 
-0

>  <r_i_glide_rewards>  (374) 
-2.25768

>  <r_i_glide_evdw>  (374) 
-17.8036

>  <r_i_glide_ecoul>  (374) 
-0.432879

>  <r_i_glide_erotb>  (374) 
0

>  <r_i_glide_esite>  (374) 
-0.0661552

>  <r_i_glide_emodel>  (374) 
-32.0429

>  <r_i_glide_energy>  (374) 
-18.2365

>  <r_i_glide_einternal>  (374) 
0.827289

>  <r_i_glide_intrahb_reward>  (374) 
-0.5

>  <i_i_glide_confnum>  (374) 
2

>  <i_i_glide_posenum>  (374) 
40

>  <r_i_glide_eff_state_penalty>  (374) 
0

>  <ligand_id>  (374) 
102

>  <original_smiles>  (374) 
O=C1C(=Cc2ccc[nH]2)Oc2cc(O)cc(O)c21

>  <smiles>  (374) 
[H]Oc1c([H])c([O-])c2c(c1[H])OC(=C([H])c1c([H])c([H])c([H])n1[H])C2=O

$$$$
103:0:0
     RDKit          3D

 33 35  0  0  1  0  0  0  0  0999 V2000
    4.1755   -2.3012   -3.3759 C   0  0  0  0  0  0  0  0  0  0  0  0
    4.2128   -3.1215   -2.0773 C   0  0  2  0  0  0  0  0  0  0  0  0
    2.8176   -3.1808   -1.4264 C   0  0  0  0  0  0  0  0  0  0  0  0
    2.8262   -3.5098    0.0792 C   0  0  0  0  0  0  0  0  0  0  0  0
    4.0232   -2.8906    0.8306 C   0  0  2  0  0  0  0  0  0  0  0  0
    3.8729   -3.1416    2.3486 C   0  0  0  0  0  0  0  0  0  0  0  0
    4.1104   -1.3643    0.4937 C   0  0  0  0  0  0  0  0  0  0  0  0
    5.3410   -1.3006   -0.4414 C   0  0  1  0  0  0  0  0  0  0  0  0
    6.5378   -1.4614    0.4703 C   0  0  0  0  0  0  0  0  0  0  0  0
    6.5352   -2.7249    0.8945 C   0  0  0  0  0  0  0  0  0  0  0  0
    5.3655   -3.4350    0.2366 C   0  0  1  0  0  0  0  0  0  0  0  0
    5.5510   -4.9610    0.1813 C   0  0  0  0  0  0  0  0  0  0  0  0
    5.3560   -2.6954   -1.1144 C   0  0  1  0  0  0  0  0  0  0  0  0
    3.9144   -1.2589   -3.1829 H   0  0  0  0  0  0  0  0  0  0  0  0
    3.4296   -2.7071   -4.0615 H   0  0  0  0  0  0  0  0  0  0  0  0
    5.1370   -2.3201   -3.8842 H   0  0  0  0  0  0  0  0  0  0  0  0
    4.4459   -4.1445   -2.3742 H   0  0  0  0  0  0  0  0  0  0  0  0
    2.3215   -2.2316   -1.5893 H   0  0  0  0  0  0  0  0  0  0  0  0
    2.1898   -3.8982   -1.9544 H   0  0  0  0  0  0  0  0  0  0  0  0
    1.9030   -3.1357    0.5157 H   0  0  0  0  0  0  0  0  0  0  0  0
    2.8053   -4.5901    0.2210 H   0  0  0  0  0  0  0  0  0  0  0  0
    4.6903   -2.6982    2.9215 H   0  0  0  0  0  0  0  0  0  0  0  0
    3.8524   -4.2091    2.5772 H   0  0  0  0  0  0  0  0  0  0  0  0
    2.9446   -2.7079    2.7252 H   0  0  0  0  0  0  0  0  0  0  0  0
    3.2063   -0.9736    0.0241 H   0  0  0  0  0  0  0  0  0  0  0  0
    4.2755   -0.7590    1.3880 H   0  0  0  0  0  0  0  0  0  0  0  0
    5.3981   -0.4387   -1.1066 H   0  0  0  0  0  0  0  0  0  0  0  0
    7.2202   -0.6744    0.7564 H   0  0  0  0  0  0  0  0  0  0  0  0
    7.2265   -3.1931    1.5767 H   0  0  0  0  0  0  0  0  0  0  0  0
    4.7881   -5.4499   -0.4265 H   0  0  0  0  0  0  0  0  0  0  0  0
    5.5131   -5.4034    1.1774 H   0  0  0  0  0  0  0  0  0  0  0  0
    6.5159   -5.2113   -0.2535 H   0  0  0  0  0  0  0  0  0  0  0  0
    6.2997   -2.8467   -1.6440 H   0  0  0  0  0  0  0  0  0  0  0  0
  1  2  1  0
  1 14  1  0
  1 15  1  0
  1 16  1  0
  2 13  1  0
  2  3  1  0
  2 17  1  6
  3  4  1  0
  3 18  1  0
  3 19  1  0
  4  5  1  0
  4 20  1  0
  4 21  1  0
  5 11  1  0
  5  6  1  1
  5  7  1  0
  6 22  1  0
  6 23  1  0
  6 24  1  0
  7  8  1  0
  7 25  1  0
  7 26  1  0
  8 13  1  0
  8  9  1  0
  8 27  1  6
  9 10  2  0
  9 28  1  0
 10 11  1  0
 10 29  1  0
 11 12  1  6
 11 13  1  0
 12 30  1  0
 12 31  1  0
 12 32  1  0
 13 33  1  6
M  END
>  <i_m_ct_stereo_status>  (375) 
1

>  <s_m_source_file>  (375) 
/var/tmp/pbs.5076255.sched01/tmpm28zzdm2/1449lyhn0we.sdf

>  <i_m_source_file_index>  (375) 
21

>  <i_lp_mmshare_version>  (375) 
48012

>  <i_f3d_flags>  (375) 
0

>  <s_epik_input>  (375) 
W0NIMl0xW0NIMl1bQ0BASF0oW0NIM10pW0NAQEhdKFtDQEBIXShbQ0gyXTIpW0NIXT1bQ0hdMylbQ0BdMyhbQ0gzXSlbQ0BdMTJbQ0gzXQ==

>  <s_epik_cmdline>  (375) 
J2VwaWtfcHl0aG9uJywgJy1waHQnLCAnMi4wJywgJy1waCcsICc3LjAnLCAnLXRuJywgJzgnLCAnLW1hJywgJzIwMCcsICctaW1hZScsICc8aW5maWxlLm1hZT4nLCAnLW9tYWUnLCAnPG91dGZpbGUubWFlPic=

>  <r_lp_tautomer_probability>  (375) 
1

>  <r_epik_Ionization_Penalty>  (375) 
0

>  <r_epik_Ionization_Penalty_Charging>  (375) 
0

>  <r_epik_Ionization_Penalty_Neutral>  (375) 
0

>  <r_epik_State_Penalty>  (375) 
-0

>  <r_epik_Charging_Adjusted_Penalty>  (375) 
0

>  <i_epik_Tot_Q>  (375) 
0

>  <i_epik_Tot_abs_Q>  (375) 
0

>  <s_lp_Force_Field>  (375) 
OPLS3e

>  <r_lp_Energy>  (375) 
41.6455

>  <b_lp_Chiralities_Consistent>  (375) 
1

>  <s_lp_Variant>  (375) 
103:0-1

>  <s_i_glide_gridfile>  (375) 
pfpi4k_grid

>  <i_i_glide_lignum>  (375) 
21

>  <i_i_glide_rotatable_bonds>  (375) 
0

>  <r_i_docking_score>  (375) 
-3.61909

>  <r_i_glide_ligand_efficiency>  (375) 
-0.278391

>  <r_i_glide_ligand_efficiency_sa>  (375) 
-0.654591

>  <r_i_glide_ligand_efficiency_ln>  (375) 
-1.01519

>  <r_i_glide_gscore>  (375) 
-3.61909

>  <r_i_glide_lipo>  (375) 
-0.438464

>  <r_i_glide_hbond>  (375) 
0

>  <r_i_glide_metal>  (375) 
-0

>  <r_i_glide_rewards>  (375) 
-2.20706

>  <r_i_glide_evdw>  (375) 
-17.2836

>  <r_i_glide_ecoul>  (375) 
-0.72922

>  <r_i_glide_erotb>  (375) 
0

>  <r_i_glide_esite>  (375) 
0

>  <r_i_glide_emodel>  (375) 
-22.4078

>  <r_i_glide_energy>  (375) 
-18.0128

>  <r_i_glide_einternal>  (375) 
0

>  <r_i_glide_intrahb_reward>  (375) 
-0

>  <i_i_glide_confnum>  (375) 
1

>  <i_i_glide_posenum>  (375) 
5

>  <r_i_glide_eff_state_penalty>  (375) 
0

>  <ligand_id>  (375) 
103

>  <original_smiles>  (375) 
CC1CCC2(C)CC3C=CC2(C)C13

>  <smiles>  (375) 
[H]C1=C([H])C2(C([H])([H])[H])C3([H])C1([H])C([H])([H])C2(C([H])([H])[H])C([H])([H])C([H])([H])C3([H])C([H])([H])[H]

$$$$
103:0:1
     RDKit          3D

 33 35  0  0  1  0  0  0  0  0999 V2000
    3.6501   -0.9784   -2.8869 C   0  0  0  0  0  0  0  0  0  0  0  0
    4.1967   -2.1073   -2.0011 C   0  0  2  0  0  0  0  0  0  0  0  0
    3.0951   -3.1376   -1.6714 C   0  0  0  0  0  0  0  0  0  0  0  0
    3.3793   -4.0036   -0.4287 C   0  0  0  0  0  0  0  0  0  0  0  0
    4.0998   -3.2324    0.6972 C   0  0  2  0  0  0  0  0  0  0  0  0
    4.2092   -4.1289    1.9508 C   0  0  0  0  0  0  0  0  0  0  0  0
    3.3256   -1.9042    0.9877 C   0  0  0  0  0  0  0  0  0  0  0  0
    4.2609   -0.8343    0.3757 C   0  0  1  0  0  0  0  0  0  0  0  0
    5.4088   -0.7101    1.3505 C   0  0  0  0  0  0  0  0  0  0  0  0
    6.1197   -1.8329    1.2573 C   0  0  0  0  0  0  0  0  0  0  0  0
    5.4817   -2.6974    0.1856 C   0  0  1  0  0  0  0  0  0  0  0  0
    6.4680   -3.7142   -0.4078 C   0  0  0  0  0  0  0  0  0  0  0  0
    4.9843   -1.5923   -0.7623 C   0  0  1  0  0  0  0  0  0  0  0  0
    2.8650   -0.4267   -2.3685 H   0  0  0  0  0  0  0  0  0  0  0  0
    3.2080   -1.3790   -3.7998 H   0  0  0  0  0  0  0  0  0  0  0  0
    4.4283   -0.2682   -3.1712 H   0  0  0  0  0  0  0  0  0  0  0  0
    4.9261   -2.6394   -2.6146 H   0  0  0  0  0  0  0  0  0  0  0  0
    2.1451   -2.6296   -1.5317 H   0  0  0  0  0  0  0  0  0  0  0  0
    2.9314   -3.7836   -2.5335 H   0  0  0  0  0  0  0  0  0  0  0  0
    2.4338   -4.4015   -0.0649 H   0  0  0  0  0  0  0  0  0  0  0  0
    3.9636   -4.8749   -0.7241 H   0  0  0  0  0  0  0  0  0  0  0  0
    4.6894   -3.6106    2.7834 H   0  0  0  0  0  0  0  0  0  0  0  0
    4.7875   -5.0326    1.7479 H   0  0  0  0  0  0  0  0  0  0  0  0
    3.2213   -4.4416    2.2933 H   0  0  0  0  0  0  0  0  0  0  0  0
    2.3273   -1.8843    0.5500 H   0  0  0  0  0  0  0  0  0  0  0  0
    3.1921   -1.7372    2.0586 H   0  0  0  0  0  0  0  0  0  0  0  0
    3.8173    0.1251    0.1113 H   0  0  0  0  0  0  0  0  0  0  0  0
    5.5716    0.1206    2.0193 H   0  0  0  0  0  0  0  0  0  0  0  0
    7.0023   -2.1039    1.8084 H   0  0  0  0  0  0  0  0  0  0  0  0
    6.0433   -4.2264   -1.2713 H   0  0  0  0  0  0  0  0  0  0  0  0
    6.7428   -4.4762    0.3227 H   0  0  0  0  0  0  0  0  0  0  0  0
    7.3830   -3.2258   -0.7410 H   0  0  0  0  0  0  0  0  0  0  0  0
    5.8148   -0.9894   -1.1348 H   0  0  0  0  0  0  0  0  0  0  0  0
  1  2  1  0
  1 14  1  0
  1 15  1  0
  1 16  1  0
  2 13  1  0
  2  3  1  0
  2 17  1  6
  3  4  1  0
  3 18  1  0
  3 19  1  0
  4  5  1  0
  4 20  1  0
  4 21  1  0
  5 11  1  0
  5  6  1  1
  5  7  1  0
  6 22  1  0
  6 23  1  0
  6 24  1  0
  7  8  1  0
  7 25  1  0
  7 26  1  0
  8 13  1  0
  8  9  1  0
  8 27  1  6
  9 10  2  0
  9 28  1  0
 10 11  1  0
 10 29  1  0
 11 12  1  6
 11 13  1  0
 12 30  1  0
 12 31  1  0
 12 32  1  0
 13 33  1  6
M  END
>  <i_m_ct_stereo_status>  (376) 
1

>  <s_m_source_file>  (376) 
/var/tmp/pbs.5076255.sched01/tmpm28zzdm2/1449lyhn0we.sdf

>  <i_m_source_file_index>  (376) 
21

>  <i_lp_mmshare_version>  (376) 
48012

>  <i_f3d_flags>  (376) 
0

>  <s_epik_input>  (376) 
W0NIMl0xW0NIMl1bQ0BASF0oW0NIM10pW0NAQEhdKFtDQEBIXShbQ0gyXTIpW0NIXT1bQ0hdMylbQ0BdMyhbQ0gzXSlbQ0BdMTJbQ0gzXQ==

>  <s_epik_cmdline>  (376) 
J2VwaWtfcHl0aG9uJywgJy1waHQnLCAnMi4wJywgJy1waCcsICc3LjAnLCAnLXRuJywgJzgnLCAnLW1hJywgJzIwMCcsICctaW1hZScsICc8aW5maWxlLm1hZT4nLCAnLW9tYWUnLCAnPG91dGZpbGUubWFlPic=

>  <r_lp_tautomer_probability>  (376) 
1

>  <r_epik_Ionization_Penalty>  (376) 
0

>  <r_epik_Ionization_Penalty_Charging>  (376) 
0

>  <r_epik_Ionization_Penalty_Neutral>  (376) 
0

>  <r_epik_State_Penalty>  (376) 
-0

>  <r_epik_Charging_Adjusted_Penalty>  (376) 
0

>  <i_epik_Tot_Q>  (376) 
0

>  <i_epik_Tot_abs_Q>  (376) 
0

>  <s_lp_Force_Field>  (376) 
OPLS3e

>  <r_lp_Energy>  (376) 
41.6455

>  <b_lp_Chiralities_Consistent>  (376) 
1

>  <s_lp_Variant>  (376) 
103:0-1

>  <s_i_glide_gridfile>  (376) 
pfpi4k_grid

>  <i_i_glide_lignum>  (376) 
21

>  <i_i_glide_rotatable_bonds>  (376) 
0

>  <r_i_docking_score>  (376) 
-3.53631

>  <r_i_glide_ligand_efficiency>  (376) 
-0.272024

>  <r_i_glide_ligand_efficiency_sa>  (376) 
-0.639619

>  <r_i_glide_ligand_efficiency_ln>  (376) 
-0.991966

>  <r_i_glide_gscore>  (376) 
-3.53631

>  <r_i_glide_lipo>  (376) 
-0.512066

>  <r_i_glide_hbond>  (376) 
0

>  <r_i_glide_metal>  (376) 
-0

>  <r_i_glide_rewards>  (376) 
-2.20706

>  <r_i_glide_evdw>  (376) 
-17.3587

>  <r_i_glide_ecoul>  (376) 
0.338344

>  <r_i_glide_erotb>  (376) 
0

>  <r_i_glide_esite>  (376) 
0

>  <r_i_glide_emodel>  (376) 
-21.315

>  <r_i_glide_energy>  (376) 
-17.0203

>  <r_i_glide_einternal>  (376) 
0

>  <r_i_glide_intrahb_reward>  (376) 
-0

>  <i_i_glide_confnum>  (376) 
1

>  <i_i_glide_posenum>  (376) 
22

>  <r_i_glide_eff_state_penalty>  (376) 
0

>  <ligand_id>  (376) 
103

>  <original_smiles>  (376) 
CC1CCC2(C)CC3C=CC2(C)C13

>  <smiles>  (376) 
[H]C1=C([H])C2(C([H])([H])[H])C3([H])C1([H])C([H])([H])C2(C([H])([H])[H])C([H])([H])C([H])([H])C3([H])C([H])([H])[H]

$$$$
103:0:2
     RDKit          3D

 33 35  0  0  1  0  0  0  0  0999 V2000
    3.4262   -0.9578   -3.0480 C   0  0  0  0  0  0  0  0  0  0  0  0
    4.4163   -1.9697   -2.4552 C   0  0  2  0  0  0  0  0  0  0  0  0
    3.7186   -3.3042   -2.1327 C   0  0  0  0  0  0  0  0  0  0  0  0
    4.4710   -4.1874   -1.1166 C   0  0  0  0  0  0  0  0  0  0  0  0
    5.1440   -3.3775    0.0063 C   0  0  2  0  0  0  0  0  0  0  0  0
    5.7287   -4.3375    1.0641 C   0  0  0  0  0  0  0  0  0  0  0  0
    4.0922   -2.3940    0.6199 C   0  0  0  0  0  0  0  0  0  0  0  0
    4.5574   -1.0318    0.0646 C   0  0  1  0  0  0  0  0  0  0  0  0
    5.7839   -0.6772    0.8723 C   0  0  0  0  0  0  0  0  0  0  0  0
    6.7562   -1.5091    0.4960 C   0  0  0  0  0  0  0  0  0  0  0  0
    6.2043   -2.3965   -0.6059 C   0  0  1  0  0  0  0  0  0  0  0  0
    7.3036   -2.9973   -1.5035 C   0  0  0  0  0  0  0  0  0  0  0  0
    5.2452   -1.3935   -1.2739 C   0  0  1  0  0  0  0  0  0  0  0  0
    2.6454   -0.7169   -2.3237 H   0  0  0  0  0  0  0  0  0  0  0  0
    2.9377   -1.3651   -3.9348 H   0  0  0  0  0  0  0  0  0  0  0  0
    3.9128   -0.0223   -3.3309 H   0  0  0  0  0  0  0  0  0  0  0  0
    5.1345   -2.1893   -3.2466 H   0  0  0  0  0  0  0  0  0  0  0  0
    2.7063   -3.1078   -1.7756 H   0  0  0  0  0  0  0  0  0  0  0  0
    3.5848   -3.8595   -3.0613 H   0  0  0  0  0  0  0  0  0  0  0  0
    3.7618   -4.8942   -0.6857 H   0  0  0  0  0  0  0  0  0  0  0  0
    5.2049   -4.8029   -1.6341 H   0  0  0  0  0  0  0  0  0  0  0  0
    6.1929   -3.8004    1.8942 H   0  0  0  0  0  0  0  0  0  0  0  0
    6.4854   -4.9951    0.6312 H   0  0  0  0  0  0  0  0  0  0  0  0
    4.9473   -4.9708    1.4872 H   0  0  0  0  0  0  0  0  0  0  0  0
    3.0631   -2.6220    0.3393 H   0  0  0  0  0  0  0  0  0  0  0  0
    4.1183   -2.3955    1.7119 H   0  0  0  0  0  0  0  0  0  0  0  0
    3.8078   -0.2421    0.0376 H   0  0  0  0  0  0  0  0  0  0  0  0
    5.8227    0.0796    1.6394 H   0  0  0  0  0  0  0  0  0  0  0  0
    7.7631   -1.5591    0.8800 H   0  0  0  0  0  0  0  0  0  0  0  0
    6.8834   -3.4964   -2.3770 H   0  0  0  0  0  0  0  0  0  0  0  0
    7.9016   -3.7263   -0.9554 H   0  0  0  0  0  0  0  0  0  0  0  0
    7.9891   -2.2442   -1.8821 H   0  0  0  0  0  0  0  0  0  0  0  0
    5.7867   -0.5274   -1.6579 H   0  0  0  0  0  0  0  0  0  0  0  0
  1  2  1  0
  1 14  1  0
  1 15  1  0
  1 16  1  0
  2 13  1  0
  2  3  1  0
  2 17  1  6
  3  4  1  0
  3 18  1  0
  3 19  1  0
  4  5  1  0
  4 20  1  0
  4 21  1  0
  5 11  1  0
  5  6  1  1
  5  7  1  0
  6 22  1  0
  6 23  1  0
  6 24  1  0
  7  8  1  0
  7 25  1  0
  7 26  1  0
  8 13  1  0
  8  9  1  0
  8 27  1  6
  9 10  2  0
  9 28  1  0
 10 11  1  0
 10 29  1  0
 11 12  1  6
 11 13  1  0
 12 30  1  0
 12 31  1  0
 12 32  1  0
 13 33  1  6
M  END
>  <i_m_ct_stereo_status>  (377) 
1

>  <s_m_source_file>  (377) 
/var/tmp/pbs.5076255.sched01/tmpm28zzdm2/1449lyhn0we.sdf

>  <i_m_source_file_index>  (377) 
21

>  <i_lp_mmshare_version>  (377) 
48012

>  <i_f3d_flags>  (377) 
0

>  <s_epik_input>  (377) 
W0NIMl0xW0NIMl1bQ0BASF0oW0NIM10pW0NAQEhdKFtDQEBIXShbQ0gyXTIpW0NIXT1bQ0hdMylbQ0BdMyhbQ0gzXSlbQ0BdMTJbQ0gzXQ==

>  <s_epik_cmdline>  (377) 
J2VwaWtfcHl0aG9uJywgJy1waHQnLCAnMi4wJywgJy1waCcsICc3LjAnLCAnLXRuJywgJzgnLCAnLW1hJywgJzIwMCcsICctaW1hZScsICc8aW5maWxlLm1hZT4nLCAnLW9tYWUnLCAnPG91dGZpbGUubWFlPic=

>  <r_lp_tautomer_probability>  (377) 
1

>  <r_epik_Ionization_Penalty>  (377) 
0

>  <r_epik_Ionization_Penalty_Charging>  (377) 
0

>  <r_epik_Ionization_Penalty_Neutral>  (377) 
0

>  <r_epik_State_Penalty>  (377) 
-0

>  <r_epik_Charging_Adjusted_Penalty>  (377) 
0

>  <i_epik_Tot_Q>  (377) 
0

>  <i_epik_Tot_abs_Q>  (377) 
0

>  <s_lp_Force_Field>  (377) 
OPLS3e

>  <r_lp_Energy>  (377) 
41.6455

>  <b_lp_Chiralities_Consistent>  (377) 
1

>  <s_lp_Variant>  (377) 
103:0-1

>  <s_i_glide_gridfile>  (377) 
pfpi4k_grid

>  <i_i_glide_lignum>  (377) 
21

>  <i_i_glide_rotatable_bonds>  (377) 
0

>  <r_i_docking_score>  (377) 
-3.45614

>  <r_i_glide_ligand_efficiency>  (377) 
-0.265857

>  <r_i_glide_ligand_efficiency_sa>  (377) 
-0.625118

>  <r_i_glide_ligand_efficiency_ln>  (377) 
-0.969477

>  <r_i_glide_gscore>  (377) 
-3.45614

>  <r_i_glide_lipo>  (377) 
-0.247712

>  <r_i_glide_hbond>  (377) 
0

>  <r_i_glide_metal>  (377) 
-0

>  <r_i_glide_rewards>  (377) 
-2.20706

>  <r_i_glide_evdw>  (377) 
-20.6216

>  <r_i_glide_ecoul>  (377) 
0.198106

>  <r_i_glide_erotb>  (377) 
0

>  <r_i_glide_esite>  (377) 
0

>  <r_i_glide_emodel>  (377) 
-24.6249

>  <r_i_glide_energy>  (377) 
-20.4235

>  <r_i_glide_einternal>  (377) 
0

>  <r_i_glide_intrahb_reward>  (377) 
-0

>  <i_i_glide_confnum>  (377) 
2

>  <i_i_glide_posenum>  (377) 
27

>  <r_i_glide_eff_state_penalty>  (377) 
0

>  <ligand_id>  (377) 
103

>  <original_smiles>  (377) 
CC1CCC2(C)CC3C=CC2(C)C13

>  <smiles>  (377) 
[H]C1=C([H])C2(C([H])([H])[H])C3([H])C1([H])C([H])([H])C2(C([H])([H])[H])C([H])([H])C([H])([H])C3([H])C([H])([H])[H]

$$$$
104:0:0
     RDKit          3D

 35 39  0  0  1  0  0  0  0  0999 V2000
    1.5262   -0.6895    4.5446 C   0  0  0  0  0  0  0  0  0  0  0  0
    0.4652    0.3889    4.7932 C   0  0  2  0  0  0  0  0  0  0  0  0
    0.5716    0.9090    6.2378 C   0  0  0  0  0  0  0  0  0  0  0  0
   -0.6040    1.7089    6.8602 C   0  0  0  0  0  0  0  0  0  0  0  0
   -1.6251    2.4254    6.1310 C   0  0  0  0  0  0  0  0  0  0  0  0
   -2.5864    3.1652    6.8632 C   0  0  0  0  0  0  0  0  0  0  0  0
   -2.5789    3.2160    8.2667 C   0  0  0  0  0  0  0  0  0  0  0  0
   -1.5882    2.5235    8.9722 C   0  0  0  0  0  0  0  0  0  0  0  0
   -1.5356    2.5439   10.4331 C   0  0  0  0  0  0  0  0  0  0  0  0
   -0.5805    1.8837   11.0983 C   0  0  0  0  0  0  0  0  0  0  0  0
    0.4580    1.1116   10.3826 C   0  0  0  0  0  0  0  0  0  0  0  0
    1.3411    0.5049   10.9759 O   0  0  0  0  0  0  0  0  0  0  0  0
    0.3699    1.1157    9.0075 O   0  0  0  0  0  0  0  0  0  0  0  0
   -0.6072    1.7792    8.2840 C   0  0  0  0  0  0  0  0  0  0  0  0
   -1.7842    2.4915    4.6257 C   0  0  0  0  0  0  0  0  0  0  0  0
   -2.5289    3.3118    4.0887 O   0  0  0  0  0  0  0  0  0  0  0  0
   -1.0567    1.4531    3.8225 C   0  0  1  0  0  0  0  0  0  0  0  0
   -0.9581    0.0316    4.3535 C   0  0  0  0  0  0  0  0  0  0  0  0
   -1.1874    1.5547    2.3805 O   0  0  0  0  0  0  0  0  0  0  0  0
    0.2467    1.3711    2.2348 C   0  0  0  0  0  0  0  0  0  0  0  0
    0.4518    1.5192    3.7451 C   0  0  2  0  0  0  0  0  0  0  0  0
    2.5355   -0.2913    4.6741 H   0  0  0  0  0  0  0  0  0  0  0  0
    1.4670   -1.0484    3.5150 H   0  0  0  0  0  0  0  0  0  0  0  0
    1.4030   -1.5590    5.1948 H   0  0  0  0  0  0  0  0  0  0  0  0
    0.7293    0.0368    6.8747 H   0  0  0  0  0  0  0  0  0  0  0  0
    1.4766    1.5112    6.3510 H   0  0  0  0  0  0  0  0  0  0  0  0
   -3.3624    3.7278    6.3600 H   0  0  0  0  0  0  0  0  0  0  0  0
   -3.3230    3.7865    8.8043 H   0  0  0  0  0  0  0  0  0  0  0  0
   -2.2896    3.0851   10.9845 H   0  0  0  0  0  0  0  0  0  0  0  0
   -0.5448    1.8807   12.1764 H   0  0  0  0  0  0  0  0  0  0  0  0
   -0.9803   -0.7100    3.5580 H   0  0  0  0  0  0  0  0  0  0  0  0
   -1.6538   -0.2153    5.1573 H   0  0  0  0  0  0  0  0  0  0  0  0
    0.5128    0.3865    1.8382 H   0  0  0  0  0  0  0  0  0  0  0  0
    0.7085    2.1605    1.6386 H   0  0  0  0  0  0  0  0  0  0  0  0
    0.8983    2.4688    4.0398 H   0  0  0  0  0  0  0  0  0  0  0  0
  2  1  1  6
  1 22  1  0
  1 23  1  0
  1 24  1  0
  2 18  1  0
  2 21  1  0
  2  3  1  0
  3  4  1  0
  3 25  1  0
  3 26  1  0
  4 14  1  0
  4  5  2  0
  5  6  1  0
  5 15  1  0
  6  7  2  0
  6 27  1  0
  7  8  1  0
  7 28  1  0
  8 14  2  0
  8  9  1  0
  9 10  2  0
  9 29  1  0
 10 11  1  0
 10 30  1  0
 11 12  2  0
 11 13  1  0
 13 14  1  0
 15 16  2  0
 15 17  1  0
 17 21  1  0
 17 18  1  0
 17 19  1  6
 18 31  1  0
 18 32  1  0
 19 20  1  0
 20 21  1  0
 20 33  1  0
 20 34  1  0
 21 35  1  6
M  END
>  <i_m_ct_stereo_status>  (378) 
1

>  <s_m_source_file>  (378) 
/var/tmp/pbs.5076255.sched01/tmpm28zzdm2/1449lyhn0we.sdf

>  <i_m_source_file_index>  (378) 
22

>  <i_lp_mmshare_version>  (378) 
48012

>  <i_f3d_flags>  (378) 
0

>  <s_epik_input>  (378) 
TzFbQ0gyXVtDQEBIXShbQ0BdMTIzKVtDQF0oW0NIM10pKFtDSDJdMylbQ0gyXWM0YyhDMj1PKVtjSF1bY0hdYzVjNG9jKD1PKVtjSF1bY0hdNQ==

>  <s_epik_cmdline>  (378) 
J2VwaWtfcHl0aG9uJywgJy1waHQnLCAnMi4wJywgJy1waCcsICc3LjAnLCAnLXRuJywgJzgnLCAnLW1hJywgJzIwMCcsICctaW1hZScsICc8aW5maWxlLm1hZT4nLCAnLW9tYWUnLCAnPG91dGZpbGUubWFlPic=

>  <r_lp_tautomer_probability>  (378) 
1

>  <r_epik_Ionization_Penalty>  (378) 
4.62824e-09

>  <r_epik_Ionization_Penalty_Charging>  (378) 
0

>  <r_epik_Ionization_Penalty_Neutral>  (378) 
4.62824e-09

>  <r_epik_State_Penalty>  (378) 
-0

>  <r_epik_Charging_Adjusted_Penalty>  (378) 
0

>  <i_epik_Tot_Q>  (378) 
0

>  <i_epik_Tot_abs_Q>  (378) 
0

>  <s_lp_Force_Field>  (378) 
OPLS3e

>  <r_lp_Energy>  (378) 
54.917

>  <b_lp_Chiralities_Consistent>  (378) 
1

>  <s_lp_Variant>  (378) 
104:0-1

>  <s_i_glide_gridfile>  (378) 
pfpi4k_grid

>  <i_i_glide_lignum>  (378) 
22

>  <i_i_glide_rotatable_bonds>  (378) 
0

>  <r_i_docking_score>  (378) 
-2.92626

>  <r_i_glide_ligand_efficiency>  (378) 
-0.139346

>  <r_i_glide_ligand_efficiency_sa>  (378) 
-0.384445

>  <r_i_glide_ligand_efficiency_ln>  (378) 
-0.723512

>  <r_i_glide_gscore>  (378) 
-2.92626

>  <r_i_glide_lipo>  (378) 
-0.233217

>  <r_i_glide_hbond>  (378) 
0

>  <r_i_glide_metal>  (378) 
-0

>  <r_i_glide_rewards>  (378) 
-1.48438

>  <r_i_glide_evdw>  (378) 
-19.3936

>  <r_i_glide_ecoul>  (378) 
-1.49225

>  <r_i_glide_erotb>  (378) 
0

>  <r_i_glide_esite>  (378) 
-0.0151481

>  <r_i_glide_emodel>  (378) 
-24.7469

>  <r_i_glide_energy>  (378) 
-20.8858

>  <r_i_glide_einternal>  (378) 
0

>  <r_i_glide_intrahb_reward>  (378) 
-0

>  <i_i_glide_confnum>  (378) 
1

>  <i_i_glide_posenum>  (378) 
1

>  <r_i_glide_eff_state_penalty>  (378) 
0

>  <ligand_id>  (378) 
104

>  <original_smiles>  (378) 
CC12Cc3c(ccc4ccc(=O)oc34)C(=O)C3(C1)OCC23

>  <smiles>  (378) 
[H]c1c2c(c3oc(=O)c([H])c([H])c3c1[H])C([H])([H])C1(C([H])([H])[H])C([H])([H])C3(OC([H])([H])C31[H])C2=O

$$$$
104:0:1
     RDKit          3D

 35 39  0  0  1  0  0  0  0  0999 V2000
   -0.4377    1.5251    4.9151 C   0  0  0  0  0  0  0  0  0  0  0  0
    0.3684    0.4408    4.1918 C   0  0  2  0  0  0  0  0  0  0  0  0
   -0.1171   -0.9528    4.6303 C   0  0  0  0  0  0  0  0  0  0  0  0
    0.7556   -2.2031    4.3482 C   0  0  0  0  0  0  0  0  0  0  0  0
    1.7787   -2.3148    3.3340 C   0  0  0  0  0  0  0  0  0  0  0  0
    2.4349   -3.5612    3.1673 C   0  0  0  0  0  0  0  0  0  0  0  0
    2.1282   -4.6758    3.9635 C   0  0  0  0  0  0  0  0  0  0  0  0
    1.1395   -4.5642    4.9489 C   0  0  0  0  0  0  0  0  0  0  0  0
    0.7887   -5.6981    5.8024 C   0  0  0  0  0  0  0  0  0  0  0  0
   -0.1654   -5.5877    6.7360 C   0  0  0  0  0  0  0  0  0  0  0  0
   -0.9008   -4.3211    6.9323 C   0  0  0  0  0  0  0  0  0  0  0  0
   -1.7834   -4.2095    7.7738 O   0  0  0  0  0  0  0  0  0  0  0  0
   -0.5393   -3.2770    6.1075 O   0  0  0  0  0  0  0  0  0  0  0  0
    0.4534   -3.3486    5.1416 C   0  0  0  0  0  0  0  0  0  0  0  0
    2.2474   -1.2203    2.3974 C   0  0  0  0  0  0  0  0  0  0  0  0
    2.9735   -1.4583    1.4347 O   0  0  0  0  0  0  0  0  0  0  0  0
    1.8712    0.1880    2.7505 C   0  0  1  0  0  0  0  0  0  0  0  0
    1.8918    0.6230    4.2098 C   0  0  0  0  0  0  0  0  0  0  0  0
    2.2702    1.2079    1.7953 O   0  0  0  0  0  0  0  0  0  0  0  0
    0.9455    1.8022    1.8827 C   0  0  0  0  0  0  0  0  0  0  0  0
    0.4205    0.6006    2.6614 C   0  0  2  0  0  0  0  0  0  0  0  0
   -1.5021    1.4588    4.6748 H   0  0  0  0  0  0  0  0  0  0  0  0
   -0.1100    2.5146    4.5914 H   0  0  0  0  0  0  0  0  0  0  0  0
   -0.3133    1.4867    6.0002 H   0  0  0  0  0  0  0  0  0  0  0  0
   -0.2583   -0.9095    5.7113 H   0  0  0  0  0  0  0  0  0  0  0  0
   -1.1106   -1.1487    4.2190 H   0  0  0  0  0  0  0  0  0  0  0  0
    3.2032   -3.6991    2.4158 H   0  0  0  0  0  0  0  0  0  0  0  0
    2.6499   -5.6110    3.8239 H   0  0  0  0  0  0  0  0  0  0  0  0
    1.3143   -6.6327    5.6762 H   0  0  0  0  0  0  0  0  0  0  0  0
   -0.4324   -6.4122    7.3754 H   0  0  0  0  0  0  0  0  0  0  0  0
    2.2090    1.6612    4.3297 H   0  0  0  0  0  0  0  0  0  0  0  0
    2.4312   -0.0451    4.8827 H   0  0  0  0  0  0  0  0  0  0  0  0
    0.9337    2.7398    2.4479 H   0  0  0  0  0  0  0  0  0  0  0  0
    0.4727    1.9230    0.9059 H   0  0  0  0  0  0  0  0  0  0  0  0
   -0.2165   -0.0495    2.0672 H   0  0  0  0  0  0  0  0  0  0  0  0
  2  1  1  1
  1 22  1  0
  1 23  1  0
  1 24  1  0
  2 18  1  0
  2 21  1  0
  2  3  1  0
  3  4  1  0
  3 25  1  0
  3 26  1  0
  4 14  1  0
  4  5  2  0
  5  6  1  0
  5 15  1  0
  6  7  2  0
  6 27  1  0
  7  8  1  0
  7 28  1  0
  8 14  2  0
  8  9  1  0
  9 10  2  0
  9 29  1  0
 10 11  1  0
 10 30  1  0
 11 12  2  0
 11 13  1  0
 13 14  1  0
 15 16  2  0
 15 17  1  0
 17 21  1  0
 17 18  1  0
 17 19  1  6
 18 31  1  0
 18 32  1  0
 19 20  1  0
 20 21  1  0
 20 33  1  0
 20 34  1  0
 21 35  1  6
M  END
>  <i_m_ct_stereo_status>  (379) 
1

>  <s_m_source_file>  (379) 
/var/tmp/pbs.5076255.sched01/tmpm28zzdm2/1449lyhn0we.sdf

>  <i_m_source_file_index>  (379) 
22

>  <i_lp_mmshare_version>  (379) 
48012

>  <i_f3d_flags>  (379) 
0

>  <s_epik_input>  (379) 
TzFbQ0gyXVtDQEBIXShbQ0BdMTIzKVtDQF0oW0NIM10pKFtDSDJdMylbQ0gyXWM0YyhDMj1PKVtjSF1bY0hdYzVjNG9jKD1PKVtjSF1bY0hdNQ==

>  <s_epik_cmdline>  (379) 
J2VwaWtfcHl0aG9uJywgJy1waHQnLCAnMi4wJywgJy1waCcsICc3LjAnLCAnLXRuJywgJzgnLCAnLW1hJywgJzIwMCcsICctaW1hZScsICc8aW5maWxlLm1hZT4nLCAnLW9tYWUnLCAnPG91dGZpbGUubWFlPic=

>  <r_lp_tautomer_probability>  (379) 
1

>  <r_epik_Ionization_Penalty>  (379) 
4.62824e-09

>  <r_epik_Ionization_Penalty_Charging>  (379) 
0

>  <r_epik_Ionization_Penalty_Neutral>  (379) 
4.62824e-09

>  <r_epik_State_Penalty>  (379) 
-0

>  <r_epik_Charging_Adjusted_Penalty>  (379) 
0

>  <i_epik_Tot_Q>  (379) 
0

>  <i_epik_Tot_abs_Q>  (379) 
0

>  <s_lp_Force_Field>  (379) 
OPLS3e

>  <r_lp_Energy>  (379) 
54.917

>  <b_lp_Chiralities_Consistent>  (379) 
1

>  <s_lp_Variant>  (379) 
104:0-1

>  <s_i_glide_gridfile>  (379) 
pfpi4k_grid

>  <i_i_glide_lignum>  (379) 
22

>  <i_i_glide_rotatable_bonds>  (379) 
0

>  <r_i_docking_score>  (379) 
-2.60574

>  <r_i_glide_ligand_efficiency>  (379) 
-0.124083

>  <r_i_glide_ligand_efficiency_sa>  (379) 
-0.342335

>  <r_i_glide_ligand_efficiency_ln>  (379) 
-0.644264

>  <r_i_glide_gscore>  (379) 
-2.60574

>  <r_i_glide_lipo>  (379) 
-0.0651787

>  <r_i_glide_hbond>  (379) 
0

>  <r_i_glide_metal>  (379) 
-0

>  <r_i_glide_rewards>  (379) 
-1.48438

>  <r_i_glide_evdw>  (379) 
-18.3676

>  <r_i_glide_ecoul>  (379) 
-0.778475

>  <r_i_glide_erotb>  (379) 
0

>  <r_i_glide_esite>  (379) 
-0.0210306

>  <r_i_glide_emodel>  (379) 
-22.5605

>  <r_i_glide_energy>  (379) 
-19.1461

>  <r_i_glide_einternal>  (379) 
0

>  <r_i_glide_intrahb_reward>  (379) 
-0

>  <i_i_glide_confnum>  (379) 
1

>  <i_i_glide_posenum>  (379) 
2

>  <r_i_glide_eff_state_penalty>  (379) 
0

>  <ligand_id>  (379) 
104

>  <original_smiles>  (379) 
CC12Cc3c(ccc4ccc(=O)oc34)C(=O)C3(C1)OCC23

>  <smiles>  (379) 
[H]c1c2c(c3oc(=O)c([H])c([H])c3c1[H])C([H])([H])C1(C([H])([H])[H])C([H])([H])C3(OC([H])([H])C31[H])C2=O

$$$$
104:0:2
     RDKit          3D

 35 39  0  0  1  0  0  0  0  0999 V2000
   -2.3517    2.1984    6.9678 C   0  0  0  0  0  0  0  0  0  0  0  0
   -1.5176    1.7264    5.7679 C   0  0  2  0  0  0  0  0  0  0  0  0
   -1.4770    0.1915    5.7254 C   0  0  0  0  0  0  0  0  0  0  0  0
   -0.4136   -0.5312    4.8591 C   0  0  0  0  0  0  0  0  0  0  0  0
    0.2816    0.0309    3.7278 C   0  0  0  0  0  0  0  0  0  0  0  0
    1.1775   -0.8032    3.0001 C   0  0  0  0  0  0  0  0  0  0  0  0
    1.4102   -2.1400    3.3651 C   0  0  0  0  0  0  0  0  0  0  0  0
    0.7375   -2.6800    4.4696 C   0  0  0  0  0  0  0  0  0  0  0  0
    0.9482   -4.0670    4.8820 C   0  0  0  0  0  0  0  0  0  0  0  0
    0.2917   -4.5783    5.9341 C   0  0  0  0  0  0  0  0  0  0  0  0
   -0.6666   -3.7597    6.7055 C   0  0  0  0  0  0  0  0  0  0  0  0
   -1.2850   -4.2099    7.6639 O   0  0  0  0  0  0  0  0  0  0  0  0
   -0.8414   -2.4667    6.2770 O   0  0  0  0  0  0  0  0  0  0  0  0
   -0.1681   -1.8950    5.2051 C   0  0  0  0  0  0  0  0  0  0  0  0
    0.1667    1.4491    3.2049 C   0  0  0  0  0  0  0  0  0  0  0  0
    0.6280    1.7492    2.1081 O   0  0  0  0  0  0  0  0  0  0  0  0
   -0.4610    2.4620    4.1215 C   0  0  1  0  0  0  0  0  0  0  0  0
   -0.1551    2.4113    5.6063 C   0  0  0  0  0  0  0  0  0  0  0  0
   -0.6226    3.8014    3.5918 O   0  0  0  0  0  0  0  0  0  0  0  0
   -1.9868    3.8337    4.0761 C   0  0  0  0  0  0  0  0  0  0  0  0
   -1.9379    2.3463    4.4217 C   0  0  2  0  0  0  0  0  0  0  0  0
   -3.3820    1.8503    6.9025 H   0  0  0  0  0  0  0  0  0  0  0  0
   -2.3985    3.2902    6.9927 H   0  0  0  0  0  0  0  0  0  0  0  0
   -1.9296    1.8786    7.9256 H   0  0  0  0  0  0  0  0  0  0  0  0
   -1.3081   -0.1393    6.7478 H   0  0  0  0  0  0  0  0  0  0  0  0
   -2.4533   -0.2028    5.4406 H   0  0  0  0  0  0  0  0  0  0  0  0
    1.7103   -0.4350    2.1292 H   0  0  0  0  0  0  0  0  0  0  0  0
    2.0983   -2.7471    2.7947 H   0  0  0  0  0  0  0  0  0  0  0  0
    1.6462   -4.6746    4.3292 H   0  0  0  0  0  0  0  0  0  0  0  0
    0.4379   -5.6013    6.2494 H   0  0  0  0  0  0  0  0  0  0  0  0
   -0.1020    3.4072    6.0515 H   0  0  0  0  0  0  0  0  0  0  0  0
    0.7081    1.8036    5.8790 H   0  0  0  0  0  0  0  0  0  0  0  0
   -2.1062    4.4872    4.9446 H   0  0  0  0  0  0  0  0  0  0  0  0
   -2.7024    4.0856    3.2898 H   0  0  0  0  0  0  0  0  0  0  0  0
   -2.5069    1.7175    3.7407 H   0  0  0  0  0  0  0  0  0  0  0  0
  2  1  1  1
  1 22  1  0
  1 23  1  0
  1 24  1  0
  2 18  1  0
  2 21  1  0
  2  3  1  0
  3  4  1  0
  3 25  1  0
  3 26  1  0
  4 14  1  0
  4  5  2  0
  5  6  1  0
  5 15  1  0
  6  7  2  0
  6 27  1  0
  7  8  1  0
  7 28  1  0
  8 14  2  0
  8  9  1  0
  9 10  2  0
  9 29  1  0
 10 11  1  0
 10 30  1  0
 11 12  2  0
 11 13  1  0
 13 14  1  0
 15 16  2  0
 15 17  1  0
 17 21  1  0
 17 18  1  0
 17 19  1  6
 18 31  1  0
 18 32  1  0
 19 20  1  0
 20 21  1  0
 20 33  1  0
 20 34  1  0
 21 35  1  6
M  END
>  <i_m_ct_stereo_status>  (380) 
1

>  <s_m_source_file>  (380) 
/var/tmp/pbs.5076255.sched01/tmpm28zzdm2/1449lyhn0we.sdf

>  <i_m_source_file_index>  (380) 
22

>  <i_lp_mmshare_version>  (380) 
48012

>  <i_f3d_flags>  (380) 
0

>  <s_epik_input>  (380) 
TzFbQ0gyXVtDQEBIXShbQ0BdMTIzKVtDQF0oW0NIM10pKFtDSDJdMylbQ0gyXWM0YyhDMj1PKVtjSF1bY0hdYzVjNG9jKD1PKVtjSF1bY0hdNQ==

>  <s_epik_cmdline>  (380) 
J2VwaWtfcHl0aG9uJywgJy1waHQnLCAnMi4wJywgJy1waCcsICc3LjAnLCAnLXRuJywgJzgnLCAnLW1hJywgJzIwMCcsICctaW1hZScsICc8aW5maWxlLm1hZT4nLCAnLW9tYWUnLCAnPG91dGZpbGUubWFlPic=

>  <r_lp_tautomer_probability>  (380) 
1

>  <r_epik_Ionization_Penalty>  (380) 
4.62824e-09

>  <r_epik_Ionization_Penalty_Charging>  (380) 
0

>  <r_epik_Ionization_Penalty_Neutral>  (380) 
4.62824e-09

>  <r_epik_State_Penalty>  (380) 
-0

>  <r_epik_Charging_Adjusted_Penalty>  (380) 
0

>  <i_epik_Tot_Q>  (380) 
0

>  <i_epik_Tot_abs_Q>  (380) 
0

>  <s_lp_Force_Field>  (380) 
OPLS3e

>  <r_lp_Energy>  (380) 
54.917

>  <b_lp_Chiralities_Consistent>  (380) 
1

>  <s_lp_Variant>  (380) 
104:0-1

>  <s_i_glide_gridfile>  (380) 
pfpi4k_grid

>  <i_i_glide_lignum>  (380) 
22

>  <i_i_glide_rotatable_bonds>  (380) 
0

>  <r_i_docking_score>  (380) 
-2.33874

>  <r_i_glide_ligand_efficiency>  (380) 
-0.111369

>  <r_i_glide_ligand_efficiency_sa>  (380) 
-0.307258

>  <r_i_glide_ligand_efficiency_ln>  (380) 
-0.578249

>  <r_i_glide_gscore>  (380) 
-2.33874

>  <r_i_glide_lipo>  (380) 
-0.0808082

>  <r_i_glide_hbond>  (380) 
0

>  <r_i_glide_metal>  (380) 
-0

>  <r_i_glide_rewards>  (380) 
-1.48438

>  <r_i_glide_evdw>  (380) 
-21.1919

>  <r_i_glide_ecoul>  (380) 
2.15298

>  <r_i_glide_erotb>  (380) 
0

>  <r_i_glide_esite>  (380) 
-0.0369068

>  <r_i_glide_emodel>  (380) 
-22.1034

>  <r_i_glide_energy>  (380) 
-19.0389

>  <r_i_glide_einternal>  (380) 
0

>  <r_i_glide_intrahb_reward>  (380) 
-0

>  <i_i_glide_confnum>  (380) 
2

>  <i_i_glide_posenum>  (380) 
32

>  <r_i_glide_eff_state_penalty>  (380) 
0

>  <ligand_id>  (380) 
104

>  <original_smiles>  (380) 
CC12Cc3c(ccc4ccc(=O)oc34)C(=O)C3(C1)OCC23

>  <smiles>  (380) 
[H]c1c2c(c3oc(=O)c([H])c([H])c3c1[H])C([H])([H])C1(C([H])([H])[H])C([H])([H])C3(OC([H])([H])C31[H])C2=O

$$$$
105:0:0
     RDKit          3D

 59 64  0  0  1  0  0  0  0  0999 V2000
    0.4371   -0.9552    3.9637 C   0  0  0  0  0  0  0  0  0  0  0  0
   -0.3876    0.2243    4.4609 C   0  0  0  0  0  0  0  0  0  0  0  0
   -0.5984    1.3347    3.6691 C   0  0  0  0  0  0  0  0  0  0  0  0
    0.3246    2.0462    2.6744 C   0  0  0  0  0  0  0  0  0  0  0  0
    1.1519    3.2743    3.3374 C   0  0  1  0  0  0  0  0  0  0  0  0
    0.6690    4.5478    4.1515 C   0  0  2  0  0  0  0  0  0  0  0  0
    0.0439    5.4665    3.2807 O   0  0  0  0  0  0  0  0  0  0  0  0
    2.0195    5.1153    4.6963 C   0  0  0  0  0  0  0  0  0  0  0  0
    2.8989    3.8608    4.9322 C   0  0  1  0  0  0  0  0  0  0  0  0
    3.5743    3.4070    6.2668 C   0  0  1  0  0  0  0  0  0  0  0  0
    3.4252    4.3383    7.3129 O   0  0  0  0  0  0  0  0  0  0  0  0
    3.2894    1.9182    6.7324 C   0  0  0  0  0  0  0  0  0  0  0  0
    1.9858    1.1860    6.1925 C   0  0  0  0  0  0  0  0  0  0  0  0
    0.9321    2.2762    5.6170 C   0  0  2  0  0  0  0  0  0  0  0  0
    0.5392    2.5768    7.0300 C   0  0  1  0  0  0  0  0  0  0  0  0
    0.2111    4.1078    6.8291 C   0  0  0  0  0  0  0  0  0  0  0  0
   -0.3057    4.2941    5.3586 C   0  0  2  0  0  0  0  0  0  0  0  0
   -0.7410    2.8761    5.3277 C   0  0  2  0  0  0  0  0  0  0  0  0
   -2.1199    3.0457    6.2041 C   0  0  0  0  0  0  0  0  0  0  0  0
   -1.5122    2.3444    4.1384 C   0  0  1  0  0  0  0  0  0  0  0  0
   -2.0100    3.2814    3.1923 O   0  0  0  0  0  0  0  0  0  0  0  0
   -0.4393    1.2182    7.2542 C   0  0  1  0  0  0  0  0  0  0  0  0
   -1.4014    1.3363    8.2883 O   0  0  0  0  0  0  0  0  0  0  0  0
   -0.8335    0.1318    6.0125 C   0  0  1  0  0  0  0  0  0  0  0  0
   -2.1834   -0.2614    6.0735 O   0  0  0  0  0  0  0  0  0  0  0  0
    1.9978    2.7491    4.4548 C   0  0  1  0  0  0  0  0  0  0  0  0
    2.9923    1.7575    3.7081 C   0  0  0  0  0  0  0  0  0  0  0  0
    1.2338   -1.2383    4.6480 H   0  0  0  0  0  0  0  0  0  0  0  0
    0.8671   -0.7609    2.9840 H   0  0  0  0  0  0  0  0  0  0  0  0
   -0.2199   -1.8176    3.8538 H   0  0  0  0  0  0  0  0  0  0  0  0
    0.9710    1.3221    2.1935 H   0  0  0  0  0  0  0  0  0  0  0  0
   -0.2593    2.3959    1.8279 H   0  0  0  0  0  0  0  0  0  0  0  0
    1.7765    3.6654    2.5297 H   0  0  0  0  0  0  0  0  0  0  0  0
    0.2303    5.2205    2.3722 H   0  0  0  0  0  0  0  0  0  0  0  0
    2.4889    5.6954    3.9032 H   0  0  0  0  0  0  0  0  0  0  0  0
    1.9364    5.8126    5.5264 H   0  0  0  0  0  0  0  0  0  0  0  0
    3.7261    3.9831    4.2269 H   0  0  0  0  0  0  0  0  0  0  0  0
    4.6486    3.4248    6.0819 H   0  0  0  0  0  0  0  0  0  0  0  0
    3.7412    5.1771    7.0102 H   0  0  0  0  0  0  0  0  0  0  0  0
    4.1495    1.2964    6.4868 H   0  0  0  0  0  0  0  0  0  0  0  0
    3.2868    1.8969    7.8225 H   0  0  0  0  0  0  0  0  0  0  0  0
    2.2566    0.4398    5.4704 H   0  0  0  0  0  0  0  0  0  0  0  0
    1.7681    0.4523    6.9545 H   0  0  0  0  0  0  0  0  0  0  0  0
    1.2537    2.5902    7.8502 H   0  0  0  0  0  0  0  0  0  0  0  0
   -0.4527    4.4954    7.5973 H   0  0  0  0  0  0  0  0  0  0  0  0
    1.0793    4.7094    7.0267 H   0  0  0  0  0  0  0  0  0  0  0  0
   -1.1056    5.0315    5.3405 H   0  0  0  0  0  0  0  0  0  0  0  0
   -2.8147    3.7245    5.7045 H   0  0  0  0  0  0  0  0  0  0  0  0
   -2.0827    3.4385    7.2161 H   0  0  0  0  0  0  0  0  0  0  0  0
   -2.7090    2.1410    6.3371 H   0  0  0  0  0  0  0  0  0  0  0  0
   -2.3987    1.7518    4.3598 H   0  0  0  0  0  0  0  0  0  0  0  0
   -1.2993    3.5472    2.6202 H   0  0  0  0  0  0  0  0  0  0  0  0
    0.1284    0.5899    7.9302 H   0  0  0  0  0  0  0  0  0  0  0  0
   -1.0097    1.8059    9.0118 H   0  0  0  0  0  0  0  0  0  0  0  0
   -0.3353   -0.7782    6.3420 H   0  0  0  0  0  0  0  0  0  0  0  0
   -2.6712    0.2593    5.4556 H   0  0  0  0  0  0  0  0  0  0  0  0
    3.8998    1.5363    4.2687 H   0  0  0  0  0  0  0  0  0  0  0  0
    3.3669    2.1985    2.7840 H   0  0  0  0  0  0  0  0  0  0  0  0
    2.5682    0.7979    3.4248 H   0  0  0  0  0  0  0  0  0  0  0  0
  1  2  1  0
  1 28  1  0
  1 29  1  0
  1 30  1  0
  2 24  1  0
  2  3  2  3
  3 20  1  0
  3  4  1  0
  4  5  1  0
  4 31  1  0
  4 32  1  0
  5 26  1  0
  5  6  1  0
  5 33  1  6
  6 17  1  0
  6  7  1  6
  6  8  1  0
  7 34  1  0
  8  9  1  0
  8 35  1  0
  8 36  1  0
  9 26  1  0
  9 10  1  0
  9 37  1  6
 10 11  1  0
 10 12  1  0
 10 38  1  6
 11 39  1  0
 12 13  1  0
 12 40  1  0
 12 41  1  0
 14 13  1  1
 13 42  1  0
 13 43  1  0
 14 18  1  0
 14 15  1  0
 14 26  1  0
 15 16  1  0
 15 22  1  0
 15 44  1  1
 16 17  1  0
 16 45  1  0
 16 46  1  0
 17 18  1  0
 17 47  1  1
 18 19  1  1
 18 20  1  0
 19 48  1  0
 19 49  1  0
 19 50  1  0
 20 21  1  0
 20 51  1  1
 21 52  1  0
 22 23  1  0
 22 24  1  0
 22 53  1  1
 23 54  1  0
 24 25  1  0
 24 55  1  1
 25 56  1  0
 26 27  1  6
 27 57  1  0
 27 58  1  0
 27 59  1  0
M  END
>  <i_m_ct_stereo_status>  (381) 
1

>  <s_m_source_file>  (381) 
/var/tmp/pbs.5076255.sched01/tmpm28zzdm2/1449lyhn0we.sdf

>  <i_m_source_file_index>  (381) 
23

>  <i_lp_mmshare_version>  (381) 
48012

>  <i_f3d_flags>  (381) 
0

>  <s_epik_input>  (381) 
W09IXVtDQEhdMVtDQEBIXShbT0hdKUMoXFtDSDNdKT1DKFtDQEhdKFtPSF0pW0NAQF0yM1tDSDNdKVxbQ0gyXVtDQEBIXShbQ0BAXTQoW09IXSlbQ0BASF0zW0NIMl1bQ0BASF0xW0NAXTI1NilbQ0BAXTYoW0NIM10pW0NAQEhdKFtDSDJdNClbQ0BASF0oW09IXSlbQ0gyXVtDSDJdNQ==

>  <s_epik_cmdline>  (381) 
J2VwaWtfcHl0aG9uJywgJy1waHQnLCAnMi4wJywgJy1waCcsICc3LjAnLCAnLXRuJywgJzgnLCAnLW1hJywgJzIwMCcsICctaW1hZScsICc8aW5maWxlLm1hZT4nLCAnLW9tYWUnLCAnPG91dGZpbGUubWFlPic=

>  <r_lp_tautomer_probability>  (381) 
1

>  <r_epik_Ionization_Penalty>  (381) 
2.90729e-06

>  <r_epik_Ionization_Penalty_Charging>  (381) 
0

>  <r_epik_Ionization_Penalty_Neutral>  (381) 
2.90729e-06

>  <r_epik_State_Penalty>  (381) 
-0

>  <r_epik_Charging_Adjusted_Penalty>  (381) 
0

>  <i_epik_Tot_Q>  (381) 
0

>  <i_epik_Tot_abs_Q>  (381) 
0

>  <s_lp_Force_Field>  (381) 
OPLS3e

>  <r_lp_Energy>  (381) 
410.697

>  <b_lp_Chiralities_Consistent>  (381) 
1

>  <s_lp_Variant>  (381) 
105:0-1

>  <s_i_glide_gridfile>  (381) 
pfpi4k_grid

>  <i_i_glide_lignum>  (381) 
23

>  <i_i_glide_rotatable_bonds>  (381) 
5

>  <r_i_docking_score>  (381) 
-3.82638

>  <r_i_glide_ligand_efficiency>  (381) 
-0.141718

>  <r_i_glide_ligand_efficiency_sa>  (381) 
-0.425154

>  <r_i_glide_ligand_efficiency_ln>  (381) 
-0.890719

>  <r_i_glide_gscore>  (381) 
-3.82638

>  <r_i_glide_lipo>  (381) 
-0.0770605

>  <r_i_glide_hbond>  (381) 
0

>  <r_i_glide_metal>  (381) 
-0

>  <r_i_glide_rewards>  (381) 
-0.842138

>  <r_i_glide_evdw>  (381) 
-21.7474

>  <r_i_glide_ecoul>  (381) 
-12.1321

>  <r_i_glide_erotb>  (381) 
0

>  <r_i_glide_esite>  (381) 
0

>  <r_i_glide_emodel>  (381) 
-41.9781

>  <r_i_glide_energy>  (381) 
-33.8795

>  <r_i_glide_einternal>  (381) 
2.82027

>  <r_i_glide_intrahb_reward>  (381) 
-0

>  <i_i_glide_confnum>  (381) 
1

>  <i_i_glide_posenum>  (381) 
4

>  <r_i_glide_eff_state_penalty>  (381) 
0

>  <ligand_id>  (381) 
105

>  <original_smiles>  (381) 
CC1=C2CC3C4(O)CC5C(O)CCC6(C(CC4C6(C)C2O)C(O)C1O)C53C

>  <smiles>  (381) 
[H]OC1([H])C(C([H])([H])[H])=C2C([H])([H])C3([H])C4(O[H])C([H])([H])C5([H])C([H])(O[H])C([H])([H])C([H])([H])C6(C([H])(C([H])([H])C4([H])C6(C([H])([H])[H])C2([H])O[H])C1([H])O[H])C53C([H])([H])[H]

$$$$
105:0:1
     RDKit          3D

 59 64  0  0  1  0  0  0  0  0999 V2000
   -2.1805    2.1685    4.4557 C   0  0  0  0  0  0  0  0  0  0  0  0
   -0.8082    2.5654    3.9454 C   0  0  0  0  0  0  0  0  0  0  0  0
    0.0174    1.6370    3.3333 C   0  0  0  0  0  0  0  0  0  0  0  0
    0.2320    0.1358    3.5954 C   0  0  0  0  0  0  0  0  0  0  0  0
    1.4711   -0.1662    4.6059 C   0  0  1  0  0  0  0  0  0  0  0  0
    2.9952    0.2849    4.5728 C   0  0  2  0  0  0  0  0  0  0  0  0
    3.6685   -0.4401    3.5655 O   0  0  0  0  0  0  0  0  0  0  0  0
    3.4948   -0.1393    5.9852 C   0  0  0  0  0  0  0  0  0  0  0  0
    2.2602    0.0545    6.9015 C   0  0  1  0  0  0  0  0  0  0  0  0
    2.1471    0.9462    8.1847 C   0  0  1  0  0  0  0  0  0  0  0  0
    3.3707    1.5313    8.5845 O   0  0  0  0  0  0  0  0  0  0  0  0
    0.9339    1.9658    8.2328 C   0  0  0  0  0  0  0  0  0  0  0  0
    0.2732    2.4260    6.8581 C   0  0  0  0  0  0  0  0  0  0  0  0
    1.2740    2.1119    5.6185 C   0  0  2  0  0  0  0  0  0  0  0  0
    2.0554    3.3352    6.0043 C   0  0  1  0  0  0  0  0  0  0  0  0
    3.4821    2.8047    5.5761 C   0  0  0  0  0  0  0  0  0  0  0  0
    3.2810    1.8216    4.3657 C   0  0  2  0  0  0  0  0  0  0  0  0
    2.0021    2.4999    4.0173 C   0  0  2  0  0  0  0  0  0  0  0  0
    2.6304    3.8262    3.2823 C   0  0  0  0  0  0  0  0  0  0  0  0
    1.2553    2.1008    2.7609 C   0  0  1  0  0  0  0  0  0  0  0  0
    1.9148    1.2352    1.8393 O   0  0  0  0  0  0  0  0  0  0  0  0
    1.0009    4.4700    5.3312 C   0  0  1  0  0  0  0  0  0  0  0  0
    1.5769    5.7327    5.0490 O   0  0  0  0  0  0  0  0  0  0  0  0
   -0.3370    4.0585    4.3682 C   0  0  1  0  0  0  0  0  0  0  0  0
   -0.5435    4.9532    3.2890 O   0  0  0  0  0  0  0  0  0  0  0  0
    1.1982    0.4942    5.9209 C   0  0  1  0  0  0  0  0  0  0  0  0
   -0.1126   -0.2542    6.4215 C   0  0  0  0  0  0  0  0  0  0  0  0
   -2.3539    2.4177    5.5005 H   0  0  0  0  0  0  0  0  0  0  0  0
   -2.3649    1.1044    4.3213 H   0  0  0  0  0  0  0  0  0  0  0  0
   -2.9303    2.6948    3.8678 H   0  0  0  0  0  0  0  0  0  0  0  0
   -0.6969   -0.3166    3.9233 H   0  0  0  0  0  0  0  0  0  0  0  0
    0.4014   -0.3889    2.6554 H   0  0  0  0  0  0  0  0  0  0  0  0
    1.4975   -1.2538    4.7077 H   0  0  0  0  0  0  0  0  0  0  0  0
    3.3319   -0.1259    2.7352 H   0  0  0  0  0  0  0  0  0  0  0  0
    3.7179   -1.2048    5.9516 H   0  0  0  0  0  0  0  0  0  0  0  0
    4.4207    0.3244    6.3150 H   0  0  0  0  0  0  0  0  0  0  0  0
    2.0356   -0.9618    7.2375 H   0  0  0  0  0  0  0  0  0  0  0  0
    1.9514    0.2493    9.0008 H   0  0  0  0  0  0  0  0  0  0  0  0
    3.6361    2.1612    7.9342 H   0  0  0  0  0  0  0  0  0  0  0  0
    0.1470    1.5469    8.8590 H   0  0  0  0  0  0  0  0  0  0  0  0
    1.2576    2.8432    8.7973 H   0  0  0  0  0  0  0  0  0  0  0  0
   -0.6985    1.9758    6.7425 H   0  0  0  0  0  0  0  0  0  0  0  0
   -0.1336    3.3974    7.0950 H   0  0  0  0  0  0  0  0  0  0  0  0
    2.2191    3.6421    7.0364 H   0  0  0  0  0  0  0  0  0  0  0  0
    4.1850    3.6134    5.3793 H   0  0  0  0  0  0  0  0  0  0  0  0
    3.9908    2.3222    6.3953 H   0  0  0  0  0  0  0  0  0  0  0  0
    4.1078    1.9487    3.6744 H   0  0  0  0  0  0  0  0  0  0  0  0
    3.2202    3.5264    2.4133 H   0  0  0  0  0  0  0  0  0  0  0  0
    3.3158    4.4767    3.8136 H   0  0  0  0  0  0  0  0  0  0  0  0
    1.9076    4.5236    2.8627 H   0  0  0  0  0  0  0  0  0  0  0  0
    0.9108    2.9185    2.1290 H   0  0  0  0  0  0  0  0  0  0  0  0
    1.3199    1.0942    1.1146 H   0  0  0  0  0  0  0  0  0  0  0  0
    0.5317    4.9482    6.1865 H   0  0  0  0  0  0  0  0  0  0  0  0
    1.9460    5.6925    4.1808 H   0  0  0  0  0  0  0  0  0  0  0  0
   -1.1560    4.3674    5.0162 H   0  0  0  0  0  0  0  0  0  0  0  0
   -0.1291    4.6165    2.4950 H   0  0  0  0  0  0  0  0  0  0  0  0
   -0.2786   -0.1696    7.4933 H   0  0  0  0  0  0  0  0  0  0  0  0
   -0.0453   -1.3305    6.2526 H   0  0  0  0  0  0  0  0  0  0  0  0
   -1.0349    0.0689    5.9449 H   0  0  0  0  0  0  0  0  0  0  0  0
  1  2  1  0
  1 28  1  0
  1 29  1  0
  1 30  1  0
  2 24  1  0
  2  3  2  3
  3 20  1  0
  3  4  1  0
  4  5  1  0
  4 31  1  0
  4 32  1  0
  5 26  1  0
  5  6  1  0
  5 33  1  1
  6 17  1  0
  6  7  1  6
  6  8  1  0
  7 34  1  0
  8  9  1  0
  8 35  1  0
  8 36  1  0
  9 26  1  0
  9 10  1  0
  9 37  1  1
 10 11  1  0
 10 12  1  0
 10 38  1  1
 11 39  1  0
 12 13  1  0
 12 40  1  0
 12 41  1  0
 14 13  1  6
 13 42  1  0
 13 43  1  0
 14 18  1  0
 14 15  1  0
 14 26  1  0
 15 16  1  0
 15 22  1  0
 15 44  1  1
 16 17  1  0
 16 45  1  0
 16 46  1  0
 17 18  1  0
 17 47  1  6
 18 19  1  6
 18 20  1  0
 19 48  1  0
 19 49  1  0
 19 50  1  0
 20 21  1  0
 20 51  1  6
 21 52  1  0
 22 23  1  0
 22 24  1  0
 22 53  1  1
 23 54  1  0
 24 25  1  0
 24 55  1  1
 25 56  1  0
 26 27  1  1
 27 57  1  0
 27 58  1  0
 27 59  1  0
M  END
>  <i_m_ct_stereo_status>  (382) 
1

>  <s_m_source_file>  (382) 
/var/tmp/pbs.5076255.sched01/tmpm28zzdm2/1449lyhn0we.sdf

>  <i_m_source_file_index>  (382) 
23

>  <i_lp_mmshare_version>  (382) 
48012

>  <i_f3d_flags>  (382) 
0

>  <s_epik_input>  (382) 
W09IXVtDQEhdMVtDQEBIXShbT0hdKUMoXFtDSDNdKT1DKFtDQEhdKFtPSF0pW0NAQF0yM1tDSDNdKVxbQ0gyXVtDQEBIXShbQ0BAXTQoW09IXSlbQ0BASF0zW0NIMl1bQ0BASF0xW0NAXTI1NilbQ0BAXTYoW0NIM10pW0NAQEhdKFtDSDJdNClbQ0BASF0oW09IXSlbQ0gyXVtDSDJdNQ==

>  <s_epik_cmdline>  (382) 
J2VwaWtfcHl0aG9uJywgJy1waHQnLCAnMi4wJywgJy1waCcsICc3LjAnLCAnLXRuJywgJzgnLCAnLW1hJywgJzIwMCcsICctaW1hZScsICc8aW5maWxlLm1hZT4nLCAnLW9tYWUnLCAnPG91dGZpbGUubWFlPic=

>  <r_lp_tautomer_probability>  (382) 
1

>  <r_epik_Ionization_Penalty>  (382) 
2.90729e-06

>  <r_epik_Ionization_Penalty_Charging>  (382) 
0

>  <r_epik_Ionization_Penalty_Neutral>  (382) 
2.90729e-06

>  <r_epik_State_Penalty>  (382) 
-0

>  <r_epik_Charging_Adjusted_Penalty>  (382) 
0

>  <i_epik_Tot_Q>  (382) 
0

>  <i_epik_Tot_abs_Q>  (382) 
0

>  <s_lp_Force_Field>  (382) 
OPLS3e

>  <r_lp_Energy>  (382) 
410.697

>  <b_lp_Chiralities_Consistent>  (382) 
1

>  <s_lp_Variant>  (382) 
105:0-1

>  <s_i_glide_gridfile>  (382) 
pfpi4k_grid

>  <i_i_glide_lignum>  (382) 
23

>  <i_i_glide_rotatable_bonds>  (382) 
5

>  <r_i_docking_score>  (382) 
-3.24052

>  <r_i_glide_ligand_efficiency>  (382) 
-0.120019

>  <r_i_glide_ligand_efficiency_sa>  (382) 
-0.360057

>  <r_i_glide_ligand_efficiency_ln>  (382) 
-0.754339

>  <r_i_glide_gscore>  (382) 
-3.24052

>  <r_i_glide_lipo>  (382) 
0

>  <r_i_glide_hbond>  (382) 
0

>  <r_i_glide_metal>  (382) 
-0

>  <r_i_glide_rewards>  (382) 
-1.34214

>  <r_i_glide_evdw>  (382) 
-19.4543

>  <r_i_glide_ecoul>  (382) 
-6.17109

>  <r_i_glide_erotb>  (382) 
0

>  <r_i_glide_esite>  (382) 
0

>  <r_i_glide_emodel>  (382) 
-38.3973

>  <r_i_glide_energy>  (382) 
-25.6254

>  <r_i_glide_einternal>  (382) 
0.889972

>  <r_i_glide_intrahb_reward>  (382) 
-0.5

>  <i_i_glide_confnum>  (382) 
1

>  <i_i_glide_posenum>  (382) 
31

>  <r_i_glide_eff_state_penalty>  (382) 
0

>  <ligand_id>  (382) 
105

>  <original_smiles>  (382) 
CC1=C2CC3C4(O)CC5C(O)CCC6(C(CC4C6(C)C2O)C(O)C1O)C53C

>  <smiles>  (382) 
[H]OC1([H])C(C([H])([H])[H])=C2C([H])([H])C3([H])C4(O[H])C([H])([H])C5([H])C([H])(O[H])C([H])([H])C([H])([H])C6(C([H])(C([H])([H])C4([H])C6(C([H])([H])[H])C2([H])O[H])C1([H])O[H])C53C([H])([H])[H]

$$$$
105:0:2
     RDKit          3D

 59 64  0  0  1  0  0  0  0  0999 V2000
   -2.5473    3.0933    3.5632 C   0  0  0  0  0  0  0  0  0  0  0  0
   -1.0327    3.1140    3.4592 C   0  0  0  0  0  0  0  0  0  0  0  0
   -0.3379    2.0476    2.8896 C   0  0  0  0  0  0  0  0  0  0  0  0
   -0.6005    0.5446    2.8995 C   0  0  0  0  0  0  0  0  0  0  0  0
    0.2084   -0.2214    4.0779 C   0  0  1  0  0  0  0  0  0  0  0  0
    1.7523   -0.2470    4.4460 C   0  0  2  0  0  0  0  0  0  0  0  0
    2.4249   -1.0460    3.5020 O   0  0  0  0  0  0  0  0  0  0  0  0
    1.7395   -0.9514    5.8375 C   0  0  0  0  0  0  0  0  0  0  0  0
    0.4097   -0.5058    6.4922 C   0  0  1  0  0  0  0  0  0  0  0  0
    0.2202    0.2397    7.8506 C   0  0  1  0  0  0  0  0  0  0  0  0
    1.3948    0.3794    8.6082 O   0  0  0  0  0  0  0  0  0  0  0  0
   -0.6584    1.5580    7.8206 C   0  0  0  0  0  0  0  0  0  0  0  0
   -0.7929    2.3482    6.4441 C   0  0  0  0  0  0  0  0  0  0  0  0
    0.3629    1.8792    5.4170 C   0  0  2  0  0  0  0  0  0  0  0  0
    1.3163    2.7565    6.1625 C   0  0  1  0  0  0  0  0  0  0  0  0
    2.6186    1.8821    5.9573 C   0  0  0  0  0  0  0  0  0  0  0  0
    2.4803    1.1436    4.5809 C   0  0  2  0  0  0  0  0  0  0  0  0
    1.5545    2.1962    4.1023 C   0  0  2  0  0  0  0  0  0  0  0  0
    2.6772    3.3486    3.7704 C   0  0  0  0  0  0  0  0  0  0  0  0
    1.0772    2.1630    2.6739 C   0  0  1  0  0  0  0  0  0  0  0  0
    1.6997    1.2387    1.7804 O   0  0  0  0  0  0  0  0  0  0  0  0
    0.8085    4.2203    5.4904 C   0  0  1  0  0  0  0  0  0  0  0  0
    1.7402    5.2745    5.5743 O   0  0  0  0  0  0  0  0  0  0  0  0
   -0.3016    4.3307    4.2057 C   0  0  1  0  0  0  0  0  0  0  0  0
    0.0522    5.3374    3.2719 O   0  0  0  0  0  0  0  0  0  0  0  0
   -0.2077    0.3380    5.4018 C   0  0  1  0  0  0  0  0  0  0  0  0
   -1.7513   -0.0332    5.4643 C   0  0  0  0  0  0  0  0  0  0  0  0
   -2.9143    3.2679    4.5724 H   0  0  0  0  0  0  0  0  0  0  0  0
   -2.9711    2.1597    3.2031 H   0  0  0  0  0  0  0  0  0  0  0  0
   -2.9462    3.8833    2.9294 H   0  0  0  0  0  0  0  0  0  0  0  0
   -1.6668    0.3683    2.9357 H   0  0  0  0  0  0  0  0  0  0  0  0
   -0.3449    0.1255    1.9287 H   0  0  0  0  0  0  0  0  0  0  0  0
   -0.0839   -1.2714    3.9864 H   0  0  0  0  0  0  0  0  0  0  0  0
    2.3979   -0.5685    2.6759 H   0  0  0  0  0  0  0  0  0  0  0  0
    1.6717   -2.0264    5.6666 H   0  0  0  0  0  0  0  0  0  0  0  0
    2.6395   -0.8318    6.4393 H   0  0  0  0  0  0  0  0  0  0  0  0
   -0.1590   -1.4340    6.5856 H   0  0  0  0  0  0  0  0  0  0  0  0
   -0.3512   -0.4421    8.4811 H   0  0  0  0  0  0  0  0  0  0  0  0
    1.9892    0.9713    8.1559 H   0  0  0  0  0  0  0  0  0  0  0  0
   -1.6612    1.3390    8.1886 H   0  0  0  0  0  0  0  0  0  0  0  0
   -0.2726    2.2355    8.5856 H   0  0  0  0  0  0  0  0  0  0  0  0
   -1.7874    2.2185    6.0476 H   0  0  0  0  0  0  0  0  0  0  0  0
   -0.9831    3.3651    6.7541 H   0  0  0  0  0  0  0  0  0  0  0  0
    1.2846    2.8930    7.2473 H   0  0  0  0  0  0  0  0  0  0  0  0
    3.5351    2.4594    6.0727 H   0  0  0  0  0  0  0  0  0  0  0  0
    2.7490    1.1836    6.7633 H   0  0  0  0  0  0  0  0  0  0  0  0
    3.4493    1.1014    4.0746 H   0  0  0  0  0  0  0  0  0  0  0  0
    3.3699    2.9908    2.9976 H   0  0  0  0  0  0  0  0  0  0  0  0
    3.3604    3.7025    4.5374 H   0  0  0  0  0  0  0  0  0  0  0  0
    2.3012    4.2734    3.3368 H   0  0  0  0  0  0  0  0  0  0  0  0
    1.1541    3.0995    2.1363 H   0  0  0  0  0  0  0  0  0  0  0  0
    1.1573    1.2122    1.0021 H   0  0  0  0  0  0  0  0  0  0  0  0
    0.2832    4.7257    6.2958 H   0  0  0  0  0  0  0  0  0  0  0  0
    2.3019    5.2133    4.8085 H   0  0  0  0  0  0  0  0  0  0  0  0
   -1.1426    4.8151    4.7051 H   0  0  0  0  0  0  0  0  0  0  0  0
    0.1284    4.9713    2.3890 H   0  0  0  0  0  0  0  0  0  0  0  0
   -2.1687   -0.0020    6.4663 H   0  0  0  0  0  0  0  0  0  0  0  0
   -1.9377   -1.0566    5.1296 H   0  0  0  0  0  0  0  0  0  0  0  0
   -2.3982    0.5945    4.8571 H   0  0  0  0  0  0  0  0  0  0  0  0
  1  2  1  0
  1 28  1  0
  1 29  1  0
  1 30  1  0
  2 24  1  0
  2  3  2  3
  3 20  1  0
  3  4  1  0
  4  5  1  0
  4 31  1  0
  4 32  1  0
  5 26  1  0
  5  6  1  0
  5 33  1  1
  6 17  1  0
  6  7  1  6
  6  8  1  0
  7 34  1  0
  8  9  1  0
  8 35  1  0
  8 36  1  0
  9 26  1  0
  9 10  1  0
  9 37  1  1
 10 11  1  0
 10 12  1  0
 10 38  1  1
 11 39  1  0
 12 13  1  0
 12 40  1  0
 12 41  1  0
 14 13  1  6
 13 42  1  0
 13 43  1  0
 14 18  1  0
 14 15  1  0
 14 26  1  0
 15 16  1  0
 15 22  1  0
 15 44  1  1
 16 17  1  0
 16 45  1  0
 16 46  1  0
 17 18  1  0
 17 47  1  6
 18 19  1  1
 18 20  1  0
 19 48  1  0
 19 49  1  0
 19 50  1  0
 20 21  1  0
 20 51  1  6
 21 52  1  0
 22 23  1  0
 22 24  1  0
 22 53  1  1
 23 54  1  0
 24 25  1  0
 24 55  1  1
 25 56  1  0
 26 27  1  6
 27 57  1  0
 27 58  1  0
 27 59  1  0
M  END
>  <i_m_ct_stereo_status>  (383) 
1

>  <s_m_source_file>  (383) 
/var/tmp/pbs.5076255.sched01/tmpm28zzdm2/1449lyhn0we.sdf

>  <i_m_source_file_index>  (383) 
23

>  <i_lp_mmshare_version>  (383) 
48012

>  <i_f3d_flags>  (383) 
0

>  <s_epik_input>  (383) 
W09IXVtDQEhdMVtDQEBIXShbT0hdKUMoXFtDSDNdKT1DKFtDQEhdKFtPSF0pW0NAQF0yM1tDSDNdKVxbQ0gyXVtDQEBIXShbQ0BAXTQoW09IXSlbQ0BASF0zW0NIMl1bQ0BASF0xW0NAXTI1NilbQ0BAXTYoW0NIM10pW0NAQEhdKFtDSDJdNClbQ0BASF0oW09IXSlbQ0gyXVtDSDJdNQ==

>  <s_epik_cmdline>  (383) 
J2VwaWtfcHl0aG9uJywgJy1waHQnLCAnMi4wJywgJy1waCcsICc3LjAnLCAnLXRuJywgJzgnLCAnLW1hJywgJzIwMCcsICctaW1hZScsICc8aW5maWxlLm1hZT4nLCAnLW9tYWUnLCAnPG91dGZpbGUubWFlPic=

>  <r_lp_tautomer_probability>  (383) 
1

>  <r_epik_Ionization_Penalty>  (383) 
2.90729e-06

>  <r_epik_Ionization_Penalty_Charging>  (383) 
0

>  <r_epik_Ionization_Penalty_Neutral>  (383) 
2.90729e-06

>  <r_epik_State_Penalty>  (383) 
-0

>  <r_epik_Charging_Adjusted_Penalty>  (383) 
0

>  <i_epik_Tot_Q>  (383) 
0

>  <i_epik_Tot_abs_Q>  (383) 
0

>  <s_lp_Force_Field>  (383) 
OPLS3e

>  <r_lp_Energy>  (383) 
410.697

>  <b_lp_Chiralities_Consistent>  (383) 
1

>  <s_lp_Variant>  (383) 
105:0-1

>  <s_i_glide_gridfile>  (383) 
pfpi4k_grid

>  <i_i_glide_lignum>  (383) 
23

>  <i_i_glide_rotatable_bonds>  (383) 
5

>  <r_i_docking_score>  (383) 
-3.12834

>  <r_i_glide_ligand_efficiency>  (383) 
-0.115865

>  <r_i_glide_ligand_efficiency_sa>  (383) 
-0.347594

>  <r_i_glide_ligand_efficiency_ln>  (383) 
-0.728227

>  <r_i_glide_gscore>  (383) 
-3.12834

>  <r_i_glide_lipo>  (383) 
0

>  <r_i_glide_hbond>  (383) 
0

>  <r_i_glide_metal>  (383) 
-0

>  <r_i_glide_rewards>  (383) 
-1.34214

>  <r_i_glide_evdw>  (383) 
-22.9486

>  <r_i_glide_ecoul>  (383) 
-4.2585

>  <r_i_glide_erotb>  (383) 
0

>  <r_i_glide_esite>  (383) 
0

>  <r_i_glide_emodel>  (383) 
-39.2315

>  <r_i_glide_energy>  (383) 
-27.2071

>  <r_i_glide_einternal>  (383) 
1.77972

>  <r_i_glide_intrahb_reward>  (383) 
-0.5

>  <i_i_glide_confnum>  (383) 
1

>  <i_i_glide_posenum>  (383) 
32

>  <r_i_glide_eff_state_penalty>  (383) 
0

>  <ligand_id>  (383) 
105

>  <original_smiles>  (383) 
CC1=C2CC3C4(O)CC5C(O)CCC6(C(CC4C6(C)C2O)C(O)C1O)C53C

>  <smiles>  (383) 
[H]OC1([H])C(C([H])([H])[H])=C2C([H])([H])C3([H])C4(O[H])C([H])([H])C5([H])C([H])(O[H])C([H])([H])C([H])([H])C6(C([H])(C([H])([H])C4([H])C6(C([H])([H])[H])C2([H])O[H])C1([H])O[H])C53C([H])([H])[H]

$$$$
105:1:0
     RDKit          3D

 59 64  0  0  1  0  0  0  0  0999 V2000
   -2.3330    2.7725    3.1784 C   0  0  0  0  0  0  0  0  0  0  0  0
   -0.8737    3.1200    3.3932 C   0  0  0  0  0  0  0  0  0  0  0  0
    0.1450    2.2434    3.0600 C   0  0  0  0  0  0  0  0  0  0  0  0
    0.2269    0.7158    3.1365 C   0  0  0  0  0  0  0  0  0  0  0  0
    0.8918    0.1955    4.5238 C   0  0  1  0  0  0  0  0  0  0  0  0
    2.2797    0.5429    5.2197 C   0  0  2  0  0  0  0  0  0  0  0  0
    3.3257   -0.0832    4.5081 O   0  0  0  0  0  0  0  0  0  0  0  0
    2.1060   -0.1098    6.6249 C   0  0  0  0  0  0  0  0  0  0  0  0
    0.5965    0.0366    6.9385 C   0  0  1  0  0  0  0  0  0  0  0  0
   -0.0577    0.7478    8.1691 C   0  0  1  0  0  0  0  0  0  0  0  0
    0.8636    1.1787    9.1451 O   0  0  0  0  0  0  0  0  0  0  0  0
   -1.1762    1.8269    7.8508 C   0  0  0  0  0  0  0  0  0  0  0  0
   -1.1694    2.5224    6.4172 C   0  0  0  0  0  0  0  0  0  0  0  0
    0.2706    2.3179    5.7019 C   0  0  2  0  0  0  0  0  0  0  0  0
    0.8109    3.4144    6.5703 C   0  0  1  0  0  0  0  0  0  0  0  0
    2.2841    2.8565    6.7152 C   0  0  0  0  0  0  0  0  0  0  0  0
    2.6293    2.0707    5.3986 C   0  0  2  0  0  0  0  0  0  0  0  0
    1.6275    2.8793    4.6548 C   0  0  2  0  0  0  0  0  0  0  0  0
    2.5195    4.2491    4.4798 C   0  0  0  0  0  0  0  0  0  0  0  0
    1.5031    2.7169    3.1584 C   0  0  1  0  0  0  0  0  0  0  0  0
    2.5335    1.9602    2.5263 O   0  0  0  0  0  0  0  0  0  0  0  0
    0.1522    4.6964    5.6942 C   0  0  1  0  0  0  0  0  0  0  0  0
    0.7820    5.9506    5.8867 O   0  0  0  0  0  0  0  0  0  0  0  0
   -0.6348    4.5037    4.1983 C   0  0  1  0  0  0  0  0  0  0  0  0
   -0.3198    5.5273    3.2805 O   0  0  0  0  0  0  0  0  0  0  0  0
    0.0702    0.6829    5.6777 C   0  0  1  0  0  0  0  0  0  0  0  0
   -1.3309   -0.0374    5.4384 C   0  0  0  0  0  0  0  0  0  0  0  0
   -2.9506    2.8694    4.0696 H   0  0  0  0  0  0  0  0  0  0  0  0
   -2.4364    1.7637    2.7895 H   0  0  0  0  0  0  0  0  0  0  0  0
   -2.7465    3.4417    2.4268 H   0  0  0  0  0  0  0  0  0  0  0  0
   -0.7569    0.2923    2.9607 H   0  0  0  0  0  0  0  0  0  0  0  0
    0.7908    0.3333    2.2865 H   0  0  0  0  0  0  0  0  0  0  0  0
    0.8681   -0.8964    4.4550 H   0  0  0  0  0  0  0  0  0  0  0  0
    3.3627    0.3370    3.6566 H   0  0  0  0  0  0  0  0  0  0  0  0
    2.3202   -1.1740    6.5277 H   0  0  0  0  0  0  0  0  0  0  0  0
    2.7943    0.2346    7.3941 H   0  0  0  0  0  0  0  0  0  0  0  0
    0.2465   -0.9992    6.9846 H   0  0  0  0  0  0  0  0  0  0  0  0
   -0.5831   -0.0377    8.7115 H   0  0  0  0  0  0  0  0  0  0  0  0
    1.3834    1.8870    8.7946 H   0  0  0  0  0  0  0  0  0  0  0  0
   -2.1602    1.3847    8.0074 H   0  0  0  0  0  0  0  0  0  0  0  0
   -1.1331    2.5956    8.6267 H   0  0  0  0  0  0  0  0  0  0  0  0
   -1.9943    2.1591    5.8262 H   0  0  0  0  0  0  0  0  0  0  0  0
   -1.6407    3.4741    6.6040 H   0  0  0  0  0  0  0  0  0  0  0  0
    0.5064    3.5623    7.6051 H   0  0  0  0  0  0  0  0  0  0  0  0
    3.0014    3.6325    6.9773 H   0  0  0  0  0  0  0  0  0  0  0  0
    2.3811    2.2261    7.5841 H   0  0  0  0  0  0  0  0  0  0  0  0
    3.6747    2.2426    5.1237 H   0  0  0  0  0  0  0  0  0  0  0  0
    3.4324    4.0438    3.9107 H   0  0  0  0  0  0  0  0  0  0  0  0
    2.9028    4.7717    5.3517 H   0  0  0  0  0  0  0  0  0  0  0  0
    2.0498    5.0467    3.9058 H   0  0  0  0  0  0  0  0  0  0  0  0
    1.4460    3.6285    2.5621 H   0  0  0  0  0  0  0  0  0  0  0  0
    3.2854    2.5281    2.4064 H   0  0  0  0  0  0  0  0  0  0  0  0
   -0.6428    5.0855    6.3234 H   0  0  0  0  0  0  0  0  0  0  0  0
    1.5340    5.9828    5.3126 H   0  0  0  0  0  0  0  0  0  0  0  0
   -1.6564    4.7820    4.4577 H   0  0  0  0  0  0  0  0  0  0  0  0
   -0.1866    5.1478    2.4066 H   0  0  0  0  0  0  0  0  0  0  0  0
   -1.9559   -0.0890    6.3273 H   0  0  0  0  0  0  0  0  0  0  0  0
   -1.2013   -1.0838    5.1499 H   0  0  0  0  0  0  0  0  0  0  0  0
   -1.9548    0.4096    4.6664 H   0  0  0  0  0  0  0  0  0  0  0  0
  1  2  1  0
  1 28  1  0
  1 29  1  0
  1 30  1  0
  2 24  1  0
  2  3  2  3
  3 20  1  0
  3  4  1  0
  4  5  1  0
  4 31  1  0
  4 32  1  0
  5 26  1  0
  5  6  1  0
  5 33  1  6
  6 17  1  0
  6  7  1  6
  6  8  1  0
  7 34  1  0
  8  9  1  0
  8 35  1  0
  8 36  1  0
  9 26  1  0
  9 10  1  0
  9 37  1  6
 10 11  1  0
 10 12  1  0
 10 38  1  1
 11 39  1  0
 12 13  1  0
 12 40  1  0
 12 41  1  0
 14 13  1  6
 13 42  1  0
 13 43  1  0
 14 18  1  0
 14 15  1  0
 14 26  1  0
 15 16  1  0
 15 22  1  0
 15 44  1  1
 16 17  1  0
 16 45  1  0
 16 46  1  0
 17 18  1  0
 17 47  1  6
 18 19  1  6
 18 20  1  0
 19 48  1  0
 19 49  1  0
 19 50  1  0
 20 21  1  0
 20 51  1  6
 21 52  1  0
 22 23  1  0
 22 24  1  0
 22 53  1  1
 23 54  1  0
 24 25  1  0
 24 55  1  1
 25 56  1  0
 26 27  1  6
 27 57  1  0
 27 58  1  0
 27 59  1  0
M  END
>  <i_m_ct_stereo_status>  (384) 
1

>  <s_m_source_file>  (384) 
/var/tmp/pbs.5076255.sched01/tmpm28zzdm2/1449lyhn0we.sdf

>  <i_m_source_file_index>  (384) 
24

>  <i_lp_mmshare_version>  (384) 
48012

>  <i_f3d_flags>  (384) 
2

>  <s_epik_input>  (384) 
W09IXVtDQEhdMVtDQEBIXShbT0hdKUMoXFtDSDNdKT1DKFtDQEhdKFtPSF0pW0NAQF0yM1tDSDNdKVxbQ0gyXVtDQEBIXShbQ0BAXTQoW09IXSlbQ0BASF0zW0NIMl1bQ0BASF0xW0NAXTI1NilbQ0BAXTYoW0NIM10pW0NAQEhdKFtDSDJdNClbQ0BASF0oW09IXSlbQ0gyXVtDSDJdNQ==

>  <s_epik_cmdline>  (384) 
J2VwaWtfcHl0aG9uJywgJy1waHQnLCAnMi4wJywgJy1waCcsICc3LjAnLCAnLXRuJywgJzgnLCAnLW1hJywgJzIwMCcsICctaW1hZScsICc8aW5maWxlLm1hZT4nLCAnLW9tYWUnLCAnPG91dGZpbGUubWFlPic=

>  <r_lp_tautomer_probability>  (384) 
1

>  <r_epik_Ionization_Penalty>  (384) 
2.90729e-06

>  <r_epik_Ionization_Penalty_Charging>  (384) 
0

>  <r_epik_Ionization_Penalty_Neutral>  (384) 
2.90729e-06

>  <r_epik_State_Penalty>  (384) 
-0

>  <r_epik_Charging_Adjusted_Penalty>  (384) 
0

>  <i_epik_Tot_Q>  (384) 
0

>  <i_epik_Tot_abs_Q>  (384) 
0

>  <s_lp_Force_Field>  (384) 
OPLS3e

>  <r_lp_Energy>  (384) 
410.962

>  <b_lp_Chiralities_Consistent>  (384) 
0

>  <s_lp_Variant>  (384) 
105:0-2

>  <s_i_glide_gridfile>  (384) 
pfpi4k_grid

>  <i_i_glide_lignum>  (384) 
24

>  <i_i_glide_rotatable_bonds>  (384) 
5

>  <r_i_docking_score>  (384) 
-3.30452

>  <r_i_glide_ligand_efficiency>  (384) 
-0.122389

>  <r_i_glide_ligand_efficiency_sa>  (384) 
-0.367168

>  <r_i_glide_ligand_efficiency_ln>  (384) 
-0.769237

>  <r_i_glide_gscore>  (384) 
-3.30452

>  <r_i_glide_lipo>  (384) 
-0.0105322

>  <r_i_glide_hbond>  (384) 
0

>  <r_i_glide_metal>  (384) 
-0

>  <r_i_glide_rewards>  (384) 
-1.34214

>  <r_i_glide_evdw>  (384) 
-22.3885

>  <r_i_glide_ecoul>  (384) 
-5.54948

>  <r_i_glide_erotb>  (384) 
0

>  <r_i_glide_esite>  (384) 
0

>  <r_i_glide_emodel>  (384) 
-38.8454

>  <r_i_glide_energy>  (384) 
-27.938

>  <r_i_glide_einternal>  (384) 
1.68648

>  <r_i_glide_intrahb_reward>  (384) 
-0.5

>  <i_i_glide_confnum>  (384) 
2

>  <i_i_glide_posenum>  (384) 
30

>  <r_i_glide_eff_state_penalty>  (384) 
0

>  <ligand_id>  (384) 
105

>  <original_smiles>  (384) 
CC1=C2CC3C4(O)CC5C(O)CCC6(C(CC4C6(C)C2O)C(O)C1O)C53C

>  <smiles>  (384) 
[H]OC1([H])C(C([H])([H])[H])=C2C([H])([H])C3([H])C4(O[H])C([H])([H])C5([H])C([H])(O[H])C([H])([H])C([H])([H])C6(C([H])(C([H])([H])C4([H])C6(C([H])([H])[H])C2([H])O[H])C1([H])O[H])C53C([H])([H])[H]

$$$$
105:1:1
     RDKit          3D

 59 64  0  0  1  0  0  0  0  0999 V2000
   -2.1754    1.9249    4.4976 C   0  0  0  0  0  0  0  0  0  0  0  0
   -0.8430    2.4225    3.9813 C   0  0  0  0  0  0  0  0  0  0  0  0
    0.0530    1.5517    3.3844 C   0  0  0  0  0  0  0  0  0  0  0  0
    0.3852    0.0742    3.6563 C   0  0  0  0  0  0  0  0  0  0  0  0
    1.6438   -0.1140    4.6671 C   0  0  1  0  0  0  0  0  0  0  0  0
    3.1246    0.4559    4.6198 C   0  0  2  0  0  0  0  0  0  0  0  0
    3.8524   -0.2292    3.6210 O   0  0  0  0  0  0  0  0  0  0  0  0
    3.6617    0.0928    6.0371 C   0  0  0  0  0  0  0  0  0  0  0  0
    2.4201    0.1952    6.9561 C   0  0  1  0  0  0  0  0  0  0  0  0
    2.2409    1.0918    8.2283 C   0  0  1  0  0  0  0  0  0  0  0  0
    3.4124    1.7810    8.6168 O   0  0  0  0  0  0  0  0  0  0  0  0
    0.9504    2.0122    8.2682 C   0  0  0  0  0  0  0  0  0  0  0  0
    0.2548    2.4072    6.8905 C   0  0  0  0  0  0  0  0  0  0  0  0
    1.2687    2.1551    5.6518 C   0  0  2  0  0  0  0  0  0  0  0  0
    1.9540    3.4386    6.0181 C   0  0  1  0  0  0  0  0  0  0  0  0
    3.4149    3.0199    5.5881 C   0  0  0  0  0  0  0  0  0  0  0  0
    3.2859    2.0058    4.3933 C   0  0  2  0  0  0  0  0  0  0  0  0
    1.9584    2.5773    4.0444 C   0  0  2  0  0  0  0  0  0  0  0  0
    2.4861    3.9403    3.2915 C   0  0  0  0  0  0  0  0  0  0  0  0
    1.2436    2.1048    2.7962 C   0  0  1  0  0  0  0  0  0  0  0  0
    1.9634    1.2843    1.8786 O   0  0  0  0  0  0  0  0  0  0  0  0
    0.8122    4.4769    5.3345 C   0  0  1  0  0  0  0  0  0  0  0  0
    1.2754    5.7798    5.0391 O   0  0  0  0  0  0  0  0  0  0  0  0
   -0.4943    3.9515    4.3825 C   0  0  1  0  0  0  0  0  0  0  0  0
   -0.7716    4.8217    3.2995 O   0  0  0  0  0  0  0  0  0  0  0  0
    1.3236    0.5390    5.9755 C   0  0  1  0  0  0  0  0  0  0  0  0
    0.0776   -0.3047    6.4894 C   0  0  0  0  0  0  0  0  0  0  0  0
   -2.3638    2.1660    5.5406 H   0  0  0  0  0  0  0  0  0  0  0  0
   -2.2778    0.8486    4.3740 H   0  0  0  0  0  0  0  0  0  0  0  0
   -2.9694    2.3879    3.9094 H   0  0  0  0  0  0  0  0  0  0  0  0
   -0.5050   -0.4452    3.9959 H   0  0  0  0  0  0  0  0  0  0  0  0
    0.5910   -0.4474    2.7237 H   0  0  0  0  0  0  0  0  0  0  0  0
    1.7572   -1.1951    4.7823 H   0  0  0  0  0  0  0  0  0  0  0  0
    3.4903    0.0462    2.7879 H   0  0  0  0  0  0  0  0  0  0  0  0
    3.9706   -0.9525    6.0183 H   0  0  0  0  0  0  0  0  0  0  0  0
    4.5507    0.6313    6.3605 H   0  0  0  0  0  0  0  0  0  0  0  0
    2.2773   -0.8280    7.3068 H   0  0  0  0  0  0  0  0  0  0  0  0
    2.1032    0.3950    9.0558 H   0  0  0  0  0  0  0  0  0  0  0  0
    3.6344    2.4101    7.9502 H   0  0  0  0  0  0  0  0  0  0  0  0
    0.1998    1.5419    8.9044 H   0  0  0  0  0  0  0  0  0  0  0  0
    1.2005    2.9190    8.8202 H   0  0  0  0  0  0  0  0  0  0  0  0
   -0.6799    1.8744    6.7858 H   0  0  0  0  0  0  0  0  0  0  0  0
   -0.2314    3.3398    7.1158 H   0  0  0  0  0  0  0  0  0  0  0  0
    2.0956    3.7697    7.0448 H   0  0  0  0  0  0  0  0  0  0  0  0
    4.0556    3.8775    5.3806 H   0  0  0  0  0  0  0  0  0  0  0  0
    3.9646    2.5873    6.4088 H   0  0  0  0  0  0  0  0  0  0  0  0
    4.0834    2.1830    3.6844 H   0  0  0  0  0  0  0  0  0  0  0  0
    3.0933    3.6818    2.4182 H   0  0  0  0  0  0  0  0  0  0  0  0
    3.1187    4.6532    3.8114 H   0  0  0  0  0  0  0  0  0  0  0  0
    1.7104    4.5746    2.8657 H   0  0  0  0  0  0  0  0  0  0  0  0
    0.8300    2.8788    2.1609 H   0  0  0  0  0  0  0  0  0  0  0  0
    1.3787    1.0940    1.1582 H   0  0  0  0  0  0  0  0  0  0  0  0
    0.3091    4.9260    6.1871 H   0  0  0  0  0  0  0  0  0  0  0  0
    1.6602    5.7622    4.1772 H   0  0  0  0  0  0  0  0  0  0  0  0
   -1.3349    4.1979    5.0346 H   0  0  0  0  0  0  0  0  0  0  0  0
   -0.2510    4.5753    2.5346 H   0  0  0  0  0  0  0  0  0  0  0  0
   -0.0948   -0.2230    7.5613 H   0  0  0  0  0  0  0  0  0  0  0  0
    0.2300   -1.3745    6.3348 H   0  0  0  0  0  0  0  0  0  0  0  0
   -0.8689   -0.0635    6.0129 H   0  0  0  0  0  0  0  0  0  0  0  0
  1  2  1  0
  1 28  1  0
  1 29  1  0
  1 30  1  0
  2 24  1  0
  2  3  2  3
  3 20  1  0
  3  4  1  0
  4  5  1  0
  4 31  1  0
  4 32  1  0
  5 26  1  0
  5  6  1  0
  5 33  1  1
  6 17  1  0
  6  7  1  6
  6  8  1  0
  7 34  1  0
  8  9  1  0
  8 35  1  0
  8 36  1  0
  9 26  1  0
  9 10  1  0
  9 37  1  1
 10 11  1  0
 10 12  1  0
 10 38  1  1
 11 39  1  0
 12 13  1  0
 12 40  1  0
 12 41  1  0
 14 13  1  6
 13 42  1  0
 13 43  1  0
 14 18  1  0
 14 15  1  0
 14 26  1  0
 15 16  1  0
 15 22  1  0
 15 44  1  1
 16 17  1  0
 16 45  1  0
 16 46  1  0
 17 18  1  0
 17 47  1  6
 18 19  1  6
 18 20  1  0
 19 48  1  0
 19 49  1  0
 19 50  1  0
 20 21  1  0
 20 51  1  6
 21 52  1  0
 22 23  1  0
 22 24  1  0
 22 53  1  1
 23 54  1  0
 24 25  1  0
 24 55  1  1
 25 56  1  0
 26 27  1  1
 27 57  1  0
 27 58  1  0
 27 59  1  0
M  END
>  <i_m_ct_stereo_status>  (385) 
1

>  <s_m_source_file>  (385) 
/var/tmp/pbs.5076255.sched01/tmpm28zzdm2/1449lyhn0we.sdf

>  <i_m_source_file_index>  (385) 
24

>  <i_lp_mmshare_version>  (385) 
48012

>  <i_f3d_flags>  (385) 
2

>  <s_epik_input>  (385) 
W09IXVtDQEhdMVtDQEBIXShbT0hdKUMoXFtDSDNdKT1DKFtDQEhdKFtPSF0pW0NAQF0yM1tDSDNdKVxbQ0gyXVtDQEBIXShbQ0BAXTQoW09IXSlbQ0BASF0zW0NIMl1bQ0BASF0xW0NAXTI1NilbQ0BAXTYoW0NIM10pW0NAQEhdKFtDSDJdNClbQ0BASF0oW09IXSlbQ0gyXVtDSDJdNQ==

>  <s_epik_cmdline>  (385) 
J2VwaWtfcHl0aG9uJywgJy1waHQnLCAnMi4wJywgJy1waCcsICc3LjAnLCAnLXRuJywgJzgnLCAnLW1hJywgJzIwMCcsICctaW1hZScsICc8aW5maWxlLm1hZT4nLCAnLW9tYWUnLCAnPG91dGZpbGUubWFlPic=

>  <r_lp_tautomer_probability>  (385) 
1

>  <r_epik_Ionization_Penalty>  (385) 
2.90729e-06

>  <r_epik_Ionization_Penalty_Charging>  (385) 
0

>  <r_epik_Ionization_Penalty_Neutral>  (385) 
2.90729e-06

>  <r_epik_State_Penalty>  (385) 
-0

>  <r_epik_Charging_Adjusted_Penalty>  (385) 
0

>  <i_epik_Tot_Q>  (385) 
0

>  <i_epik_Tot_abs_Q>  (385) 
0

>  <s_lp_Force_Field>  (385) 
OPLS3e

>  <r_lp_Energy>  (385) 
410.962

>  <b_lp_Chiralities_Consistent>  (385) 
0

>  <s_lp_Variant>  (385) 
105:0-2

>  <s_i_glide_gridfile>  (385) 
pfpi4k_grid

>  <i_i_glide_lignum>  (385) 
24

>  <i_i_glide_rotatable_bonds>  (385) 
5

>  <r_i_docking_score>  (385) 
-3.29445

>  <r_i_glide_ligand_efficiency>  (385) 
-0.122017

>  <r_i_glide_ligand_efficiency_sa>  (385) 
-0.36605

>  <r_i_glide_ligand_efficiency_ln>  (385) 
-0.766893

>  <r_i_glide_gscore>  (385) 
-3.29445

>  <r_i_glide_lipo>  (385) 
-5.57693e-05

>  <r_i_glide_hbond>  (385) 
0

>  <r_i_glide_metal>  (385) 
-0

>  <r_i_glide_rewards>  (385) 
-1.34214

>  <r_i_glide_evdw>  (385) 
-18.9553

>  <r_i_glide_ecoul>  (385) 
-6.69662

>  <r_i_glide_erotb>  (385) 
0

>  <r_i_glide_esite>  (385) 
0

>  <r_i_glide_emodel>  (385) 
-36.9522

>  <r_i_glide_energy>  (385) 
-25.6519

>  <r_i_glide_einternal>  (385) 
0.731425

>  <r_i_glide_intrahb_reward>  (385) 
-0.5

>  <i_i_glide_confnum>  (385) 
2

>  <i_i_glide_posenum>  (385) 
7

>  <r_i_glide_eff_state_penalty>  (385) 
0

>  <ligand_id>  (385) 
105

>  <original_smiles>  (385) 
CC1=C2CC3C4(O)CC5C(O)CCC6(C(CC4C6(C)C2O)C(O)C1O)C53C

>  <smiles>  (385) 
[H]OC1([H])C(C([H])([H])[H])=C2C([H])([H])C3([H])C4(O[H])C([H])([H])C5([H])C([H])(O[H])C([H])([H])C([H])([H])C6(C([H])(C([H])([H])C4([H])C6(C([H])([H])[H])C2([H])O[H])C1([H])O[H])C53C([H])([H])[H]

$$$$
105:1:2
     RDKit          3D

 59 64  0  0  1  0  0  0  0  0999 V2000
   -2.5453    3.0865    3.5522 C   0  0  0  0  0  0  0  0  0  0  0  0
   -1.0263    3.1040    3.4501 C   0  0  0  0  0  0  0  0  0  0  0  0
   -0.3337    2.0517    2.8773 C   0  0  0  0  0  0  0  0  0  0  0  0
   -0.5921    0.5479    2.8969 C   0  0  0  0  0  0  0  0  0  0  0  0
    0.2145   -0.2268    4.0770 C   0  0  1  0  0  0  0  0  0  0  0  0
    1.7579   -0.2506    4.4543 C   0  0  2  0  0  0  0  0  0  0  0  0
    2.4454   -1.0384    3.5073 O   0  0  0  0  0  0  0  0  0  0  0  0
    1.7389   -0.9570    5.8466 C   0  0  0  0  0  0  0  0  0  0  0  0
    0.4043   -0.5112    6.4925 C   0  0  1  0  0  0  0  0  0  0  0  0
    0.2067    0.2318    7.8544 C   0  0  1  0  0  0  0  0  0  0  0  0
    1.3826    0.3718    8.6151 O   0  0  0  0  0  0  0  0  0  0  0  0
   -0.6757    1.5502    7.8219 C   0  0  0  0  0  0  0  0  0  0  0  0
   -0.8113    2.3356    6.4431 C   0  0  0  0  0  0  0  0  0  0  0  0
    0.3612    1.8759    5.4232 C   0  0  2  0  0  0  0  0  0  0  0  0
    1.3087    2.7600    6.1770 C   0  0  1  0  0  0  0  0  0  0  0  0
    2.6109    1.8822    5.9766 C   0  0  0  0  0  0  0  0  0  0  0  0
    2.4833    1.1422    4.5959 C   0  0  2  0  0  0  0  0  0  0  0  0
    1.5597    2.2023    4.1169 C   0  0  2  0  0  0  0  0  0  0  0  0
    2.6821    3.3583    3.7879 C   0  0  0  0  0  0  0  0  0  0  0  0
    1.0888    2.1780    2.6814 C   0  0  1  0  0  0  0  0  0  0  0  0
    1.7115    1.2593    1.7886 O   0  0  0  0  0  0  0  0  0  0  0  0
    0.7947    4.2222    5.5060 C   0  0  1  0  0  0  0  0  0  0  0  0
    1.7326    5.2772    5.5941 O   0  0  0  0  0  0  0  0  0  0  0  0
   -0.3082    4.3338    4.2142 C   0  0  1  0  0  0  0  0  0  0  0  0
    0.0485    5.3344    3.2817 O   0  0  0  0  0  0  0  0  0  0  0  0
   -0.2099    0.3313    5.3998 C   0  0  1  0  0  0  0  0  0  0  0  0
   -1.7559   -0.0469    5.4544 C   0  0  0  0  0  0  0  0  0  0  0  0
   -2.9178    3.2515    4.5607 H   0  0  0  0  0  0  0  0  0  0  0  0
   -2.9671    2.1551    3.1794 H   0  0  0  0  0  0  0  0  0  0  0  0
   -2.9409    3.8834    2.9257 H   0  0  0  0  0  0  0  0  0  0  0  0
   -1.6610    0.3651    2.9292 H   0  0  0  0  0  0  0  0  0  0  0  0
   -0.3312    0.1247    1.9293 H   0  0  0  0  0  0  0  0  0  0  0  0
   -0.0749   -1.2750    3.9789 H   0  0  0  0  0  0  0  0  0  0  0  0
    2.4190   -0.5608    2.6833 H   0  0  0  0  0  0  0  0  0  0  0  0
    1.6781   -2.0312    5.6730 H   0  0  0  0  0  0  0  0  0  0  0  0
    2.6347   -0.8319    6.4514 H   0  0  0  0  0  0  0  0  0  0  0  0
   -0.1564   -1.4449    6.5858 H   0  0  0  0  0  0  0  0  0  0  0  0
   -0.3617   -0.4547    8.4796 H   0  0  0  0  0  0  0  0  0  0  0  0
    1.9730    0.9623    8.1693 H   0  0  0  0  0  0  0  0  0  0  0  0
   -1.6798    1.3273    8.1841 H   0  0  0  0  0  0  0  0  0  0  0  0
   -0.2948    2.2289    8.5889 H   0  0  0  0  0  0  0  0  0  0  0  0
   -1.8019    2.2058    6.0403 H   0  0  0  0  0  0  0  0  0  0  0  0
   -0.9999    3.3511    6.7543 H   0  0  0  0  0  0  0  0  0  0  0  0
    1.2683    2.8878    7.2575 H   0  0  0  0  0  0  0  0  0  0  0  0
    3.5238    2.4614    6.0951 H   0  0  0  0  0  0  0  0  0  0  0  0
    2.7399    1.1822    6.7844 H   0  0  0  0  0  0  0  0  0  0  0  0
    3.4563    1.1069    4.0969 H   0  0  0  0  0  0  0  0  0  0  0  0
    3.3791    3.0044    3.0207 H   0  0  0  0  0  0  0  0  0  0  0  0
    3.3544    3.7136    4.5646 H   0  0  0  0  0  0  0  0  0  0  0  0
    2.3014    4.2837    3.3566 H   0  0  0  0  0  0  0  0  0  0  0  0
    1.1583    3.1153    2.1415 H   0  0  0  0  0  0  0  0  0  0  0  0
    1.1650    1.2088    1.0127 H   0  0  0  0  0  0  0  0  0  0  0  0
    0.2621    4.7234    6.3094 H   0  0  0  0  0  0  0  0  0  0  0  0
    2.3024    5.2103    4.8410 H   0  0  0  0  0  0  0  0  0  0  0  0
   -1.1546    4.8131    4.7063 H   0  0  0  0  0  0  0  0  0  0  0  0
    0.1216    4.9583    2.3926 H   0  0  0  0  0  0  0  0  0  0  0  0
   -2.1766   -0.0204    6.4566 H   0  0  0  0  0  0  0  0  0  0  0  0
   -1.9355   -1.0709    5.1157 H   0  0  0  0  0  0  0  0  0  0  0  0
   -2.4006    0.5837    4.8469 H   0  0  0  0  0  0  0  0  0  0  0  0
  1  2  1  0
  1 28  1  0
  1 29  1  0
  1 30  1  0
  2 24  1  0
  2  3  2  3
  3 20  1  0
  3  4  1  0
  4  5  1  0
  4 31  1  0
  4 32  1  0
  5 26  1  0
  5  6  1  0
  5 33  1  1
  6 17  1  0
  6  7  1  6
  6  8  1  0
  7 34  1  0
  8  9  1  0
  8 35  1  0
  8 36  1  0
  9 26  1  0
  9 10  1  0
  9 37  1  1
 10 11  1  0
 10 12  1  0
 10 38  1  1
 11 39  1  0
 12 13  1  0
 12 40  1  0
 12 41  1  0
 14 13  1  6
 13 42  1  0
 13 43  1  0
 14 18  1  0
 14 15  1  0
 14 26  1  0
 15 16  1  0
 15 22  1  0
 15 44  1  1
 16 17  1  0
 16 45  1  0
 16 46  1  0
 17 18  1  0
 17 47  1  6
 18 19  1  1
 18 20  1  0
 19 48  1  0
 19 49  1  0
 19 50  1  0
 20 21  1  0
 20 51  1  6
 21 52  1  0
 22 23  1  0
 22 24  1  0
 22 53  1  1
 23 54  1  0
 24 25  1  0
 24 55  1  1
 25 56  1  0
 26 27  1  6
 27 57  1  0
 27 58  1  0
 27 59  1  0
M  END
>  <i_m_ct_stereo_status>  (386) 
1

>  <s_m_source_file>  (386) 
/var/tmp/pbs.5076255.sched01/tmpm28zzdm2/1449lyhn0we.sdf

>  <i_m_source_file_index>  (386) 
24

>  <i_lp_mmshare_version>  (386) 
48012

>  <i_f3d_flags>  (386) 
2

>  <s_epik_input>  (386) 
W09IXVtDQEhdMVtDQEBIXShbT0hdKUMoXFtDSDNdKT1DKFtDQEhdKFtPSF0pW0NAQF0yM1tDSDNdKVxbQ0gyXVtDQEBIXShbQ0BAXTQoW09IXSlbQ0BASF0zW0NIMl1bQ0BASF0xW0NAXTI1NilbQ0BAXTYoW0NIM10pW0NAQEhdKFtDSDJdNClbQ0BASF0oW09IXSlbQ0gyXVtDSDJdNQ==

>  <s_epik_cmdline>  (386) 
J2VwaWtfcHl0aG9uJywgJy1waHQnLCAnMi4wJywgJy1waCcsICc3LjAnLCAnLXRuJywgJzgnLCAnLW1hJywgJzIwMCcsICctaW1hZScsICc8aW5maWxlLm1hZT4nLCAnLW9tYWUnLCAnPG91dGZpbGUubWFlPic=

>  <r_lp_tautomer_probability>  (386) 
1

>  <r_epik_Ionization_Penalty>  (386) 
2.90729e-06

>  <r_epik_Ionization_Penalty_Charging>  (386) 
0

>  <r_epik_Ionization_Penalty_Neutral>  (386) 
2.90729e-06

>  <r_epik_State_Penalty>  (386) 
-0

>  <r_epik_Charging_Adjusted_Penalty>  (386) 
0

>  <i_epik_Tot_Q>  (386) 
0

>  <i_epik_Tot_abs_Q>  (386) 
0

>  <s_lp_Force_Field>  (386) 
OPLS3e

>  <r_lp_Energy>  (386) 
410.962

>  <b_lp_Chiralities_Consistent>  (386) 
0

>  <s_lp_Variant>  (386) 
105:0-2

>  <s_i_glide_gridfile>  (386) 
pfpi4k_grid

>  <i_i_glide_lignum>  (386) 
24

>  <i_i_glide_rotatable_bonds>  (386) 
5

>  <r_i_docking_score>  (386) 
-3.13796

>  <r_i_glide_ligand_efficiency>  (386) 
-0.116221

>  <r_i_glide_ligand_efficiency_sa>  (386) 
-0.348662

>  <r_i_glide_ligand_efficiency_ln>  (386) 
-0.730464

>  <r_i_glide_gscore>  (386) 
-3.13796

>  <r_i_glide_lipo>  (386) 
0

>  <r_i_glide_hbond>  (386) 
0

>  <r_i_glide_metal>  (386) 
-0

>  <r_i_glide_rewards>  (386) 
-1.34214

>  <r_i_glide_evdw>  (386) 
-23.0298

>  <r_i_glide_ecoul>  (386) 
-4.29553

>  <r_i_glide_erotb>  (386) 
0

>  <r_i_glide_esite>  (386) 
0

>  <r_i_glide_emodel>  (386) 
-37.7469

>  <r_i_glide_energy>  (386) 
-27.3253

>  <r_i_glide_einternal>  (386) 
1.78819

>  <r_i_glide_intrahb_reward>  (386) 
-0.5

>  <i_i_glide_confnum>  (386) 
2

>  <i_i_glide_posenum>  (386) 
27

>  <r_i_glide_eff_state_penalty>  (386) 
0

>  <ligand_id>  (386) 
105

>  <original_smiles>  (386) 
CC1=C2CC3C4(O)CC5C(O)CCC6(C(CC4C6(C)C2O)C(O)C1O)C53C

>  <smiles>  (386) 
[H]OC1([H])C(C([H])([H])[H])=C2C([H])([H])C3([H])C4(O[H])C([H])([H])C5([H])C([H])(O[H])C([H])([H])C([H])([H])C6(C([H])(C([H])([H])C4([H])C6(C([H])([H])[H])C2([H])O[H])C1([H])O[H])C53C([H])([H])[H]

$$$$
106:0:0
     RDKit          3D

 39 42  0  0  1  0  0  0  0  0999 V2000
    0.9311   -6.2880    4.7685 C   0  0  0  0  0  0  0  0  0  0  0  0
    1.6143   -6.3962    3.3986 C   0  0  1  0  0  0  0  0  0  0  0  0
    2.0929   -5.0281    2.8420 C   0  0  0  0  0  0  0  0  0  0  0  0
    3.4723   -5.2879    2.2959 C   0  0  0  0  0  0  0  0  0  0  0  0
    3.8711   -6.5372    2.5678 C   0  0  0  0  0  0  0  0  0  0  0  0
    5.2616   -7.0268    2.2281 C   0  0  0  0  0  0  0  0  0  0  0  0
    5.8673   -6.2067    1.0654 C   0  0  0  0  0  0  0  0  0  0  0  0
    5.5178   -4.7247    1.1269 C   0  0  0  0  0  0  0  0  0  0  0  0
    4.3649   -4.3005    1.6898 C   0  0  0  0  0  0  0  0  0  0  0  0
    4.0473   -2.8046    1.7711 C   0  0  0  0  0  0  0  0  0  0  0  0
    5.2931   -1.8998    1.6806 C   0  0  0  0  0  0  0  0  0  0  0  0
    6.1845   -2.3244    0.5224 C   0  0  0  0  0  0  0  0  0  0  0  0
    6.6127   -1.5108   -0.3010 O   0  0  0  0  0  0  0  0  0  0  0  0
    6.5449   -3.8075    0.4503 C   0  0  0  0  0  0  0  0  0  0  0  0
    2.8819   -7.2928    3.4401 C   0  0  2  0  0  0  0  0  0  0  0  0
    2.4269   -8.6987    2.9717 C   0  0  0  0  0  0  0  0  0  0  0  0
    1.1953   -8.5287    2.0888 C   0  0  0  0  0  0  0  0  0  0  0  0
    0.7057   -7.1348    2.4121 C   0  0  0  0  0  0  0  0  0  0  0  0
   -0.3213   -6.6515    1.9351 O   0  0  0  0  0  0  0  0  0  0  0  0
    1.6319   -5.9580    5.5295 H   0  0  0  0  0  0  0  0  0  0  0  0
    0.5374   -7.2485    5.0922 H   0  0  0  0  0  0  0  0  0  0  0  0
    0.1019   -5.5842    4.7580 H   0  0  0  0  0  0  0  0  0  0  0  0
    1.4576   -4.6308    2.0530 H   0  0  0  0  0  0  0  0  0  0  0  0
    2.1644   -4.2740    3.6279 H   0  0  0  0  0  0  0  0  0  0  0  0
    5.8541   -6.8887    3.1315 H   0  0  0  0  0  0  0  0  0  0  0  0
    5.2651   -8.0916    1.9962 H   0  0  0  0  0  0  0  0  0  0  0  0
    6.9485   -6.3433    1.0306 H   0  0  0  0  0  0  0  0  0  0  0  0
    5.4588   -6.5684    0.1218 H   0  0  0  0  0  0  0  0  0  0  0  0
    3.3826   -2.5750    0.9406 H   0  0  0  0  0  0  0  0  0  0  0  0
    3.5031   -2.5763    2.6907 H   0  0  0  0  0  0  0  0  0  0  0  0
    5.0081   -0.8573    1.5743 H   0  0  0  0  0  0  0  0  0  0  0  0
    5.8817   -1.9623    2.5962 H   0  0  0  0  0  0  0  0  0  0  0  0
    7.5272   -3.9364    0.9012 H   0  0  0  0  0  0  0  0  0  0  0  0
    6.6527   -4.0853   -0.5956 H   0  0  0  0  0  0  0  0  0  0  0  0
    3.3010   -7.3424    4.4495 H   0  0  0  0  0  0  0  0  0  0  0  0
    3.1964   -9.3040    2.5032 H   0  0  0  0  0  0  0  0  0  0  0  0
    2.0792   -9.2437    3.8494 H   0  0  0  0  0  0  0  0  0  0  0  0
    1.4203   -8.6163    1.0226 H   0  0  0  0  0  0  0  0  0  0  0  0
    0.4143   -9.2499    2.3236 H   0  0  0  0  0  0  0  0  0  0  0  0
  2  1  1  1
  1 20  1  0
  1 21  1  0
  1 22  1  0
  2 15  1  0
  2 18  1  0
  2  3  1  0
  3  4  1  0
  3 23  1  0
  3 24  1  0
  4  9  1  0
  4  5  2  0
  5  6  1  0
  5 15  1  0
  6  7  1  0
  6 25  1  0
  6 26  1  0
  7  8  1  0
  7 27  1  0
  7 28  1  0
  8 14  1  0
  8  9  2  0
  9 10  1  0
 10 11  1  0
 10 29  1  0
 10 30  1  0
 11 12  1  0
 11 31  1  0
 11 32  1  0
 12 13  2  0
 12 14  1  0
 14 33  1  0
 14 34  1  0
 15 16  1  0
 15 35  1  1
 16 17  1  0
 16 36  1  0
 16 37  1  0
 17 18  1  0
 17 38  1  0
 17 39  1  0
 18 19  2  0
M  END
>  <i_m_ct_stereo_status>  (387) 
1

>  <s_m_source_file>  (387) 
/var/tmp/pbs.5076255.sched01/tmpm28zzdm2/1449lyhn0we.sdf

>  <i_m_source_file_index>  (387) 
25

>  <i_lp_mmshare_version>  (387) 
48012

>  <i_f3d_flags>  (387) 
0

>  <s_epik_input>  (387) 
Tz1DMVtDSDJdW0NIMl1bQ0BIXShbQ0BdMTJbQ0gzXSlDMz1DKFtDSDJdMilDND1DKFtDSDJdW0NIMl0zKVtDSDJdQyg9TylbQ0gyXVtDSDJdNA==

>  <s_epik_cmdline>  (387) 
J2VwaWtfcHl0aG9uJywgJy1waHQnLCAnMi4wJywgJy1waCcsICc3LjAnLCAnLXRuJywgJzgnLCAnLW1hJywgJzIwMCcsICctaW1hZScsICc8aW5maWxlLm1hZT4nLCAnLW9tYWUnLCAnPG91dGZpbGUubWFlPic=

>  <r_lp_tautomer_probability>  (387) 
1

>  <r_epik_Ionization_Penalty>  (387) 
1.35571e-12

>  <r_epik_Ionization_Penalty_Charging>  (387) 
0

>  <r_epik_Ionization_Penalty_Neutral>  (387) 
1.35571e-12

>  <r_epik_State_Penalty>  (387) 
-0

>  <r_epik_Charging_Adjusted_Penalty>  (387) 
0

>  <i_epik_Tot_Q>  (387) 
0

>  <i_epik_Tot_abs_Q>  (387) 
0

>  <s_lp_Force_Field>  (387) 
OPLS3e

>  <r_lp_Energy>  (387) 
12.2698

>  <b_lp_Chiralities_Consistent>  (387) 
1

>  <s_lp_Variant>  (387) 
106:0-1

>  <s_i_glide_gridfile>  (387) 
pfpi4k_grid

>  <i_i_glide_lignum>  (387) 
25

>  <i_i_glide_rotatable_bonds>  (387) 
0

>  <r_i_docking_score>  (387) 
-4.15042

>  <r_i_glide_ligand_efficiency>  (387) 
-0.218443

>  <r_i_glide_ligand_efficiency_sa>  (387) 
-0.582894

>  <r_i_glide_ligand_efficiency_ln>  (387) 
-1.05222

>  <r_i_glide_gscore>  (387) 
-4.15042

>  <r_i_glide_lipo>  (387) 
-0.367352

>  <r_i_glide_hbond>  (387) 
-0.309177

>  <r_i_glide_metal>  (387) 
-0

>  <r_i_glide_rewards>  (387) 
-1.76135

>  <r_i_glide_evdw>  (387) 
-18.2781

>  <r_i_glide_ecoul>  (387) 
-4.99112

>  <r_i_glide_erotb>  (387) 
0

>  <r_i_glide_esite>  (387) 
-0.0499679

>  <r_i_glide_emodel>  (387) 
-29.9391

>  <r_i_glide_energy>  (387) 
-23.2692

>  <r_i_glide_einternal>  (387) 
0

>  <r_i_glide_intrahb_reward>  (387) 
-0

>  <i_i_glide_confnum>  (387) 
1

>  <i_i_glide_posenum>  (387) 
1

>  <r_i_glide_eff_state_penalty>  (387) 
0

>  <ligand_id>  (387) 
106

>  <original_smiles>  (387) 
CC12CC3=C(CCC4=C3CCC(=O)C4)C1CCC2=O

>  <smiles>  (387) 
[H]C1([H])C(=O)C([H])([H])C([H])([H])C2=C1C([H])([H])C([H])([H])C1=C2C([H])([H])C2(C([H])([H])[H])C(=O)C([H])([H])C([H])([H])C12[H]

$$$$
106:0:1
     RDKit          3D

 39 42  0  0  1  0  0  0  0  0999 V2000
    2.5869    1.1718    2.7954 C   0  0  0  0  0  0  0  0  0  0  0  0
    3.0899   -0.2504    2.5420 C   0  0  1  0  0  0  0  0  0  0  0  0
    2.7612   -0.7836    1.1205 C   0  0  0  0  0  0  0  0  0  0  0  0
    4.0224   -1.4351    0.6071 C   0  0  0  0  0  0  0  0  0  0  0  0
    5.0139   -1.2865    1.4694 C   0  0  0  0  0  0  0  0  0  0  0  0
    6.4219   -1.7145    1.1504 C   0  0  0  0  0  0  0  0  0  0  0  0
    6.4226   -2.8699    0.1280 C   0  0  0  0  0  0  0  0  0  0  0  0
    5.3651   -2.6999   -0.9612 C   0  0  0  0  0  0  0  0  0  0  0  0
    4.2158   -2.0337   -0.7271 C   0  0  0  0  0  0  0  0  0  0  0  0
    3.2069   -1.8552   -1.8479 C   0  0  0  0  0  0  0  0  0  0  0  0
    3.7713   -1.9786   -3.2605 C   0  0  0  0  0  0  0  0  0  0  0  0
    4.6388   -3.2068   -3.3637 C   0  0  0  0  0  0  0  0  0  0  0  0
    4.5474   -3.9789   -4.3208 O   0  0  0  0  0  0  0  0  0  0  0  0
    5.7033   -3.4075   -2.2819 C   0  0  0  0  0  0  0  0  0  0  0  0
    4.6338   -0.3743    2.6386 C   0  0  2  0  0  0  0  0  0  0  0  0
    4.9190   -0.9020    4.0788 C   0  0  0  0  0  0  0  0  0  0  0  0
    3.6763   -1.6533    4.5682 C   0  0  0  0  0  0  0  0  0  0  0  0
    2.5998   -1.2091    3.6139 C   0  0  0  0  0  0  0  0  0  0  0  0
    1.4259   -1.5799    3.7197 O   0  0  0  0  0  0  0  0  0  0  0  0
    3.0785    1.8904    2.1505 H   0  0  0  0  0  0  0  0  0  0  0  0
    2.7745    1.4726    3.8240 H   0  0  0  0  0  0  0  0  0  0  0  0
    1.5151    1.2588    2.6219 H   0  0  0  0  0  0  0  0  0  0  0  0
    1.9556   -1.5111    1.1096 H   0  0  0  0  0  0  0  0  0  0  0  0
    2.4975    0.0566    0.4824 H   0  0  0  0  0  0  0  0  0  0  0  0
    6.9387   -0.8443    0.7435 H   0  0  0  0  0  0  0  0  0  0  0  0
    6.9225   -2.0159    2.0600 H   0  0  0  0  0  0  0  0  0  0  0  0
    7.4074   -2.9974   -0.3140 H   0  0  0  0  0  0  0  0  0  0  0  0
    6.1756   -3.8030    0.6380 H   0  0  0  0  0  0  0  0  0  0  0  0
    2.4420   -2.6186   -1.7010 H   0  0  0  0  0  0  0  0  0  0  0  0
    2.7161   -0.8804   -1.7763 H   0  0  0  0  0  0  0  0  0  0  0  0
    2.9757   -2.0041   -3.9992 H   0  0  0  0  0  0  0  0  0  0  0  0
    4.3936   -1.1186   -3.5013 H   0  0  0  0  0  0  0  0  0  0  0  0
    6.6489   -3.0516   -2.6760 H   0  0  0  0  0  0  0  0  0  0  0  0
    5.8013   -4.4686   -2.0895 H   0  0  0  0  0  0  0  0  0  0  0  0
    5.1617    0.5431    2.4675 H   0  0  0  0  0  0  0  0  0  0  0  0
    5.8107   -1.4675    4.1962 H   0  0  0  0  0  0  0  0  0  0  0  0
    4.9768   -0.0007    4.7100 H   0  0  0  0  0  0  0  0  0  0  0  0
    3.8334   -2.7319    4.5120 H   0  0  0  0  0  0  0  0  0  0  0  0
    3.4230   -1.3861    5.5883 H   0  0  0  0  0  0  0  0  0  0  0  0
  2  1  1  1
  1 20  1  0
  1 21  1  0
  1 22  1  0
  2 15  1  0
  2 18  1  0
  2  3  1  0
  3  4  1  0
  3 23  1  0
  3 24  1  0
  4  9  1  0
  4  5  2  0
  5  6  1  0
  5 15  1  0
  6  7  1  0
  6 25  1  0
  6 26  1  0
  7  8  1  0
  7 27  1  0
  7 28  1  0
  8 14  1  0
  8  9  2  0
  9 10  1  0
 10 11  1  0
 10 29  1  0
 10 30  1  0
 11 12  1  0
 11 31  1  0
 11 32  1  0
 12 13  2  0
 12 14  1  0
 14 33  1  0
 14 34  1  0
 15 16  1  0
 15 35  1  6
 16 17  1  0
 16 36  1  0
 16 37  1  0
 17 18  1  0
 17 38  1  0
 17 39  1  0
 18 19  2  0
M  END
>  <i_m_ct_stereo_status>  (388) 
1

>  <s_m_source_file>  (388) 
/var/tmp/pbs.5076255.sched01/tmpm28zzdm2/1449lyhn0we.sdf

>  <i_m_source_file_index>  (388) 
25

>  <i_lp_mmshare_version>  (388) 
48012

>  <i_f3d_flags>  (388) 
0

>  <s_epik_input>  (388) 
Tz1DMVtDSDJdW0NIMl1bQ0BIXShbQ0BdMTJbQ0gzXSlDMz1DKFtDSDJdMilDND1DKFtDSDJdW0NIMl0zKVtDSDJdQyg9TylbQ0gyXVtDSDJdNA==

>  <s_epik_cmdline>  (388) 
J2VwaWtfcHl0aG9uJywgJy1waHQnLCAnMi4wJywgJy1waCcsICc3LjAnLCAnLXRuJywgJzgnLCAnLW1hJywgJzIwMCcsICctaW1hZScsICc8aW5maWxlLm1hZT4nLCAnLW9tYWUnLCAnPG91dGZpbGUubWFlPic=

>  <r_lp_tautomer_probability>  (388) 
1

>  <r_epik_Ionization_Penalty>  (388) 
1.35571e-12

>  <r_epik_Ionization_Penalty_Charging>  (388) 
0

>  <r_epik_Ionization_Penalty_Neutral>  (388) 
1.35571e-12

>  <r_epik_State_Penalty>  (388) 
-0

>  <r_epik_Charging_Adjusted_Penalty>  (388) 
0

>  <i_epik_Tot_Q>  (388) 
0

>  <i_epik_Tot_abs_Q>  (388) 
0

>  <s_lp_Force_Field>  (388) 
OPLS3e

>  <r_lp_Energy>  (388) 
12.2698

>  <b_lp_Chiralities_Consistent>  (388) 
1

>  <s_lp_Variant>  (388) 
106:0-1

>  <s_i_glide_gridfile>  (388) 
pfpi4k_grid

>  <i_i_glide_lignum>  (388) 
25

>  <i_i_glide_rotatable_bonds>  (388) 
0

>  <r_i_docking_score>  (388) 
-3.88578

>  <r_i_glide_ligand_efficiency>  (388) 
-0.204515

>  <r_i_glide_ligand_efficiency_sa>  (388) 
-0.545727

>  <r_i_glide_ligand_efficiency_ln>  (388) 
-0.985128

>  <r_i_glide_gscore>  (388) 
-3.88578

>  <r_i_glide_lipo>  (388) 
-0.781526

>  <r_i_glide_hbond>  (388) 
-0.00875674

>  <r_i_glide_metal>  (388) 
-0

>  <r_i_glide_rewards>  (388) 
-1.92109

>  <r_i_glide_evdw>  (388) 
-21.8718

>  <r_i_glide_ecoul>  (388) 
-0.53827

>  <r_i_glide_erotb>  (388) 
0

>  <r_i_glide_esite>  (388) 
-7.37192e-05

>  <r_i_glide_emodel>  (388) 
-28.4196

>  <r_i_glide_energy>  (388) 
-22.4101

>  <r_i_glide_einternal>  (388) 
0

>  <r_i_glide_intrahb_reward>  (388) 
-0

>  <i_i_glide_confnum>  (388) 
1

>  <i_i_glide_posenum>  (388) 
10

>  <r_i_glide_eff_state_penalty>  (388) 
0

>  <ligand_id>  (388) 
106

>  <original_smiles>  (388) 
CC12CC3=C(CCC4=C3CCC(=O)C4)C1CCC2=O

>  <smiles>  (388) 
[H]C1([H])C(=O)C([H])([H])C([H])([H])C2=C1C([H])([H])C([H])([H])C1=C2C([H])([H])C2(C([H])([H])[H])C(=O)C([H])([H])C([H])([H])C12[H]

$$$$
106:0:2
     RDKit          3D

 39 42  0  0  1  0  0  0  0  0999 V2000
    5.6287   -3.6641   -2.4178 C   0  0  0  0  0  0  0  0  0  0  0  0
    4.3823   -3.0285   -1.8079 C   0  0  1  0  0  0  0  0  0  0  0  0
    3.7042   -3.9083   -0.7212 C   0  0  0  0  0  0  0  0  0  0  0  0
    3.3825   -2.9541    0.3949 C   0  0  0  0  0  0  0  0  0  0  0  0
    3.8702   -1.7416    0.1504 C   0  0  0  0  0  0  0  0  0  0  0  0
    3.7920   -0.6190    1.1617 C   0  0  0  0  0  0  0  0  0  0  0  0
    2.5974   -0.8411    2.1275 C   0  0  0  0  0  0  0  0  0  0  0  0
    2.4043   -2.3044    2.5140 C   0  0  0  0  0  0  0  0  0  0  0  0
    2.7597   -3.3035    1.6738 C   0  0  0  0  0  0  0  0  0  0  0  0
    2.5884   -4.7694    2.0816 C   0  0  0  0  0  0  0  0  0  0  0  0
    2.5133   -4.9853    3.6031 C   0  0  0  0  0  0  0  0  0  0  0  0
    1.5390   -3.9995    4.2276 C   0  0  0  0  0  0  0  0  0  0  0  0
    0.6439   -4.3709    4.9889 O   0  0  0  0  0  0  0  0  0  0  0  0
    1.7218   -2.5208    3.8725 C   0  0  0  0  0  0  0  0  0  0  0  0
    4.7273   -1.7027   -1.1048 C   0  0  2  0  0  0  0  0  0  0  0  0
    4.4318   -0.6434   -2.1835 C   0  0  0  0  0  0  0  0  0  0  0  0
    3.3777   -1.1516   -3.1627 C   0  0  0  0  0  0  0  0  0  0  0  0
    3.4210   -2.6367   -2.9456 C   0  0  0  0  0  0  0  0  0  0  0  0
    2.7995   -3.4297   -3.6493 O   0  0  0  0  0  0  0  0  0  0  0  0
    6.4067   -3.7764   -1.6676 H   0  0  0  0  0  0  0  0  0  0  0  0
    6.0385   -3.0673   -3.2335 H   0  0  0  0  0  0  0  0  0  0  0  0
    5.4004   -4.6504   -2.8158 H   0  0  0  0  0  0  0  0  0  0  0  0
    2.7802   -4.3806   -1.0593 H   0  0  0  0  0  0  0  0  0  0  0  0
    4.3798   -4.6843   -0.3593 H   0  0  0  0  0  0  0  0  0  0  0  0
    4.7207   -0.6416    1.7303 H   0  0  0  0  0  0  0  0  0  0  0  0
    3.7207    0.3576    0.6866 H   0  0  0  0  0  0  0  0  0  0  0  0
    2.6999   -0.2259    3.0215 H   0  0  0  0  0  0  0  0  0  0  0  0
    1.6745   -0.5386    1.6351 H   0  0  0  0  0  0  0  0  0  0  0  0
    1.6556   -5.1145    1.6424 H   0  0  0  0  0  0  0  0  0  0  0  0
    3.3843   -5.3942    1.6657 H   0  0  0  0  0  0  0  0  0  0  0  0
    2.2280   -6.0076    3.8504 H   0  0  0  0  0  0  0  0  0  0  0  0
    3.4885   -4.8260    4.0645 H   0  0  0  0  0  0  0  0  0  0  0  0
    2.3000   -2.0542    4.6667 H   0  0  0  0  0  0  0  0  0  0  0  0
    0.7439   -2.0418    3.8783 H   0  0  0  0  0  0  0  0  0  0  0  0
    5.7713   -1.6581   -0.8003 H   0  0  0  0  0  0  0  0  0  0  0  0
    4.2143    0.3365   -1.8227 H   0  0  0  0  0  0  0  0  0  0  0  0
    5.3718   -0.5298   -2.7255 H   0  0  0  0  0  0  0  0  0  0  0  0
    2.3894   -0.7547   -2.9269 H   0  0  0  0  0  0  0  0  0  0  0  0
    3.6105   -0.8981   -4.1932 H   0  0  0  0  0  0  0  0  0  0  0  0
  2  1  1  6
  1 20  1  0
  1 21  1  0
  1 22  1  0
  2 15  1  0
  2 18  1  0
  2  3  1  0
  3  4  1  0
  3 23  1  0
  3 24  1  0
  4  9  1  0
  4  5  2  0
  5  6  1  0
  5 15  1  0
  6  7  1  0
  6 25  1  0
  6 26  1  0
  7  8  1  0
  7 27  1  0
  7 28  1  0
  8 14  1  0
  8  9  2  0
  9 10  1  0
 10 11  1  0
 10 29  1  0
 10 30  1  0
 11 12  1  0
 11 31  1  0
 11 32  1  0
 12 13  2  0
 12 14  1  0
 14 33  1  0
 14 34  1  0
 15 16  1  0
 15 35  1  1
 16 17  1  0
 16 36  1  0
 16 37  1  0
 17 18  1  0
 17 38  1  0
 17 39  1  0
 18 19  2  0
M  END
>  <i_m_ct_stereo_status>  (389) 
1

>  <s_m_source_file>  (389) 
/var/tmp/pbs.5076255.sched01/tmpm28zzdm2/1449lyhn0we.sdf

>  <i_m_source_file_index>  (389) 
25

>  <i_lp_mmshare_version>  (389) 
48012

>  <i_f3d_flags>  (389) 
0

>  <s_epik_input>  (389) 
Tz1DMVtDSDJdW0NIMl1bQ0BIXShbQ0BdMTJbQ0gzXSlDMz1DKFtDSDJdMilDND1DKFtDSDJdW0NIMl0zKVtDSDJdQyg9TylbQ0gyXVtDSDJdNA==

>  <s_epik_cmdline>  (389) 
J2VwaWtfcHl0aG9uJywgJy1waHQnLCAnMi4wJywgJy1waCcsICc3LjAnLCAnLXRuJywgJzgnLCAnLW1hJywgJzIwMCcsICctaW1hZScsICc8aW5maWxlLm1hZT4nLCAnLW9tYWUnLCAnPG91dGZpbGUubWFlPic=

>  <r_lp_tautomer_probability>  (389) 
1

>  <r_epik_Ionization_Penalty>  (389) 
1.35571e-12

>  <r_epik_Ionization_Penalty_Charging>  (389) 
0

>  <r_epik_Ionization_Penalty_Neutral>  (389) 
1.35571e-12

>  <r_epik_State_Penalty>  (389) 
-0

>  <r_epik_Charging_Adjusted_Penalty>  (389) 
0

>  <i_epik_Tot_Q>  (389) 
0

>  <i_epik_Tot_abs_Q>  (389) 
0

>  <s_lp_Force_Field>  (389) 
OPLS3e

>  <r_lp_Energy>  (389) 
12.2698

>  <b_lp_Chiralities_Consistent>  (389) 
1

>  <s_lp_Variant>  (389) 
106:0-1

>  <s_i_glide_gridfile>  (389) 
pfpi4k_grid

>  <i_i_glide_lignum>  (389) 
25

>  <i_i_glide_rotatable_bonds>  (389) 
0

>  <r_i_docking_score>  (389) 
-2.87838

>  <r_i_glide_ligand_efficiency>  (389) 
-0.151494

>  <r_i_glide_ligand_efficiency_sa>  (389) 
-0.404246

>  <r_i_glide_ligand_efficiency_ln>  (389) 
-0.729731

>  <r_i_glide_gscore>  (389) 
-2.87838

>  <r_i_glide_lipo>  (389) 
-0.214437

>  <r_i_glide_hbond>  (389) 
0

>  <r_i_glide_metal>  (389) 
-0

>  <r_i_glide_rewards>  (389) 
-1.70069

>  <r_i_glide_evdw>  (389) 
-22.4433

>  <r_i_glide_ecoul>  (389) 
1.05943

>  <r_i_glide_erotb>  (389) 
0

>  <r_i_glide_esite>  (389) 
0

>  <r_i_glide_emodel>  (389) 
-25.4995

>  <r_i_glide_energy>  (389) 
-21.3839

>  <r_i_glide_einternal>  (389) 
0

>  <r_i_glide_intrahb_reward>  (389) 
-0

>  <i_i_glide_confnum>  (389) 
2

>  <i_i_glide_posenum>  (389) 
3

>  <r_i_glide_eff_state_penalty>  (389) 
0

>  <ligand_id>  (389) 
106

>  <original_smiles>  (389) 
CC12CC3=C(CCC4=C3CCC(=O)C4)C1CCC2=O

>  <smiles>  (389) 
[H]C1([H])C(=O)C([H])([H])C([H])([H])C2=C1C([H])([H])C([H])([H])C1=C2C([H])([H])C2(C([H])([H])[H])C(=O)C([H])([H])C([H])([H])C12[H]

$$$$
107:3:0
     RDKit          3D

 61 66  0  0  1  0  0  0  0  0999 V2000
    4.9255  -12.0622    4.2206 C   0  0  0  0  0  0  0  0  0  0  0  0
    5.0853  -10.8347    3.6902 C   0  0  0  0  0  0  0  0  0  0  0  0
    6.0229  -10.5247    2.5039 C   0  0  1  0  0  0  0  0  0  0  0  0
    6.3479  -11.6500    1.7206 O   0  0  0  0  0  0  0  0  0  0  0  0
    5.4987   -9.3451    1.6381 C   0  0  0  0  0  0  0  0  0  0  0  0
    5.4201   -8.0844    2.5084 C   0  0  1  0  0  0  0  0  0  0  0  0
    4.3315   -7.1649    2.2258 O   0  0  0  0  0  0  0  0  0  0  0  0
    3.8905   -7.2253    3.6037 C   0  0  1  0  0  0  0  0  0  0  0  0
    2.5055   -7.6823    3.7107 O   0  0  0  0  0  0  0  0  0  0  0  0
    1.8197   -7.9472    4.9634 C   0  0  1  0  0  0  0  0  0  0  0  0
    0.3261   -7.7355    4.7362 C   0  0  0  0  0  0  0  0  0  0  0  0
   -0.4841   -6.7592    5.2125 C   0  0  0  0  0  0  0  0  0  0  0  0
   -0.1854   -5.5859    6.0624 C   0  0  0  0  0  0  0  0  0  0  0  0
    1.0928   -4.9777    6.1277 C   0  0  0  0  0  0  0  0  0  0  0  0
    1.3550   -3.9361    7.0298 C   0  0  0  0  0  0  0  0  0  0  0  0
    0.3189   -3.3997    7.8429 C   0  0  0  0  0  0  0  0  0  0  0  0
    0.4887   -2.3324    8.6953 O   0  0  0  0  0  0  0  0  0  0  0  0
    1.7976   -1.7833    8.8006 C   0  0  0  0  0  0  0  0  0  0  0  0
   -0.9706   -3.9679    7.7513 C   0  0  0  0  0  0  0  0  0  0  0  0
   -1.2110   -5.0457    6.8798 C   0  0  0  0  0  0  0  0  0  0  0  0
    2.1849   -9.3230    5.6731 C   0  0  1  0  0  0  0  0  0  0  0  0
    1.4763  -10.4151    5.1238 O   0  0  0  0  0  0  0  0  0  0  0  0
    3.7197   -9.5132    5.5735 C   0  0  2  0  0  0  0  0  0  0  0  0
    4.2652   -9.6327    4.1517 C   0  0  1  0  0  0  0  0  0  0  0  0
    4.9477   -8.3103    3.9269 C   0  0  1  0  0  0  0  0  0  0  0  0
    5.9903   -8.0613    5.0854 C   0  0  0  0  0  0  0  0  0  0  0  0
    6.1122   -9.1772    6.2005 C   0  0  1  0  0  0  0  0  0  0  0  0
    6.9426   -8.6517    7.3924 C   0  0  0  0  0  0  0  0  0  0  0  0
    4.7584   -9.8490    6.6174 C   0  0  2  0  0  0  0  0  0  0  0  0
    4.7058  -11.0497    7.5252 C   0  0  0  0  0  0  0  0  0  0  0  0
    4.3509   -9.7300    7.9921 O   0  0  0  0  0  0  0  0  0  0  0  0
    4.2185  -12.2440    5.0178 H   0  0  0  0  0  0  0  0  0  0  0  0
    5.4852  -12.9071    3.8542 H   0  0  0  0  0  0  0  0  0  0  0  0
    6.9706  -10.2286    2.9613 H   0  0  0  0  0  0  0  0  0  0  0  0
    5.5648  -11.8919    1.2089 H   0  0  0  0  0  0  0  0  0  0  0  0
    6.1459   -9.1777    0.7802 H   0  0  0  0  0  0  0  0  0  0  0  0
    4.5071   -9.5937    1.2286 H   0  0  0  0  0  0  0  0  0  0  0  0
    6.3710   -7.5511    2.5356 H   0  0  0  0  0  0  0  0  0  0  0  0
    4.0943   -6.2934    4.1255 H   0  0  0  0  0  0  0  0  0  0  0  0
    2.1483   -7.2060    5.6840 H   0  0  0  0  0  0  0  0  0  0  0  0
   -0.1330   -8.4774    4.0944 H   0  0  0  0  0  0  0  0  0  0  0  0
   -1.5140   -6.8382    4.9104 H   0  0  0  0  0  0  0  0  0  0  0  0
    1.8888   -5.2964    5.4773 H   0  0  0  0  0  0  0  0  0  0  0  0
    2.3632   -3.5564    7.0741 H   0  0  0  0  0  0  0  0  0  0  0  0
    1.7833   -0.9495    9.5015 H   0  0  0  0  0  0  0  0  0  0  0  0
    2.1574   -1.4065    7.8413 H   0  0  0  0  0  0  0  0  0  0  0  0
    2.5040   -2.5255    9.1754 H   0  0  0  0  0  0  0  0  0  0  0  0
   -1.7769   -3.5746    8.3470 H   0  0  0  0  0  0  0  0  0  0  0  0
   -2.2074   -5.4591    6.8423 H   0  0  0  0  0  0  0  0  0  0  0  0
    1.8848   -9.2519    6.7138 H   0  0  0  0  0  0  0  0  0  0  0  0
    1.4291  -11.1188    5.7587 H   0  0  0  0  0  0  0  0  0  0  0  0
    3.8175   -8.4696    5.8693 H   0  0  0  0  0  0  0  0  0  0  0  0
    3.4231   -9.7379    3.4800 H   0  0  0  0  0  0  0  0  0  0  0  0
    6.9761   -7.9579    4.6334 H   0  0  0  0  0  0  0  0  0  0  0  0
    5.8004   -7.0969    5.5676 H   0  0  0  0  0  0  0  0  0  0  0  0
    6.7092   -9.9776    5.7595 H   0  0  0  0  0  0  0  0  0  0  0  0
    6.4612   -7.8075    7.8824 H   0  0  0  0  0  0  0  0  0  0  0  0
    7.9221   -8.3080    7.0491 H   0  0  0  0  0  0  0  0  0  0  0  0
    7.1189   -9.4219    8.1381 H   0  0  0  0  0  0  0  0  0  0  0  0
    3.8899  -11.7597    7.4137 H   0  0  0  0  0  0  0  0  0  0  0  0
    5.6702  -11.4350    7.8459 H   0  0  0  0  0  0  0  0  0  0  0  0
  1  2  2  0
  1 32  1  0
  1 33  1  0
  2 24  1  0
  2  3  1  0
  3  4  1  0
  3  5  1  0
  3 34  1  1
  4 35  1  0
  5  6  1  0
  5 36  1  0
  5 37  1  0
  6 25  1  0
  6  7  1  0
  6 38  1  1
  7  8  1  0
  8 25  1  0
  8  9  1  0
  8 39  1  1
  9 10  1  0
 10 11  1  0
 10 21  1  0
 10 40  1  1
 11 12  2  3
 11 41  1  0
 12 13  1  0
 12 42  1  0
 13 20  1  0
 13 14  2  0
 14 15  1  0
 14 43  1  0
 15 16  2  0
 15 44  1  0
 16 17  1  0
 16 19  1  0
 17 18  1  0
 18 45  1  0
 18 46  1  0
 18 47  1  0
 19 20  2  0
 19 48  1  0
 20 49  1  0
 21 22  1  0
 21 23  1  0
 21 50  1  1
 22 51  1  0
 23 29  1  0
 23 24  1  0
 23 52  1  1
 24 25  1  0
 24 53  1  6
 25 26  1  1
 26 27  1  0
 26 54  1  0
 26 55  1  0
 27 28  1  0
 27 29  1  0
 27 56  1  6
 28 57  1  0
 28 58  1  0
 28 59  1  0
 29 31  1  1
 29 30  1  0
 30 31  1  0
 30 60  1  0
 30 61  1  0
M  END
>  <i_m_ct_stereo_status>  (390) 
1

>  <s_m_source_file>  (390) 
/var/tmp/pbs.5076255.sched01/tmpm28zzdm2/1449lyhn0we.sdf

>  <i_m_source_file_index>  (390) 
29

>  <i_lp_mmshare_version>  (390) 
48012

>  <i_f3d_flags>  (390) 
0

>  <s_epik_input>  (390) 
W0NAXTEyM1tDQEhdNFtDSDJdW0NASF0oW09IXSlDKD1bQ0gyXSlbQ0BIXTJbQ0hdKFtDQEBdNShbQ0gyXU81KVtDQEBIXShbQ0gyXTMpW0NIM10pW0NASF0oW09IXSlbQ0BASF0oT1tDQEBIXTFPNCkvW0NIXT1bQ0hdL2M2W2NIXVtjSF1jKE9bQ0gzXSlbY0hdW2NIXTY=

>  <s_epik_cmdline>  (390) 
J2VwaWtfcHl0aG9uJywgJy1waHQnLCAnMi4wJywgJy1waCcsICc3LjAnLCAnLXRuJywgJzgnLCAnLW1hJywgJzIwMCcsICctaW1hZScsICc8aW5maWxlLm1hZT4nLCAnLW9tYWUnLCAnPG91dGZpbGUubWFlPic=

>  <r_lp_tautomer_probability>  (390) 
1

>  <r_epik_Ionization_Penalty>  (390) 
1.1223e-07

>  <r_epik_Ionization_Penalty_Charging>  (390) 
0

>  <r_epik_Ionization_Penalty_Neutral>  (390) 
1.1223e-07

>  <r_epik_State_Penalty>  (390) 
-0

>  <r_epik_Charging_Adjusted_Penalty>  (390) 
0

>  <i_epik_Tot_Q>  (390) 
0

>  <i_epik_Tot_abs_Q>  (390) 
0

>  <s_epik_Chemistry_Notes>  (390) 
This compound contains an acetal/aminal-like group ( X-CH(R)-Y where X, Y are N, S, or O) that may be acid/base labile, releasing an aldehyde.

>  <s_lp_Force_Field>  (390) 
OPLS3e

>  <r_lp_Energy>  (390) 
86.9424

>  <b_lp_Chiralities_Consistent>  (390) 
1

>  <s_lp_Variant>  (390) 
107:0-4

>  <s_i_glide_gridfile>  (390) 
pfpi4k_grid

>  <i_i_glide_lignum>  (390) 
29

>  <i_i_glide_rotatable_bonds>  (390) 
5

>  <r_i_docking_score>  (390) 
-2.31982

>  <r_i_glide_ligand_efficiency>  (390) 
-0.0748328

>  <r_i_glide_ligand_efficiency_sa>  (390) 
-0.235078

>  <r_i_glide_ligand_efficiency_ln>  (390) 
-0.52319

>  <r_i_glide_gscore>  (390) 
-2.31982

>  <r_i_glide_lipo>  (390) 
-0.0626347

>  <r_i_glide_hbond>  (390) 
-0.16

>  <r_i_glide_metal>  (390) 
-0

>  <r_i_glide_rewards>  (390) 
-0.501122

>  <r_i_glide_evdw>  (390) 
-15.5685

>  <r_i_glide_ecoul>  (390) 
-6.90562

>  <r_i_glide_erotb>  (390) 
0.21821

>  <r_i_glide_esite>  (390) 
0

>  <r_i_glide_emodel>  (390) 
-26.0009

>  <r_i_glide_energy>  (390) 
-22.4742

>  <r_i_glide_einternal>  (390) 
0.654253

>  <r_i_glide_intrahb_reward>  (390) 
-0

>  <i_i_glide_confnum>  (390) 
3

>  <i_i_glide_posenum>  (390) 
17

>  <r_i_glide_eff_state_penalty>  (390) 
0

>  <ligand_id>  (390) 
107

>  <original_smiles>  (390) 
C=C1C(O)CC2OC3OC(C=Cc4ccc(OC)cc4)C(O)C4C1C23CC(C)C41CO1

>  <smiles>  (390) 
[H]OC1([H])C(=C([H])[H])C2([H])C3([H])C([H])(O[H])C([H])(C([H])=C([H])c4c([H])c([H])c(OC([H])([H])[H])c([H])c4[H])OC4([H])OC([H])(C1([H])[H])C42C([H])([H])C([H])(C([H])([H])[H])C31OC1([H])[H]

$$$$
107:3:1
     RDKit          3D

 61 66  0  0  1  0  0  0  0  0999 V2000
    2.2315   -9.9328    5.8918 C   0  0  0  0  0  0  0  0  0  0  0  0
    1.7406   -9.3669    4.7747 C   0  0  0  0  0  0  0  0  0  0  0  0
    1.1080  -10.1711    3.6284 C   0  0  1  0  0  0  0  0  0  0  0  0
    0.6219  -11.4158    4.0842 O   0  0  0  0  0  0  0  0  0  0  0  0
    0.0140   -9.3749    2.8605 C   0  0  0  0  0  0  0  0  0  0  0  0
    0.6321   -8.0957    2.2607 C   0  0  1  0  0  0  0  0  0  0  0  0
   -0.2327   -6.8928    2.2382 O   0  0  0  0  0  0  0  0  0  0  0  0
    0.7787   -6.1455    2.9986 C   0  0  1  0  0  0  0  0  0  0  0  0
    0.2415   -5.6449    4.2406 O   0  0  0  0  0  0  0  0  0  0  0  0
    1.0133   -4.9175    5.2628 C   0  0  1  0  0  0  0  0  0  0  0  0
    0.0310   -4.0179    6.0111 C   0  0  0  0  0  0  0  0  0  0  0  0
   -0.2031   -2.7017    5.7684 C   0  0  0  0  0  0  0  0  0  0  0  0
    0.3184   -1.7720    4.7251 C   0  0  0  0  0  0  0  0  0  0  0  0
    1.1343   -2.1859    3.6329 C   0  0  0  0  0  0  0  0  0  0  0  0
    1.6398   -1.2135    2.7361 C   0  0  0  0  0  0  0  0  0  0  0  0
    1.2969    0.1410    2.8506 C   0  0  0  0  0  0  0  0  0  0  0  0
    1.7966    1.0095    1.9029 O   0  0  0  0  0  0  0  0  0  0  0  0
    1.4394    2.3549    2.0469 C   0  0  0  0  0  0  0  0  0  0  0  0
    0.4299    0.5398    3.9105 C   0  0  0  0  0  0  0  0  0  0  0  0
   -0.0324   -0.4075    4.8404 C   0  0  0  0  0  0  0  0  0  0  0  0
    1.9040   -5.8489    6.1960 C   0  0  1  0  0  0  0  0  0  0  0  0
    1.1636   -6.4564    7.2257 O   0  0  0  0  0  0  0  0  0  0  0  0
    2.5824   -6.8876    5.2873 C   0  0  2  0  0  0  0  0  0  0  0  0
    1.6323   -7.8597    4.5958 C   0  0  1  0  0  0  0  0  0  0  0  0
    1.6578   -7.4174    3.1486 C   0  0  1  0  0  0  0  0  0  0  0  0
    3.1431   -7.4019    2.6349 C   0  0  0  0  0  0  0  0  0  0  0  0
    4.2865   -7.7976    3.6880 C   0  0  1  0  0  0  0  0  0  0  0  0
    5.6587   -7.4488    3.1173 C   0  0  0  0  0  0  0  0  0  0  0  0
    4.0362   -7.3322    5.1406 C   0  0  2  0  0  0  0  0  0  0  0  0
    4.9009   -7.7867    6.2775 C   0  0  0  0  0  0  0  0  0  0  0  0
    5.0152   -6.4612    5.7404 O   0  0  0  0  0  0  0  0  0  0  0  0
    2.5962   -9.3435    6.7190 H   0  0  0  0  0  0  0  0  0  0  0  0
    2.2497  -11.0015    6.0160 H   0  0  0  0  0  0  0  0  0  0  0  0
    1.9338  -10.3864    2.9453 H   0  0  0  0  0  0  0  0  0  0  0  0
   -0.2315  -11.2770    4.5091 H   0  0  0  0  0  0  0  0  0  0  0  0
   -0.4169   -9.9906    2.0651 H   0  0  0  0  0  0  0  0  0  0  0  0
   -0.8039   -9.1400    3.5448 H   0  0  0  0  0  0  0  0  0  0  0  0
    1.0657   -8.2622    1.2940 H   0  0  0  0  0  0  0  0  0  0  0  0
    1.2635   -5.4113    2.3629 H   0  0  0  0  0  0  0  0  0  0  0  0
    1.7301   -4.2783    4.8140 H   0  0  0  0  0  0  0  0  0  0  0  0
   -0.5358   -4.4632    6.8022 H   0  0  0  0  0  0  0  0  0  0  0  0
   -0.9157   -2.2522    6.4202 H   0  0  0  0  0  0  0  0  0  0  0  0
    1.3664   -3.1939    3.3996 H   0  0  0  0  0  0  0  0  0  0  0  0
    2.2984   -1.5293    1.9245 H   0  0  0  0  0  0  0  0  0  0  0  0
    1.8381    2.9897    1.2331 H   0  0  0  0  0  0  0  0  0  0  0  0
    1.8373    2.7449    2.9839 H   0  0  0  0  0  0  0  0  0  0  0  0
    0.3581    2.4770    2.0216 H   0  0  0  0  0  0  0  0  0  0  0  0
    0.0640    1.5645    4.0580 H   0  0  0  0  0  0  0  0  0  0  0  0
   -0.6794   -0.0482    5.6210 H   0  0  0  0  0  0  0  0  0  0  0  0
    2.6435   -5.2011    6.6543 H   0  0  0  0  0  0  0  0  0  0  0  0
    0.5697   -7.0902    6.8441 H   0  0  0  0  0  0  0  0  0  0  0  0
    2.7986   -6.0969    4.5703 H   0  0  0  0  0  0  0  0  0  0  0  0
    0.6452   -7.7236    4.9958 H   0  0  0  0  0  0  0  0  0  0  0  0
    3.2247   -8.0792    1.8041 H   0  0  0  0  0  0  0  0  0  0  0  0
    3.3886   -6.4068    2.2296 H   0  0  0  0  0  0  0  0  0  0  0  0
    4.2540   -8.9048    3.7250 H   0  0  0  0  0  0  0  0  0  0  0  0
    5.7906   -6.3693    2.9783 H   0  0  0  0  0  0  0  0  0  0  0  0
    5.8200   -7.9117    2.1423 H   0  0  0  0  0  0  0  0  0  0  0  0
    6.4700   -7.7945    3.7616 H   0  0  0  0  0  0  0  0  0  0  0  0
    4.4639   -7.8666    7.2841 H   0  0  0  0  0  0  0  0  0  0  0  0
    5.6799   -8.4983    6.0196 H   0  0  0  0  0  0  0  0  0  0  0  0
  1  2  2  0
  1 32  1  0
  1 33  1  0
  2 24  1  0
  2  3  1  0
  3  4  1  0
  3  5  1  0
  3 34  1  6
  4 35  1  0
  5  6  1  0
  5 36  1  0
  5 37  1  0
  6 25  1  0
  6  7  1  0
  6 38  1  6
  7  8  1  0
  8 25  1  0
  8  9  1  0
  8 39  1  6
  9 10  1  0
 10 11  1  0
 10 21  1  0
 10 40  1  6
 11 12  2  3
 11 41  1  0
 12 13  1  0
 12 42  1  0
 13 20  1  0
 13 14  2  0
 14 15  1  0
 14 43  1  0
 15 16  2  0
 15 44  1  0
 16 17  1  0
 16 19  1  0
 17 18  1  0
 18 45  1  0
 18 46  1  0
 18 47  1  0
 19 20  2  0
 19 48  1  0
 20 49  1  0
 21 22  1  0
 21 23  1  0
 21 50  1  1
 22 51  1  0
 23 29  1  0
 23 24  1  0
 23 52  1  6
 24 25  1  0
 24 53  1  1
 25 26  1  6
 26 27  1  0
 26 54  1  0
 26 55  1  0
 27 28  1  0
 27 29  1  0
 27 56  1  1
 28 57  1  0
 28 58  1  0
 28 59  1  0
 29 31  1  6
 29 30  1  0
 30 31  1  0
 30 60  1  0
 30 61  1  0
M  END
>  <i_m_ct_stereo_status>  (391) 
1

>  <s_m_source_file>  (391) 
/var/tmp/pbs.5076255.sched01/tmpm28zzdm2/1449lyhn0we.sdf

>  <i_m_source_file_index>  (391) 
29

>  <i_lp_mmshare_version>  (391) 
48012

>  <i_f3d_flags>  (391) 
0

>  <s_epik_input>  (391) 
W0NAXTEyM1tDQEhdNFtDSDJdW0NASF0oW09IXSlDKD1bQ0gyXSlbQ0BIXTJbQ0hdKFtDQEBdNShbQ0gyXU81KVtDQEBIXShbQ0gyXTMpW0NIM10pW0NASF0oW09IXSlbQ0BASF0oT1tDQEBIXTFPNCkvW0NIXT1bQ0hdL2M2W2NIXVtjSF1jKE9bQ0gzXSlbY0hdW2NIXTY=

>  <s_epik_cmdline>  (391) 
J2VwaWtfcHl0aG9uJywgJy1waHQnLCAnMi4wJywgJy1waCcsICc3LjAnLCAnLXRuJywgJzgnLCAnLW1hJywgJzIwMCcsICctaW1hZScsICc8aW5maWxlLm1hZT4nLCAnLW9tYWUnLCAnPG91dGZpbGUubWFlPic=

>  <r_lp_tautomer_probability>  (391) 
1

>  <r_epik_Ionization_Penalty>  (391) 
1.1223e-07

>  <r_epik_Ionization_Penalty_Charging>  (391) 
0

>  <r_epik_Ionization_Penalty_Neutral>  (391) 
1.1223e-07

>  <r_epik_State_Penalty>  (391) 
-0

>  <r_epik_Charging_Adjusted_Penalty>  (391) 
0

>  <i_epik_Tot_Q>  (391) 
0

>  <i_epik_Tot_abs_Q>  (391) 
0

>  <s_epik_Chemistry_Notes>  (391) 
This compound contains an acetal/aminal-like group ( X-CH(R)-Y where X, Y are N, S, or O) that may be acid/base labile, releasing an aldehyde.

>  <s_lp_Force_Field>  (391) 
OPLS3e

>  <r_lp_Energy>  (391) 
86.9424

>  <b_lp_Chiralities_Consistent>  (391) 
1

>  <s_lp_Variant>  (391) 
107:0-4

>  <s_i_glide_gridfile>  (391) 
pfpi4k_grid

>  <i_i_glide_lignum>  (391) 
29

>  <i_i_glide_rotatable_bonds>  (391) 
5

>  <r_i_docking_score>  (391) 
-2.28456

>  <r_i_glide_ligand_efficiency>  (391) 
-0.0736954

>  <r_i_glide_ligand_efficiency_sa>  (391) 
-0.231505

>  <r_i_glide_ligand_efficiency_ln>  (391) 
-0.515237

>  <r_i_glide_gscore>  (391) 
-2.28456

>  <r_i_glide_lipo>  (391) 
-0.0991548

>  <r_i_glide_hbond>  (391) 
-0.283469

>  <r_i_glide_metal>  (391) 
-0

>  <r_i_glide_rewards>  (391) 
-0.501122

>  <r_i_glide_evdw>  (391) 
-21.879

>  <r_i_glide_ecoul>  (391) 
-3.16531

>  <r_i_glide_erotb>  (391) 
0.21821

>  <r_i_glide_esite>  (391) 
-0.0502746

>  <r_i_glide_emodel>  (391) 
-26.1667

>  <r_i_glide_energy>  (391) 
-25.0443

>  <r_i_glide_einternal>  (391) 
4.39669

>  <r_i_glide_intrahb_reward>  (391) 
-0

>  <i_i_glide_confnum>  (391) 
3

>  <i_i_glide_posenum>  (391) 
6

>  <r_i_glide_eff_state_penalty>  (391) 
0

>  <ligand_id>  (391) 
107

>  <original_smiles>  (391) 
C=C1C(O)CC2OC3OC(C=Cc4ccc(OC)cc4)C(O)C4C1C23CC(C)C41CO1

>  <smiles>  (391) 
[H]OC1([H])C(=C([H])[H])C2([H])C3([H])C([H])(O[H])C([H])(C([H])=C([H])c4c([H])c([H])c(OC([H])([H])[H])c([H])c4[H])OC4([H])OC([H])(C1([H])[H])C42C([H])([H])C([H])(C([H])([H])[H])C31OC1([H])[H]

$$$$
107:3:2
     RDKit          3D

 61 66  0  0  1  0  0  0  0  0999 V2000
    2.0835  -10.0906    5.9511 C   0  0  0  0  0  0  0  0  0  0  0  0
    1.5779   -9.4918    4.8575 C   0  0  0  0  0  0  0  0  0  0  0  0
    1.0524  -10.2567    3.6361 C   0  0  1  0  0  0  0  0  0  0  0  0
    0.6124  -11.5581    3.9853 O   0  0  0  0  0  0  0  0  0  0  0  0
   -0.0689   -9.4885    2.8823 C   0  0  0  0  0  0  0  0  0  0  0  0
    0.4695   -8.1353    2.3895 C   0  0  1  0  0  0  0  0  0  0  0  0
   -0.4580   -7.0066    2.3780 O   0  0  0  0  0  0  0  0  0  0  0  0
    0.4331   -6.2480    3.2451 C   0  0  1  0  0  0  0  0  0  0  0  0
   -0.2344   -5.9070    4.4876 O   0  0  0  0  0  0  0  0  0  0  0  0
    0.4723   -5.1864    5.5464 C   0  0  1  0  0  0  0  0  0  0  0  0
   -0.5640   -4.3484    6.3334 C   0  0  0  0  0  0  0  0  0  0  0  0
   -0.8737   -3.0377    6.1954 C   0  0  0  0  0  0  0  0  0  0  0  0
   -0.3327   -1.9837    5.2662 C   0  0  0  0  0  0  0  0  0  0  0  0
    0.9296   -2.0687    4.6268 C   0  0  0  0  0  0  0  0  0  0  0  0
    1.3137   -1.1123    3.6821 C   0  0  0  0  0  0  0  0  0  0  0  0
    0.5177    0.0241    3.4052 C   0  0  0  0  0  0  0  0  0  0  0  0
    0.8965    1.0210    2.5380 O   0  0  0  0  0  0  0  0  0  0  0  0
    2.1723    0.8870    1.9226 C   0  0  0  0  0  0  0  0  0  0  0  0
   -0.7161    0.1480    4.0864 C   0  0  0  0  0  0  0  0  0  0  0  0
   -1.1589   -0.8456    4.9957 C   0  0  0  0  0  0  0  0  0  0  0  0
    1.4288   -6.0663    6.4778 C   0  0  1  0  0  0  0  0  0  0  0  0
    0.7033   -6.7492    7.4847 O   0  0  0  0  0  0  0  0  0  0  0  0
    2.2322   -7.0043    5.5534 C   0  0  2  0  0  0  0  0  0  0  0  0
    1.3708   -7.9857    4.7678 C   0  0  1  0  0  0  0  0  0  0  0  0
    1.4123   -7.4443    3.3593 C   0  0  1  0  0  0  0  0  0  0  0  0
    2.9158   -7.2951    2.9030 C   0  0  0  0  0  0  0  0  0  0  0  0
    4.0442   -7.6780    3.9566 C   0  0  1  0  0  0  0  0  0  0  0  0
    5.4193   -7.1928    3.4640 C   0  0  0  0  0  0  0  0  0  0  0  0
    3.7182   -7.3119    5.4338 C   0  0  2  0  0  0  0  0  0  0  0  0
    4.5713   -7.8050    6.5615 C   0  0  0  0  0  0  0  0  0  0  0  0
    4.6255   -6.4361    6.1232 O   0  0  0  0  0  0  0  0  0  0  0  0
    2.3688   -9.5356    6.8295 H   0  0  0  0  0  0  0  0  0  0  0  0
    2.2031  -11.1595    6.0035 H   0  0  0  0  0  0  0  0  0  0  0  0
    1.9055  -10.3801    2.9715 H   0  0  0  0  0  0  0  0  0  0  0  0
   -0.1217  -11.4873    4.5710 H   0  0  0  0  0  0  0  0  0  0  0  0
   -0.4349  -10.0831    2.0468 H   0  0  0  0  0  0  0  0  0  0  0  0
   -0.9187   -9.3452    3.5499 H   0  0  0  0  0  0  0  0  0  0  0  0
    0.9341   -8.2134    1.4143 H   0  0  0  0  0  0  0  0  0  0  0  0
    0.8891   -5.4178    2.6972 H   0  0  0  0  0  0  0  0  0  0  0  0
    1.1187   -4.5608    5.0117 H   0  0  0  0  0  0  0  0  0  0  0  0
   -1.1369   -4.8820    7.0869 H   0  0  0  0  0  0  0  0  0  0  0  0
   -1.6457   -2.6836    6.8572 H   0  0  0  0  0  0  0  0  0  0  0  0
    1.6851   -2.7957    4.8349 H   0  0  0  0  0  0  0  0  0  0  0  0
    2.2794   -1.2866    3.2144 H   0  0  0  0  0  0  0  0  0  0  0  0
    2.3071    1.7473    1.2803 H   0  0  0  0  0  0  0  0  0  0  0  0
    2.2476   -0.0145    1.3061 H   0  0  0  0  0  0  0  0  0  0  0  0
    2.9867    0.8907    2.6532 H   0  0  0  0  0  0  0  0  0  0  0  0
   -1.3302    1.0184    3.8880 H   0  0  0  0  0  0  0  0  0  0  0  0
   -2.1188   -0.7181    5.4750 H   0  0  0  0  0  0  0  0  0  0  0  0
    2.0967   -5.3667    6.9840 H   0  0  0  0  0  0  0  0  0  0  0  0
    0.3022   -6.0888    8.0260 H   0  0  0  0  0  0  0  0  0  0  0  0
    2.4132   -6.1473    4.9103 H   0  0  0  0  0  0  0  0  0  0  0  0
    0.3577   -7.9389    5.1488 H   0  0  0  0  0  0  0  0  0  0  0  0
    3.0828   -7.9085    2.0227 H   0  0  0  0  0  0  0  0  0  0  0  0
    3.0936   -6.2674    2.5679 H   0  0  0  0  0  0  0  0  0  0  0  0
    4.1035   -8.7737    3.9446 H   0  0  0  0  0  0  0  0  0  0  0  0
    5.4839   -6.1052    3.3942 H   0  0  0  0  0  0  0  0  0  0  0  0
    5.6419   -7.5832    2.4712 H   0  0  0  0  0  0  0  0  0  0  0  0
    6.2289   -7.5254    4.1110 H   0  0  0  0  0  0  0  0  0  0  0  0
    4.1105   -7.9732    7.5354 H   0  0  0  0  0  0  0  0  0  0  0  0
    5.4061   -8.4461    6.2859 H   0  0  0  0  0  0  0  0  0  0  0  0
  1  2  2  0
  1 32  1  0
  1 33  1  0
  2 24  1  0
  2  3  1  0
  3  4  1  0
  3  5  1  0
  3 34  1  6
  4 35  1  0
  5  6  1  0
  5 36  1  0
  5 37  1  0
  6 25  1  0
  6  7  1  0
  6 38  1  6
  7  8  1  0
  8 25  1  0
  8  9  1  0
  8 39  1  6
  9 10  1  0
 10 11  1  0
 10 21  1  0
 10 40  1  6
 11 12  2  3
 11 41  1  0
 12 13  1  0
 12 42  1  0
 13 20  1  0
 13 14  2  0
 14 15  1  0
 14 43  1  0
 15 16  2  0
 15 44  1  0
 16 17  1  0
 16 19  1  0
 17 18  1  0
 18 45  1  0
 18 46  1  0
 18 47  1  0
 19 20  2  0
 19 48  1  0
 20 49  1  0
 21 22  1  0
 21 23  1  0
 21 50  1  1
 22 51  1  0
 23 29  1  0
 23 24  1  0
 23 52  1  6
 24 25  1  0
 24 53  1  1
 25 26  1  6
 26 27  1  0
 26 54  1  0
 26 55  1  0
 27 28  1  0
 27 29  1  0
 27 56  1  1
 28 57  1  0
 28 58  1  0
 28 59  1  0
 29 31  1  6
 29 30  1  0
 30 31  1  0
 30 60  1  0
 30 61  1  0
M  END
>  <i_m_ct_stereo_status>  (392) 
1

>  <s_m_source_file>  (392) 
/var/tmp/pbs.5076255.sched01/tmpm28zzdm2/1449lyhn0we.sdf

>  <i_m_source_file_index>  (392) 
29

>  <i_lp_mmshare_version>  (392) 
48012

>  <i_f3d_flags>  (392) 
0

>  <s_epik_input>  (392) 
W0NAXTEyM1tDQEhdNFtDSDJdW0NASF0oW09IXSlDKD1bQ0gyXSlbQ0BIXTJbQ0hdKFtDQEBdNShbQ0gyXU81KVtDQEBIXShbQ0gyXTMpW0NIM10pW0NASF0oW09IXSlbQ0BASF0oT1tDQEBIXTFPNCkvW0NIXT1bQ0hdL2M2W2NIXVtjSF1jKE9bQ0gzXSlbY0hdW2NIXTY=

>  <s_epik_cmdline>  (392) 
J2VwaWtfcHl0aG9uJywgJy1waHQnLCAnMi4wJywgJy1waCcsICc3LjAnLCAnLXRuJywgJzgnLCAnLW1hJywgJzIwMCcsICctaW1hZScsICc8aW5maWxlLm1hZT4nLCAnLW9tYWUnLCAnPG91dGZpbGUubWFlPic=

>  <r_lp_tautomer_probability>  (392) 
1

>  <r_epik_Ionization_Penalty>  (392) 
1.1223e-07

>  <r_epik_Ionization_Penalty_Charging>  (392) 
0

>  <r_epik_Ionization_Penalty_Neutral>  (392) 
1.1223e-07

>  <r_epik_State_Penalty>  (392) 
-0

>  <r_epik_Charging_Adjusted_Penalty>  (392) 
0

>  <i_epik_Tot_Q>  (392) 
0

>  <i_epik_Tot_abs_Q>  (392) 
0

>  <s_epik_Chemistry_Notes>  (392) 
This compound contains an acetal/aminal-like group ( X-CH(R)-Y where X, Y are N, S, or O) that may be acid/base labile, releasing an aldehyde.

>  <s_lp_Force_Field>  (392) 
OPLS3e

>  <r_lp_Energy>  (392) 
86.9424

>  <b_lp_Chiralities_Consistent>  (392) 
1

>  <s_lp_Variant>  (392) 
107:0-4

>  <s_i_glide_gridfile>  (392) 
pfpi4k_grid

>  <i_i_glide_lignum>  (392) 
29

>  <i_i_glide_rotatable_bonds>  (392) 
5

>  <r_i_docking_score>  (392) 
-2.0991

>  <r_i_glide_ligand_efficiency>  (392) 
-0.067713

>  <r_i_glide_ligand_efficiency_sa>  (392) 
-0.212712

>  <r_i_glide_ligand_efficiency_ln>  (392) 
-0.473412

>  <r_i_glide_gscore>  (392) 
-2.0991

>  <r_i_glide_lipo>  (392) 
-0.055285

>  <r_i_glide_hbond>  (392) 
-0.249762

>  <r_i_glide_metal>  (392) 
-0

>  <r_i_glide_rewards>  (392) 
-0.501122

>  <r_i_glide_evdw>  (392) 
-23.9073

>  <r_i_glide_ecoul>  (392) 
-1.72058

>  <r_i_glide_erotb>  (392) 
0.21821

>  <r_i_glide_esite>  (392) 
-0.057692

>  <r_i_glide_emodel>  (392) 
-27.7857

>  <r_i_glide_energy>  (392) 
-25.6279

>  <r_i_glide_einternal>  (392) 
1.30397

>  <r_i_glide_intrahb_reward>  (392) 
-0

>  <i_i_glide_confnum>  (392) 
3

>  <i_i_glide_posenum>  (392) 
20

>  <r_i_glide_eff_state_penalty>  (392) 
0

>  <ligand_id>  (392) 
107

>  <original_smiles>  (392) 
C=C1C(O)CC2OC3OC(C=Cc4ccc(OC)cc4)C(O)C4C1C23CC(C)C41CO1

>  <smiles>  (392) 
[H]OC1([H])C(=C([H])[H])C2([H])C3([H])C([H])(O[H])C([H])(C([H])=C([H])c4c([H])c([H])c(OC([H])([H])[H])c([H])c4[H])OC4([H])OC([H])(C1([H])[H])C42C([H])([H])C([H])(C([H])([H])[H])C31OC1([H])[H]

$$$$
108:0:0
     RDKit          3D

 62 67  0  0  1  0  0  0  0  0999 V2000
   -0.6032   -5.4907    7.7361 C   0  0  0  0  0  0  0  0  0  0  0  0
   -0.0875   -4.3270    6.9248 C   0  0  0  0  0  0  0  0  0  0  0  0
   -0.9504   -3.3036    6.4878 C   0  0  0  0  0  0  0  0  0  0  0  0
   -0.4146   -2.2414    5.7348 C   0  0  0  0  0  0  0  0  0  0  0  0
    0.9658   -2.2393    5.4371 C   0  0  0  0  0  0  0  0  0  0  0  0
    1.5078   -1.1965    4.6411 N   0  0  0  0  0  0  0  0  0  0  0  0
    2.4112   -1.4988    3.6829 N   0  0  0  0  0  0  0  0  0  0  0  0
    2.7972   -0.3452    3.1493 C   0  0  0  0  0  0  0  0  0  0  0  0
    3.8306   -0.3632    2.0398 C   0  0  0  0  0  0  0  0  0  0  0  0
    3.2038   -0.7700    0.7082 C   0  0  0  0  0  0  0  0  0  0  0  0
    4.2396   -0.8394   -0.4409 C   0  0  0  0  0  0  0  0  0  0  0  0
    5.3942   -1.6483   -0.0668 N   0  0  0  0  0  0  0  0  0  0  0  0
    5.8185   -3.0788   -0.9649 S   0  0  0  0  0  0  0  0  0  0  0  0
    5.4537   -2.8677   -2.4344 O   0  0  0  0  0  0  0  0  0  0  0  0
    4.5476   -4.1772   -0.2741 C   0  0  0  0  0  0  0  0  0  0  0  0
    4.9103   -5.2661    0.5390 C   0  0  0  0  0  0  0  0  0  0  0  0
    3.8529   -6.0188    1.0874 C   0  0  0  0  0  0  0  0  0  0  0  0
    2.5475   -5.7184    0.8715 N   0  0  0  0  0  0  0  0  0  0  0  0
    2.2167   -4.6994    0.0739 N   0  0  0  0  0  0  0  0  0  0  0  0
    3.1746   -3.9459   -0.5035 C   0  0  0  0  0  0  0  0  0  0  0  0
    6.0428   -1.3505    1.2014 C   0  0  0  0  0  0  0  0  0  0  0  0
    5.0216   -1.2922    2.3480 C   0  0  0  0  0  0  0  0  0  0  0  0
    2.0830    0.7572    3.7071 C   0  0  0  0  0  0  0  0  0  0  0  0
    1.2911    0.1674    4.6591 C   0  0  0  0  0  0  0  0  0  0  0  0
    0.4604    0.7778    5.5530 N   0  0  0  0  0  0  0  0  0  0  0  0
   -0.2400    1.9167    5.3809 C   0  0  0  0  0  0  0  0  0  0  0  0
   -0.2099    2.5899    4.3528 O   0  0  0  0  0  0  0  0  0  0  0  0
   -1.1746    2.2792    6.4841 C   0  0  0  0  0  0  0  0  0  0  0  0
   -2.4110    2.9499    6.3744 C   0  0  0  0  0  0  0  0  0  0  0  0
   -2.9876    3.1994    7.5259 N   0  0  0  0  0  0  0  0  0  0  0  0
   -2.1165    2.6919    8.4443 N   0  0  0  0  0  0  0  0  0  0  0  0
   -2.2843    2.7191    9.7953 C   0  0  0  0  0  0  0  0  0  0  0  0
   -1.2895    2.1619   10.5590 C   0  0  0  0  0  0  0  0  0  0  0  0
   -0.1669    1.5961    9.9113 C   0  0  0  0  0  0  0  0  0  0  0  0
   -0.0079    1.5506    8.5910 N   0  0  0  0  0  0  0  0  0  0  0  0
   -0.9703    2.1137    7.8372 C   0  0  0  0  0  0  0  0  0  0  0  0
    1.7876   -3.2263    5.8664 N   0  0  0  0  0  0  0  0  0  0  0  0
    1.2765   -4.2444    6.5840 C   0  0  0  0  0  0  0  0  0  0  0  0
   -1.6855   -5.5587    7.6489 H   0  0  0  0  0  0  0  0  0  0  0  0
   -0.3574   -5.3548    8.7877 H   0  0  0  0  0  0  0  0  0  0  0  0
   -0.1565   -6.4249    7.3922 H   0  0  0  0  0  0  0  0  0  0  0  0
   -2.0070   -3.3357    6.7167 H   0  0  0  0  0  0  0  0  0  0  0  0
   -1.0516   -1.4569    5.3570 H   0  0  0  0  0  0  0  0  0  0  0  0
    4.2162    0.6463    1.9163 H   0  0  0  0  0  0  0  0  0  0  0  0
    2.7051   -1.7290    0.8322 H   0  0  0  0  0  0  0  0  0  0  0  0
    2.4165   -0.0539    0.4847 H   0  0  0  0  0  0  0  0  0  0  0  0
    3.7851   -1.2117   -1.3582 H   0  0  0  0  0  0  0  0  0  0  0  0
    4.6095    0.1432   -0.6943 H   0  0  0  0  0  0  0  0  0  0  0  0
    5.9400   -5.5014    0.7455 H   0  0  0  0  0  0  0  0  0  0  0  0
    4.0458   -6.8681    1.7232 H   0  0  0  0  0  0  0  0  0  0  0  0
    2.8248   -3.1324   -1.1243 H   0  0  0  0  0  0  0  0  0  0  0  0
    6.7773   -2.1248    1.4094 H   0  0  0  0  0  0  0  0  0  0  0  0
    6.5717   -0.4040    1.1105 H   0  0  0  0  0  0  0  0  0  0  0  0
    5.5178   -0.9592    3.2575 H   0  0  0  0  0  0  0  0  0  0  0  0
    4.6614   -2.3057    2.5335 H   0  0  0  0  0  0  0  0  0  0  0  0
    2.1410    1.8113    3.4730 H   0  0  0  0  0  0  0  0  0  0  0  0
   -2.8982    3.2755    5.4705 H   0  0  0  0  0  0  0  0  0  0  0  0
   -3.1916    3.1572   10.2042 H   0  0  0  0  0  0  0  0  0  0  0  0
   -1.3831    2.1394   11.6433 H   0  0  0  0  0  0  0  0  0  0  0  0
    0.6168    1.1497   10.5146 H   0  0  0  0  0  0  0  0  0  0  0  0
    1.9776   -5.0094    6.8918 H   0  0  0  0  0  0  0  0  0  0  0  0
    0.2619    0.2508    6.3924 H   0  0  0  0  0  0  0  0  0  0  0  0
  1  2  1  0
  1 39  1  0
  1 40  1  0
  1 41  1  0
  2 38  2  0
  2  3  1  0
  3  4  2  0
  3 42  1  0
  4  5  1  0
  4 43  1  0
  5  6  1  0
  5 37  2  0
  6 24  1  0
  6  7  1  0
  7  8  2  0
  8  9  1  0
  8 23  1  0
  9 22  1  0
  9 10  1  0
  9 44  1  0
 10 11  1  0
 10 45  1  0
 10 46  1  0
 11 12  1  0
 11 47  1  0
 11 48  1  0
 13 12  1  1
 12 21  1  0
 13 14  2  0
 13 15  1  0
 15 20  1  0
 15 16  2  0
 16 17  1  0
 16 49  1  0
 17 18  2  0
 17 50  1  0
 18 19  1  0
 19 20  2  0
 20 51  1  0
 21 22  1  0
 21 52  1  0
 21 53  1  0
 22 54  1  0
 22 55  1  0
 23 24  2  0
 23 56  1  0
 24 25  1  0
 25 26  1  0
 25 62  1  0
 26 27  2  0
 26 28  1  0
 28 36  2  0
 28 29  1  0
 29 30  2  0
 29 57  1  0
 30 31  1  0
 31 36  1  0
 31 32  1  0
 32 33  2  0
 32 58  1  0
 33 34  1  0
 33 59  1  0
 34 35  2  0
 34 60  1  0
 35 36  1  0
 37 38  1  0
 38 61  1  0
M  END
>  <i_m_ct_stereo_status>  (393) 
1

>  <s_m_source_file>  (393) 
/var/tmp/pbs.5076255.sched01/tmpm28zzdm2/1449lyhn0we.sdf

>  <i_m_source_file_index>  (393) 
30

>  <i_lp_mmshare_version>  (393) 
48012

>  <i_f3d_flags>  (393) 
0

>  <s_epik_input>  (393) 
W2NIXTFbY0hdW2NIXW5jKG4xMiljKFtjSF1uMilDKD1PKVxOPWNcM1tjSF1jKFtuSF1uMy1jKG5bY0hdNClbY0hdW2NIXWM0W0NIM10pW0NIXTVbQ0gyXVtDSDJdTihbQ0gyXVtDSDJdNSlbUytdKFtPLV0pYzZbY0hdW2NIXW5uW2NIXTY=

>  <s_epik_cmdline>  (393) 
J2VwaWtfcHl0aG9uJywgJy1waHQnLCAnMi4wJywgJy1waCcsICc3LjAnLCAnLXRuJywgJzgnLCAnLW1hJywgJzIwMCcsICctaW1hZScsICc8aW5maWxlLm1hZT4nLCAnLW9tYWUnLCAnPG91dGZpbGUubWFlPic=

>  <r_lp_tautomer_probability>  (393) 
1

>  <r_epik_Ionization_Penalty>  (393) 
0.0010603

>  <r_epik_Ionization_Penalty_Charging>  (393) 
0

>  <r_epik_Ionization_Penalty_Neutral>  (393) 
0.0010603

>  <r_epik_State_Penalty>  (393) 
0.000604547

>  <r_epik_Charging_Adjusted_Penalty>  (393) 
0.000604547

>  <i_epik_Tot_Q>  (393) 
0

>  <i_epik_Tot_abs_Q>  (393) 
0

>  <s_lp_Force_Field>  (393) 
OPLS3e

>  <r_lp_Energy>  (393) 
42.6413

>  <b_lp_Chiralities_Consistent>  (393) 
1

>  <s_lp_Variant>  (393) 
108:0-1

>  <s_i_glide_gridfile>  (393) 
pfpi4k_grid

>  <i_i_glide_lignum>  (393) 
30

>  <i_i_glide_rotatable_bonds>  (393) 
7

>  <r_i_docking_score>  (393) 
-2.48854

>  <r_i_glide_ligand_efficiency>  (393) 
-0.0654879

>  <r_i_glide_ligand_efficiency_sa>  (393) 
-0.220169

>  <r_i_glide_ligand_efficiency_ln>  (393) 
-0.536602

>  <r_i_glide_gscore>  (393) 
-2.48854

>  <r_i_glide_lipo>  (393) 
-0.657475

>  <r_i_glide_hbond>  (393) 
0

>  <r_i_glide_metal>  (393) 
-0

>  <r_i_glide_rewards>  (393) 
-0.0686375

>  <r_i_glide_evdw>  (393) 
-38.0231

>  <r_i_glide_ecoul>  (393) 
-1.63322

>  <r_i_glide_erotb>  (393) 
0.516152

>  <r_i_glide_esite>  (393) 
-0.132442

>  <r_i_glide_emodel>  (393) 
-44.3979

>  <r_i_glide_energy>  (393) 
-39.6563

>  <r_i_glide_einternal>  (393) 
4.08858

>  <r_i_glide_intrahb_reward>  (393) 
-0

>  <i_i_glide_confnum>  (393) 
6

>  <i_i_glide_posenum>  (393) 
23

>  <r_i_glide_eff_state_penalty>  (393) 
0

>  <ligand_id>  (393) 
108

>  <original_smiles>  (393) 
Cc1ccc(-n2[nH]c(C3CCN([S+]([O-])c4ccnnc4)CC3)cc2=NC(=O)c2cnn3cccnc23)nc1

>  <smiles>  (393) 
[H]c1nnc([H])c(S(=O)N2C([H])([H])C([H])([H])C([H])(c3nn(-c4nc([H])c(C([H])([H])[H])c([H])c4[H])c(N([H])C(=O)c4c([H])nn5c([H])c([H])c([H])nc45)c3[H])C([H])([H])C2([H])[H])c1[H]

$$$$
108:0:1
     RDKit          3D

 62 67  0  0  1  0  0  0  0  0999 V2000
   -1.2211   -5.0161    7.2233 C   0  0  0  0  0  0  0  0  0  0  0  0
   -0.4298   -3.9965    6.4436 C   0  0  0  0  0  0  0  0  0  0  0  0
    0.8678   -4.2777    5.9667 C   0  0  0  0  0  0  0  0  0  0  0  0
    1.5425   -3.2777    5.2415 C   0  0  0  0  0  0  0  0  0  0  0  0
    0.9098   -2.0284    5.0130 C   0  0  0  0  0  0  0  0  0  0  0  0
    1.5964   -1.0296    4.2798 N   0  0  0  0  0  0  0  0  0  0  0  0
    2.4813   -1.3705    3.3146 N   0  0  0  0  0  0  0  0  0  0  0  0
    2.9430   -0.2250    2.8207 C   0  0  0  0  0  0  0  0  0  0  0  0
    3.9775   -0.2811    1.7085 C   0  0  0  0  0  0  0  0  0  0  0  0
    3.4152   -0.8667    0.4105 C   0  0  0  0  0  0  0  0  0  0  0  0
    4.4523   -0.9331   -0.7327 C   0  0  0  0  0  0  0  0  0  0  0  0
    5.6354   -1.6474   -0.2816 N   0  0  0  0  0  0  0  0  0  0  0  0
    6.1311   -3.1326   -1.0248 S   0  0  0  0  0  0  0  0  0  0  0  0
    5.8230   -3.0575   -2.5195 O   0  0  0  0  0  0  0  0  0  0  0  0
    4.8809   -4.2452   -0.2991 C   0  0  0  0  0  0  0  0  0  0  0  0
    5.2741   -5.3109    0.5334 C   0  0  0  0  0  0  0  0  0  0  0  0
    4.2313   -6.0660    1.1105 C   0  0  0  0  0  0  0  0  0  0  0  0
    2.9198   -5.7840    0.9206 N   0  0  0  0  0  0  0  0  0  0  0  0
    2.5575   -4.7902    0.1050 N   0  0  0  0  0  0  0  0  0  0  0  0
    3.5014   -4.0554   -0.5215 C   0  0  0  0  0  0  0  0  0  0  0  0
    6.2524   -1.2036    0.9552 C   0  0  0  0  0  0  0  0  0  0  0  0
    5.2289   -1.0940    2.1020 C   0  0  0  0  0  0  0  0  0  0  0  0
    2.3508    0.9128    3.4432 C   0  0  0  0  0  0  0  0  0  0  0  0
    1.5214    0.3471    4.3684 C   0  0  0  0  0  0  0  0  0  0  0  0
    0.7483    0.9872    5.2928 N   0  0  0  0  0  0  0  0  0  0  0  0
    0.2377    2.2374    5.2451 C   0  0  0  0  0  0  0  0  0  0  0  0
    0.4722    3.0382    4.3437 O   0  0  0  0  0  0  0  0  0  0  0  0
   -0.7711    2.5665    6.3100 C   0  0  0  0  0  0  0  0  0  0  0  0
   -1.9460    3.3409    6.1502 C   0  0  0  0  0  0  0  0  0  0  0  0
   -2.5953    3.5381    7.2710 N   0  0  0  0  0  0  0  0  0  0  0  0
   -1.8390    2.8970    8.2106 N   0  0  0  0  0  0  0  0  0  0  0  0
   -2.1171    2.8343    9.5346 C   0  0  0  0  0  0  0  0  0  0  0  0
   -1.2365    2.1502   10.3368 C   0  0  0  0  0  0  0  0  0  0  0  0
   -0.0916    1.5606    9.7263 C   0  0  0  0  0  0  0  0  0  0  0  0
    0.1775    1.5984    8.4341 N   0  0  0  0  0  0  0  0  0  0  0  0
   -0.6849    2.2869    7.6442 C   0  0  0  0  0  0  0  0  0  0  0  0
   -0.3414   -1.7768    5.4648 N   0  0  0  0  0  0  0  0  0  0  0  0
   -0.9862   -2.7397    6.1456 C   0  0  0  0  0  0  0  0  0  0  0  0
   -0.5698   -5.7978    7.6129 H   0  0  0  0  0  0  0  0  0  0  0  0
   -1.9594   -5.4633    6.5639 H   0  0  0  0  0  0  0  0  0  0  0  0
   -1.7449   -4.5482    8.0554 H   0  0  0  0  0  0  0  0  0  0  0  0
    1.3365   -5.2428    6.1538 H   0  0  0  0  0  0  0  0  0  0  0  0
    2.5417   -3.4638    4.8698 H   0  0  0  0  0  0  0  0  0  0  0  0
    4.2735    0.7384    1.4710 H   0  0  0  0  0  0  0  0  0  0  0  0
    2.9560   -1.8214    0.6496 H   0  0  0  0  0  0  0  0  0  0  0  0
    2.5981   -0.2544    0.0807 H   0  0  0  0  0  0  0  0  0  0  0  0
    4.0314   -1.3970   -1.6194 H   0  0  0  0  0  0  0  0  0  0  0  0
    4.7031    0.0731   -1.0537 H   0  0  0  0  0  0  0  0  0  0  0  0
    6.3150   -5.5385    0.7272 H   0  0  0  0  0  0  0  0  0  0  0  0
    4.4403   -6.9052    1.7552 H   0  0  0  0  0  0  0  0  0  0  0  0
    3.1134   -3.2940   -1.1768 H   0  0  0  0  0  0  0  0  0  0  0  0
    7.0440   -1.8928    1.2409 H   0  0  0  0  0  0  0  0  0  0  0  0
    6.7034   -0.2366    0.7694 H   0  0  0  0  0  0  0  0  0  0  0  0
    5.7019   -0.6352    2.9714 H   0  0  0  0  0  0  0  0  0  0  0  0
    4.9296   -2.1044    2.3963 H   0  0  0  0  0  0  0  0  0  0  0  0
    2.5196    1.9635    3.2500 H   0  0  0  0  0  0  0  0  0  0  0  0
   -2.3285    3.7566    5.2377 H   0  0  0  0  0  0  0  0  0  0  0  0
   -3.0214    3.3139    9.9093 H   0  0  0  0  0  0  0  0  0  0  0  0
   -1.4234    2.0574   11.4052 H   0  0  0  0  0  0  0  0  0  0  0  0
    0.6120    1.0209   10.3551 H   0  0  0  0  0  0  0  0  0  0  0  0
   -1.9828   -2.4899    6.4671 H   0  0  0  0  0  0  0  0  0  0  0  0
    0.3705    0.3865    6.0064 H   0  0  0  0  0  0  0  0  0  0  0  0
  1  2  1  0
  1 39  1  0
  1 40  1  0
  1 41  1  0
  2 38  2  0
  2  3  1  0
  3  4  2  0
  3 42  1  0
  4  5  1  0
  4 43  1  0
  5  6  1  0
  5 37  2  0
  6 24  1  0
  6  7  1  0
  7  8  2  0
  8  9  1  0
  8 23  1  0
  9 22  1  0
  9 10  1  0
  9 44  1  0
 10 11  1  0
 10 45  1  0
 10 46  1  0
 11 12  1  0
 11 47  1  0
 11 48  1  0
 13 12  1  1
 12 21  1  0
 13 14  2  0
 13 15  1  0
 15 20  1  0
 15 16  2  0
 16 17  1  0
 16 49  1  0
 17 18  2  0
 17 50  1  0
 18 19  1  0
 19 20  2  0
 20 51  1  0
 21 22  1  0
 21 52  1  0
 21 53  1  0
 22 54  1  0
 22 55  1  0
 23 24  2  0
 23 56  1  0
 24 25  1  0
 25 26  1  0
 25 62  1  0
 26 27  2  0
 26 28  1  0
 28 36  2  0
 28 29  1  0
 29 30  2  0
 29 57  1  0
 30 31  1  0
 31 36  1  0
 31 32  1  0
 32 33  2  0
 32 58  1  0
 33 34  1  0
 33 59  1  0
 34 35  2  0
 34 60  1  0
 35 36  1  0
 37 38  1  0
 38 61  1  0
M  END
>  <i_m_ct_stereo_status>  (394) 
1

>  <s_m_source_file>  (394) 
/var/tmp/pbs.5076255.sched01/tmpm28zzdm2/1449lyhn0we.sdf

>  <i_m_source_file_index>  (394) 
30

>  <i_lp_mmshare_version>  (394) 
48012

>  <i_f3d_flags>  (394) 
0

>  <s_epik_input>  (394) 
W2NIXTFbY0hdW2NIXW5jKG4xMiljKFtjSF1uMilDKD1PKVxOPWNcM1tjSF1jKFtuSF1uMy1jKG5bY0hdNClbY0hdW2NIXWM0W0NIM10pW0NIXTVbQ0gyXVtDSDJdTihbQ0gyXVtDSDJdNSlbUytdKFtPLV0pYzZbY0hdW2NIXW5uW2NIXTY=

>  <s_epik_cmdline>  (394) 
J2VwaWtfcHl0aG9uJywgJy1waHQnLCAnMi4wJywgJy1waCcsICc3LjAnLCAnLXRuJywgJzgnLCAnLW1hJywgJzIwMCcsICctaW1hZScsICc8aW5maWxlLm1hZT4nLCAnLW9tYWUnLCAnPG91dGZpbGUubWFlPic=

>  <r_lp_tautomer_probability>  (394) 
1

>  <r_epik_Ionization_Penalty>  (394) 
0.0010603

>  <r_epik_Ionization_Penalty_Charging>  (394) 
0

>  <r_epik_Ionization_Penalty_Neutral>  (394) 
0.0010603

>  <r_epik_State_Penalty>  (394) 
0.000604547

>  <r_epik_Charging_Adjusted_Penalty>  (394) 
0.000604547

>  <i_epik_Tot_Q>  (394) 
0

>  <i_epik_Tot_abs_Q>  (394) 
0

>  <s_lp_Force_Field>  (394) 
OPLS3e

>  <r_lp_Energy>  (394) 
42.6413

>  <b_lp_Chiralities_Consistent>  (394) 
1

>  <s_lp_Variant>  (394) 
108:0-1

>  <s_i_glide_gridfile>  (394) 
pfpi4k_grid

>  <i_i_glide_lignum>  (394) 
30

>  <i_i_glide_rotatable_bonds>  (394) 
7

>  <r_i_docking_score>  (394) 
-2.36935

>  <r_i_glide_ligand_efficiency>  (394) 
-0.0623514

>  <r_i_glide_ligand_efficiency_sa>  (394) 
-0.209624

>  <r_i_glide_ligand_efficiency_ln>  (394) 
-0.510902

>  <r_i_glide_gscore>  (394) 
-2.36935

>  <r_i_glide_lipo>  (394) 
-0.604904

>  <r_i_glide_hbond>  (394) 
0

>  <r_i_glide_metal>  (394) 
-0

>  <r_i_glide_rewards>  (394) 
-0.098661

>  <r_i_glide_evdw>  (394) 
-38.0035

>  <r_i_glide_ecoul>  (394) 
-1.14457

>  <r_i_glide_erotb>  (394) 
0.516152

>  <r_i_glide_esite>  (394) 
-0.110078

>  <r_i_glide_emodel>  (394) 
-43.6403

>  <r_i_glide_energy>  (394) 
-39.1481

>  <r_i_glide_einternal>  (394) 
3.20853

>  <r_i_glide_intrahb_reward>  (394) 
-0

>  <i_i_glide_confnum>  (394) 
6

>  <i_i_glide_posenum>  (394) 
15

>  <r_i_glide_eff_state_penalty>  (394) 
0

>  <ligand_id>  (394) 
108

>  <original_smiles>  (394) 
Cc1ccc(-n2[nH]c(C3CCN([S+]([O-])c4ccnnc4)CC3)cc2=NC(=O)c2cnn3cccnc23)nc1

>  <smiles>  (394) 
[H]c1nnc([H])c(S(=O)N2C([H])([H])C([H])([H])C([H])(c3nn(-c4nc([H])c(C([H])([H])[H])c([H])c4[H])c(N([H])C(=O)c4c([H])nn5c([H])c([H])c([H])nc45)c3[H])C([H])([H])C2([H])[H])c1[H]

$$$$
108:0:2
     RDKit          3D

 62 67  0  0  1  0  0  0  0  0999 V2000
    4.8221   -3.5424   -0.9727 C   0  0  0  0  0  0  0  0  0  0  0  0
    3.9311   -3.3456    0.2284 C   0  0  0  0  0  0  0  0  0  0  0  0
    3.6439   -2.0628    0.7349 C   0  0  0  0  0  0  0  0  0  0  0  0
    2.8168   -1.9528    1.8687 C   0  0  0  0  0  0  0  0  0  0  0  0
    2.2864   -3.1269    2.4633 C   0  0  0  0  0  0  0  0  0  0  0  0
    1.4387   -3.0335    3.6070 N   0  0  0  0  0  0  0  0  0  0  0  0
    1.0170   -1.8282    4.0521 N   0  0  0  0  0  0  0  0  0  0  0  0
    0.2655   -2.0524    5.1195 C   0  0  0  0  0  0  0  0  0  0  0  0
   -0.3390   -0.8706    5.8471 C   0  0  0  0  0  0  0  0  0  0  0  0
   -1.3851   -0.1505    4.9784 C   0  0  0  0  0  0  0  0  0  0  0  0
   -1.9515    1.1138    5.6645 C   0  0  0  0  0  0  0  0  0  0  0  0
   -0.8894    1.9745    6.1741 N   0  0  0  0  0  0  0  0  0  0  0  0
   -0.7321    3.6343    5.6464 S   0  0  0  0  0  0  0  0  0  0  0  0
   -1.9901    4.0673    4.8898 O   0  0  0  0  0  0  0  0  0  0  0  0
    0.5297    3.3441    4.3790 C   0  0  0  0  0  0  0  0  0  0  0  0
    1.7811    3.9768    4.4571 C   0  0  0  0  0  0  0  0  0  0  0  0
    2.7102    3.6294    3.4596 C   0  0  0  0  0  0  0  0  0  0  0  0
    2.4559    2.6942    2.5127 N   0  0  0  0  0  0  0  0  0  0  0  0
    1.2576    2.1044    2.4435 N   0  0  0  0  0  0  0  0  0  0  0  0
    0.2894    2.4500    3.3194 C   0  0  0  0  0  0  0  0  0  0  0  0
    0.1410    1.3650    7.0054 C   0  0  0  0  0  0  0  0  0  0  0  0
    0.7428    0.1324    6.3088 C   0  0  0  0  0  0  0  0  0  0  0  0
    0.1365   -3.4441    5.3903 C   0  0  0  0  0  0  0  0  0  0  0  0
    0.9013   -4.0265    4.4116 C   0  0  0  0  0  0  0  0  0  0  0  0
    1.1459   -5.3558    4.2144 N   0  0  0  0  0  0  0  0  0  0  0  0
    0.3733   -6.4098    4.5569 C   0  0  0  0  0  0  0  0  0  0  0  0
   -0.6801   -6.2930    5.1825 O   0  0  0  0  0  0  0  0  0  0  0  0
    0.8666   -7.7670    4.1522 C   0  0  0  0  0  0  0  0  0  0  0  0
    0.3689   -9.0212    4.5792 C   0  0  0  0  0  0  0  0  0  0  0  0
    0.9880  -10.0518    4.0521 N   0  0  0  0  0  0  0  0  0  0  0  0
    1.9242   -9.4929    3.2398 N   0  0  0  0  0  0  0  0  0  0  0  0
    2.8218  -10.1761    2.4776 C   0  0  0  0  0  0  0  0  0  0  0  0
    3.6908   -9.4436    1.7062 C   0  0  0  0  0  0  0  0  0  0  0  0
    3.6075   -8.0331    1.7557 C   0  0  0  0  0  0  0  0  0  0  0  0
    2.7365   -7.3605    2.5033 N   0  0  0  0  0  0  0  0  0  0  0  0
    1.8780   -8.0746    3.2603 C   0  0  0  0  0  0  0  0  0  0  0  0
    2.5593   -4.3467    1.9491 N   0  0  0  0  0  0  0  0  0  0  0  0
    3.3563   -4.4550    0.8686 C   0  0  0  0  0  0  0  0  0  0  0  0
    5.4223   -2.6511   -1.1511 H   0  0  0  0  0  0  0  0  0  0  0  0
    4.2162   -3.7412   -1.8563 H   0  0  0  0  0  0  0  0  0  0  0  0
    5.4911   -4.3899   -0.8125 H   0  0  0  0  0  0  0  0  0  0  0  0
    4.0452   -1.1710    0.2657 H   0  0  0  0  0  0  0  0  0  0  0  0
    2.5831   -0.9750    2.2598 H   0  0  0  0  0  0  0  0  0  0  0  0
   -0.8441   -1.2425    6.7382 H   0  0  0  0  0  0  0  0  0  0  0  0
   -0.9054    0.0967    4.0320 H   0  0  0  0  0  0  0  0  0  0  0  0
   -2.2016   -0.8259    4.7200 H   0  0  0  0  0  0  0  0  0  0  0  0
   -2.5644    1.6725    4.9602 H   0  0  0  0  0  0  0  0  0  0  0  0
   -2.5970    0.8325    6.4948 H   0  0  0  0  0  0  0  0  0  0  0  0
    2.0179    4.6846    5.2384 H   0  0  0  0  0  0  0  0  0  0  0  0
    3.6907    4.0783    3.4423 H   0  0  0  0  0  0  0  0  0  0  0  0
   -0.6769    1.9903    3.1888 H   0  0  0  0  0  0  0  0  0  0  0  0
    0.9242    2.0969    7.1923 H   0  0  0  0  0  0  0  0  0  0  0  0
   -0.2846    1.0932    7.9711 H   0  0  0  0  0  0  0  0  0  0  0  0
    1.4371   -0.3617    6.9886 H   0  0  0  0  0  0  0  0  0  0  0  0
    1.3351    0.4678    5.4531 H   0  0  0  0  0  0  0  0  0  0  0  0
   -0.4215   -3.9376    6.1723 H   0  0  0  0  0  0  0  0  0  0  0  0
   -0.4359   -9.2017    5.2736 H   0  0  0  0  0  0  0  0  0  0  0  0
    2.8033  -11.2624    2.4997 H   0  0  0  0  0  0  0  0  0  0  0  0
    4.4138   -9.9512    1.0718 H   0  0  0  0  0  0  0  0  0  0  0  0
    4.2934   -7.4481    1.1506 H   0  0  0  0  0  0  0  0  0  0  0  0
    3.5370   -5.4536    0.5078 H   0  0  0  0  0  0  0  0  0  0  0  0
    1.9354   -5.5507    3.6038 H   0  0  0  0  0  0  0  0  0  0  0  0
  1  2  1  0
  1 39  1  0
  1 40  1  0
  1 41  1  0
  2 38  2  0
  2  3  1  0
  3  4  2  0
  3 42  1  0
  4  5  1  0
  4 43  1  0
  5  6  1  0
  5 37  2  0
  6 24  1  0
  6  7  1  0
  7  8  2  0
  8  9  1  0
  8 23  1  0
  9 22  1  0
  9 10  1  0
  9 44  1  0
 10 11  1  0
 10 45  1  0
 10 46  1  0
 11 12  1  0
 11 47  1  0
 11 48  1  0
 13 12  1  6
 12 21  1  0
 13 14  2  0
 13 15  1  0
 15 20  1  0
 15 16  2  0
 16 17  1  0
 16 49  1  0
 17 18  2  0
 17 50  1  0
 18 19  1  0
 19 20  2  0
 20 51  1  0
 21 22  1  0
 21 52  1  0
 21 53  1  0
 22 54  1  0
 22 55  1  0
 23 24  2  0
 23 56  1  0
 24 25  1  0
 25 26  1  0
 25 62  1  0
 26 27  2  0
 26 28  1  0
 28 36  2  0
 28 29  1  0
 29 30  2  0
 29 57  1  0
 30 31  1  0
 31 36  1  0
 31 32  1  0
 32 33  2  0
 32 58  1  0
 33 34  1  0
 33 59  1  0
 34 35  2  0
 34 60  1  0
 35 36  1  0
 37 38  1  0
 38 61  1  0
M  END
>  <i_m_ct_stereo_status>  (395) 
1

>  <s_m_source_file>  (395) 
/var/tmp/pbs.5076255.sched01/tmpm28zzdm2/1449lyhn0we.sdf

>  <i_m_source_file_index>  (395) 
30

>  <i_lp_mmshare_version>  (395) 
48012

>  <i_f3d_flags>  (395) 
0

>  <s_epik_input>  (395) 
W2NIXTFbY0hdW2NIXW5jKG4xMiljKFtjSF1uMilDKD1PKVxOPWNcM1tjSF1jKFtuSF1uMy1jKG5bY0hdNClbY0hdW2NIXWM0W0NIM10pW0NIXTVbQ0gyXVtDSDJdTihbQ0gyXVtDSDJdNSlbUytdKFtPLV0pYzZbY0hdW2NIXW5uW2NIXTY=

>  <s_epik_cmdline>  (395) 
J2VwaWtfcHl0aG9uJywgJy1waHQnLCAnMi4wJywgJy1waCcsICc3LjAnLCAnLXRuJywgJzgnLCAnLW1hJywgJzIwMCcsICctaW1hZScsICc8aW5maWxlLm1hZT4nLCAnLW9tYWUnLCAnPG91dGZpbGUubWFlPic=

>  <r_lp_tautomer_probability>  (395) 
1

>  <r_epik_Ionization_Penalty>  (395) 
0.0010603

>  <r_epik_Ionization_Penalty_Charging>  (395) 
0

>  <r_epik_Ionization_Penalty_Neutral>  (395) 
0.0010603

>  <r_epik_State_Penalty>  (395) 
0.000604547

>  <r_epik_Charging_Adjusted_Penalty>  (395) 
0.000604547

>  <i_epik_Tot_Q>  (395) 
0

>  <i_epik_Tot_abs_Q>  (395) 
0

>  <s_lp_Force_Field>  (395) 
OPLS3e

>  <r_lp_Energy>  (395) 
42.6413

>  <b_lp_Chiralities_Consistent>  (395) 
1

>  <s_lp_Variant>  (395) 
108:0-1

>  <s_i_glide_gridfile>  (395) 
pfpi4k_grid

>  <i_i_glide_lignum>  (395) 
30

>  <i_i_glide_rotatable_bonds>  (395) 
7

>  <r_i_docking_score>  (395) 
-2.33653

>  <r_i_glide_ligand_efficiency>  (395) 
-0.0614878

>  <r_i_glide_ligand_efficiency_sa>  (395) 
-0.20672

>  <r_i_glide_ligand_efficiency_ln>  (395) 
-0.503826

>  <r_i_glide_gscore>  (395) 
-2.33653

>  <r_i_glide_lipo>  (395) 
-0.0573169

>  <r_i_glide_hbond>  (395) 
0

>  <r_i_glide_metal>  (395) 
-0

>  <r_i_glide_rewards>  (395) 
-0.548996

>  <r_i_glide_evdw>  (395) 
-37.429

>  <r_i_glide_ecoul>  (395) 
-1.3039

>  <r_i_glide_erotb>  (395) 
0.516152

>  <r_i_glide_esite>  (395) 
-0.17934

>  <r_i_glide_emodel>  (395) 
-48.9593

>  <r_i_glide_energy>  (395) 
-38.7329

>  <r_i_glide_einternal>  (395) 
2.03589

>  <r_i_glide_intrahb_reward>  (395) 
-0.5

>  <i_i_glide_confnum>  (395) 
6

>  <i_i_glide_posenum>  (395) 
2

>  <r_i_glide_eff_state_penalty>  (395) 
0

>  <ligand_id>  (395) 
108

>  <original_smiles>  (395) 
Cc1ccc(-n2[nH]c(C3CCN([S+]([O-])c4ccnnc4)CC3)cc2=NC(=O)c2cnn3cccnc23)nc1

>  <smiles>  (395) 
[H]c1nnc([H])c(S(=O)N2C([H])([H])C([H])([H])C([H])(c3nn(-c4nc([H])c(C([H])([H])[H])c([H])c4[H])c(N([H])C(=O)c4c([H])nn5c([H])c([H])c([H])nc45)c3[H])C([H])([H])C2([H])[H])c1[H]

$$$$
109:0:0
     RDKit          3D

 56 62  0  0  1  0  0  0  0  0999 V2000
   -1.7860   -8.6609    4.0812 O   0  0  0  0  0  0  0  0  0  0  0  0
   -0.5843   -8.3140    3.5494 C   0  0  0  0  0  0  0  0  0  0  0  0
   -0.5302   -7.7529    2.2511 C   0  0  0  0  0  0  0  0  0  0  0  0
    0.7003   -7.4272    1.6296 C   0  0  0  0  0  0  0  0  0  0  0  0
    1.9031   -7.6222    2.3401 C   0  0  0  0  0  0  0  0  0  0  0  0
    1.7579   -8.1332    3.6345 C   0  0  0  0  0  0  0  0  0  0  0  0
    0.6058   -8.5420    4.2722 C   0  0  0  0  0  0  0  0  0  0  0  0
    0.8012   -9.1288    5.5018 O   0  0  0  0  0  0  0  0  0  0  0  0
    2.2565   -9.2663    5.6712 C   0  0  1  0  0  0  0  0  0  0  0  0
    3.0643  -10.6338    5.9490 C   0  0  2  0  0  0  0  0  0  0  0  0
    2.2009  -10.9149    4.8597 O   0  0  0  0  0  0  0  0  0  0  0  0
    4.4773   -9.9552    6.0030 C   0  0  0  0  0  0  0  0  0  0  0  0
    5.0245   -9.1732    5.0407 C   0  0  0  0  0  0  0  0  0  0  0  0
    4.1535   -8.8558    3.8508 C   0  0  2  0  0  0  0  0  0  0  0  0
    4.0468  -10.2169    3.0104 C   0  0  1  0  0  0  0  0  0  0  0  0
    4.9475  -10.2490    1.9233 O   0  0  0  0  0  0  0  0  0  0  0  0
    4.3997  -11.5668    3.7522 C   0  0  0  0  0  0  0  0  0  0  0  0
    3.6638  -11.8715    5.1245 C   0  0  0  0  0  0  0  0  0  0  0  0
    4.5117   -7.6614    2.8859 C   0  0  1  0  0  0  0  0  0  0  0  0
    3.3459   -7.4536    1.8444 C   0  0  0  0  0  0  0  0  0  0  0  0
    4.8481   -6.3840    3.5976 N   0  0  1  0  0  0  0  0  0  0  0  0
    5.4871   -5.3460    2.7278 C   0  0  0  0  0  0  0  0  0  0  0  0
    6.9469   -5.6454    2.4645 C   0  0  0  0  0  0  0  0  0  0  0  0
    7.6644   -4.9457    1.3250 C   0  0  0  0  0  0  0  0  0  0  0  0
    7.3454   -6.4101    1.2236 C   0  0  0  0  0  0  0  0  0  0  0  0
    3.6956   -5.8499    4.3598 C   0  0  0  0  0  0  0  0  0  0  0  0
    3.1620   -6.9355    5.2943 C   0  0  0  0  0  0  0  0  0  0  0  0
    2.8775   -8.3103    4.5834 C   0  0  1  0  0  0  0  0  0  0  0  0
   -1.7849   -9.5361    4.4867 H   0  0  0  0  0  0  0  0  0  0  0  0
   -1.4414   -7.6280    1.6945 H   0  0  0  0  0  0  0  0  0  0  0  0
    0.7264   -7.0726    0.6061 H   0  0  0  0  0  0  0  0  0  0  0  0
    2.3690   -8.7705    6.6341 H   0  0  0  0  0  0  0  0  0  0  0  0
    1.8158  -11.7640    5.0226 H   0  0  0  0  0  0  0  0  0  0  0  0
    5.0446  -10.1921    6.8930 H   0  0  0  0  0  0  0  0  0  0  0  0
    6.0150   -8.7536    5.1275 H   0  0  0  0  0  0  0  0  0  0  0  0
    3.0507  -10.2970    2.5673 H   0  0  0  0  0  0  0  0  0  0  0  0
    4.6445  -10.9407    1.3284 H   0  0  0  0  0  0  0  0  0  0  0  0
    4.1978  -12.3983    3.0773 H   0  0  0  0  0  0  0  0  0  0  0  0
    5.4778  -11.6193    3.9221 H   0  0  0  0  0  0  0  0  0  0  0  0
    4.4448  -12.2955    5.7604 H   0  0  0  0  0  0  0  0  0  0  0  0
    3.0763  -12.8092    5.0615 H   0  0  0  0  0  0  0  0  0  0  0  0
    5.4245   -7.9095    2.3527 H   0  0  0  0  0  0  0  0  0  0  0  0
    3.4846   -8.1784    1.0467 H   0  0  0  0  0  0  0  0  0  0  0  0
    3.3891   -6.4868    1.3456 H   0  0  0  0  0  0  0  0  0  0  0  0
    4.9766   -5.2222    1.7723 H   0  0  0  0  0  0  0  0  0  0  0  0
    5.4343   -4.3691    3.2041 H   0  0  0  0  0  0  0  0  0  0  0  0
    7.5478   -5.8015    3.3620 H   0  0  0  0  0  0  0  0  0  0  0  0
    7.0909   -4.2622    0.7002 H   0  0  0  0  0  0  0  0  0  0  0  0
    8.7119   -4.6836    1.4634 H   0  0  0  0  0  0  0  0  0  0  0  0
    8.1651   -7.1222    1.3200 H   0  0  0  0  0  0  0  0  0  0  0  0
    6.5412   -6.6978    0.5493 H   0  0  0  0  0  0  0  0  0  0  0  0
    4.0101   -4.9852    4.9448 H   0  0  0  0  0  0  0  0  0  0  0  0
    2.9121   -5.4922    3.6918 H   0  0  0  0  0  0  0  0  0  0  0  0
    3.8858   -7.0641    6.1041 H   0  0  0  0  0  0  0  0  0  0  0  0
    2.2646   -6.5588    5.7858 H   0  0  0  0  0  0  0  0  0  0  0  0
    5.5432   -6.6161    4.3007 H   0  0  0  0  0  0  0  0  0  0  0  0
  1  2  1  0
  1 29  1  0
  2  7  2  0
  2  3  1  0
  3  4  2  0
  3 30  1  0
  4  5  1  0
  4 31  1  0
  5 20  1  0
  5  6  2  0
  6 28  1  0
  6  7  1  0
  7  8  1  0
  8  9  1  0
  9 28  1  0
  9 10  1  0
  9 32  1  1
 10 18  1  0
 10 11  1  1
 10 12  1  0
 11 33  1  0
 12 13  2  0
 12 34  1  0
 14 13  1  1
 13 35  1  0
 14 28  1  0
 14 15  1  0
 14 19  1  0
 15 16  1  0
 15 17  1  0
 15 36  1  6
 16 37  1  0
 17 18  1  0
 17 38  1  0
 17 39  1  0
 18 40  1  0
 18 41  1  0
 19 20  1  0
 19 21  1  0
 19 42  1  6
 20 43  1  0
 20 44  1  0
 21 22  1  0
 21 26  1  0
 21 56  1  1
 22 23  1  0
 22 45  1  0
 22 46  1  0
 23 25  1  0
 23 24  1  0
 23 47  1  0
 24 25  1  0
 24 48  1  0
 24 49  1  0
 25 50  1  0
 25 51  1  0
 26 27  1  0
 26 52  1  0
 26 53  1  0
 28 27  1  1
 27 54  1  0
 27 55  1  0
M  CHG  1  21   1
M  END
>  <i_m_ct_stereo_status>  (396) 
1

>  <s_m_source_file>  (396) 
/var/tmp/pbs.5076255.sched01/tmpm28zzdm2/1449lyhn0we.sdf

>  <i_m_source_file_index>  (396) 
31

>  <i_lp_mmshare_version>  (396) 
48012

>  <i_f3d_flags>  (396) 
1

>  <s_epik_input>  (396) 
W09IXVtDQEhdMVtDSDJdW0NIMl1bQ0BdKFtPSF0pKFtDSF09W0NIXTIpW0NAQEhdM09jNGMoW09IXSlbY0hdW2NIXWMoYzRbQ0BdMzVbQ0BdMTI2KVtDSDJdW0NASF02TihbQ0gyXVtDSDJdNSlbQ0gyXVtDSF03W0NIMl1bQ0gyXTc=

>  <s_epik_cmdline>  (396) 
J2VwaWtfcHl0aG9uJywgJy1waHQnLCAnMi4wJywgJy1waCcsICc3LjAnLCAnLXRuJywgJzgnLCAnLW1hJywgJzIwMCcsICctaW1hZScsICc8aW5maWxlLm1hZT4nLCAnLW9tYWUnLCAnPG91dGZpbGUubWFlPic=

>  <r_lp_tautomer_probability>  (396) 
1

>  <r_epik_Ionization_Penalty>  (396) 
0.0320862

>  <r_epik_Ionization_Penalty_Charging>  (396) 
0.0210701

>  <r_epik_Ionization_Penalty_Neutral>  (396) 
0.0110161

>  <r_epik_State_Penalty>  (396) 
0.0251428

>  <r_epik_Charging_Adjusted_Penalty>  (396) 
0.0462129

>  <i_epik_Tot_Q>  (396) 
1

>  <i_epik_Tot_abs_Q>  (396) 
1

>  <s_lp_Force_Field>  (396) 
OPLS3e

>  <r_lp_Energy>  (396) 
207.73

>  <b_lp_Chiralities_Consistent>  (396) 
1

>  <s_lp_Variant>  (396) 
109:0-1

>  <s_i_glide_gridfile>  (396) 
pfpi4k_grid

>  <i_i_glide_lignum>  (396) 
31

>  <i_i_glide_rotatable_bonds>  (396) 
5

>  <r_i_docking_score>  (396) 
-3.69354

>  <r_i_glide_ligand_efficiency>  (396) 
-0.131912

>  <r_i_glide_ligand_efficiency_sa>  (396) 
-0.400563

>  <r_i_glide_ligand_efficiency_ln>  (396) 
-0.852578

>  <r_i_glide_gscore>  (396) 
-3.69354

>  <r_i_glide_lipo>  (396) 
-0.215438

>  <r_i_glide_hbond>  (396) 
-0.152

>  <r_i_glide_metal>  (396) 
-0

>  <r_i_glide_rewards>  (396) 
-0.801322

>  <r_i_glide_evdw>  (396) 
-22.2287

>  <r_i_glide_ecoul>  (396) 
-11.1926

>  <r_i_glide_erotb>  (396) 
0.265536

>  <r_i_glide_esite>  (396) 
0

>  <r_i_glide_emodel>  (396) 
-39.9763

>  <r_i_glide_energy>  (396) 
-33.4213

>  <r_i_glide_einternal>  (396) 
4.19289

>  <r_i_glide_intrahb_reward>  (396) 
-0

>  <i_i_glide_confnum>  (396) 
3

>  <i_i_glide_posenum>  (396) 
26

>  <r_i_glide_eff_state_penalty>  (396) 
0

>  <ligand_id>  (396) 
109

>  <original_smiles>  (396) 
Oc1ccc2c3c1OC1C4(O)C=CC5(C(O)CC4)C(C2)N(CC2CC2)CCC315

>  <smiles>  (396) 
[H]Oc1c([H])c([H])c2c3c1OC1([H])C4(O[H])C([H])=C([H])C5(C([H])(O[H])C([H])([H])C4([H])[H])C31C([H])([H])C([H])([H])[N+]([H])(C([H])([H])C1([H])C([H])([H])C1([H])[H])C5([H])C2([H])[H]

$$$$
109:0:1
     RDKit          3D

 56 62  0  0  1  0  0  0  0  0999 V2000
    1.5948   -8.2112    1.6745 O   0  0  0  0  0  0  0  0  0  0  0  0
    1.7809   -6.9861    2.2369 C   0  0  0  0  0  0  0  0  0  0  0  0
    0.8263   -6.4669    3.1498 C   0  0  0  0  0  0  0  0  0  0  0  0
    0.9786   -5.1779    3.7242 C   0  0  0  0  0  0  0  0  0  0  0  0
    2.1112   -4.4108    3.4130 C   0  0  0  0  0  0  0  0  0  0  0  0
    3.0302   -5.0141    2.5475 C   0  0  0  0  0  0  0  0  0  0  0  0
    2.9225   -6.2317    1.8990 C   0  0  0  0  0  0  0  0  0  0  0  0
    3.9332   -6.4910    0.9967 O   0  0  0  0  0  0  0  0  0  0  0  0
    4.7497   -5.2717    0.9157 C   0  0  1  0  0  0  0  0  0  0  0  0
    5.0746   -4.4183   -0.4148 C   0  0  2  0  0  0  0  0  0  0  0  0
    3.6707   -4.6244   -0.4148 O   0  0  0  0  0  0  0  0  0  0  0  0
    5.9570   -3.3441    0.3145 C   0  0  0  0  0  0  0  0  0  0  0  0
    5.5768   -2.5885    1.3739 C   0  0  0  0  0  0  0  0  0  0  0  0
    4.2163   -2.8789    1.9616 C   0  0  2  0  0  0  0  0  0  0  0  0
    3.1538   -2.3225    0.8953 C   0  0  1  0  0  0  0  0  0  0  0  0
    2.6200   -1.0630    1.2680 O   0  0  0  0  0  0  0  0  0  0  0  0
    3.6661   -2.0832   -0.5842 C   0  0  0  0  0  0  0  0  0  0  0  0
    4.3987   -3.2823   -1.3213 C   0  0  0  0  0  0  0  0  0  0  0  0
    3.8320   -2.3714    3.4037 C   0  0  1  0  0  0  0  0  0  0  0  0
    2.4340   -2.9633    3.8194 C   0  0  0  0  0  0  0  0  0  0  0  0
    4.8779   -2.6436    4.4396 N   0  0  1  0  0  0  0  0  0  0  0  0
    4.6849   -1.9017    5.7203 C   0  0  0  0  0  0  0  0  0  0  0  0
    5.0619   -0.4321    5.6047 C   0  0  0  0  0  0  0  0  0  0  0  0
    6.4032    0.0634    6.1000 C   0  0  0  0  0  0  0  0  0  0  0  0
    5.1487    0.4234    6.8504 C   0  0  0  0  0  0  0  0  0  0  0  0
    5.0835   -4.0925    4.6531 C   0  0  0  0  0  0  0  0  0  0  0  0
    5.3730   -4.7743    3.3098 C   0  0  0  0  0  0  0  0  0  0  0  0
    4.3340   -4.4297    2.1818 C   0  0  1  0  0  0  0  0  0  0  0  0
    0.8019   -8.6538    1.9342 H   0  0  0  0  0  0  0  0  0  0  0  0
   -0.0485   -7.0426    3.3950 H   0  0  0  0  0  0  0  0  0  0  0  0
    0.2178   -4.7730    4.3762 H   0  0  0  0  0  0  0  0  0  0  0  0
    5.7314   -5.7020    1.1214 H   0  0  0  0  0  0  0  0  0  0  0  0
    3.4360   -5.0997   -1.2081 H   0  0  0  0  0  0  0  0  0  0  0  0
    6.9353   -3.1972   -0.1251 H   0  0  0  0  0  0  0  0  0  0  0  0
    6.2207   -1.8443    1.8179 H   0  0  0  0  0  0  0  0  0  0  0  0
    2.2845   -2.9814    0.8687 H   0  0  0  0  0  0  0  0  0  0  0  0
    1.9634   -0.8312    0.6125 H   0  0  0  0  0  0  0  0  0  0  0  0
    2.8199   -1.8054   -1.2114 H   0  0  0  0  0  0  0  0  0  0  0  0
    4.3150   -1.2049   -0.6126 H   0  0  0  0  0  0  0  0  0  0  0  0
    5.2196   -2.8020   -1.8612 H   0  0  0  0  0  0  0  0  0  0  0  0
    3.8438   -3.5881   -2.2303 H   0  0  0  0  0  0  0  0  0  0  0  0
    3.7499   -1.2886    3.3735 H   0  0  0  0  0  0  0  0  0  0  0  0
    1.6605   -2.3424    3.3695 H   0  0  0  0  0  0  0  0  0  0  0  0
    2.2477   -2.8928    4.8899 H   0  0  0  0  0  0  0  0  0  0  0  0
    3.6652   -1.9593    6.0967 H   0  0  0  0  0  0  0  0  0  0  0  0
    5.2979   -2.3457    6.5085 H   0  0  0  0  0  0  0  0  0  0  0  0
    4.6358    0.0934    4.7487 H   0  0  0  0  0  0  0  0  0  0  0  0
    7.0742   -0.6709    6.5458 H   0  0  0  0  0  0  0  0  0  0  0  0
    6.8818    0.8410    5.5064 H   0  0  0  0  0  0  0  0  0  0  0  0
    4.8059    1.4535    6.7715 H   0  0  0  0  0  0  0  0  0  0  0  0
    4.9763   -0.0532    7.8141 H   0  0  0  0  0  0  0  0  0  0  0  0
    5.9258   -4.2541    5.3313 H   0  0  0  0  0  0  0  0  0  0  0  0
    4.2203   -4.5526    5.1389 H   0  0  0  0  0  0  0  0  0  0  0  0
    6.3757   -4.4955    2.9821 H   0  0  0  0  0  0  0  0  0  0  0  0
    5.4366   -5.8528    3.4722 H   0  0  0  0  0  0  0  0  0  0  0  0
    5.7543   -2.3068    4.0645 H   0  0  0  0  0  0  0  0  0  0  0  0
  1  2  1  0
  1 29  1  0
  2  7  2  0
  2  3  1  0
  3  4  2  0
  3 30  1  0
  4  5  1  0
  4 31  1  0
  5 20  1  0
  5  6  2  0
  6 28  1  0
  6  7  1  0
  7  8  1  0
  8  9  1  0
  9 28  1  0
  9 10  1  0
  9 32  1  1
 10 18  1  0
 10 11  1  6
 10 12  1  0
 11 33  1  0
 12 13  2  0
 12 34  1  0
 14 13  1  6
 13 35  1  0
 14 28  1  0
 14 15  1  0
 14 19  1  0
 15 16  1  0
 15 17  1  0
 15 36  1  6
 16 37  1  0
 17 18  1  0
 17 38  1  0
 17 39  1  0
 18 40  1  0
 18 41  1  0
 19 20  1  0
 19 21  1  0
 19 42  1  6
 20 43  1  0
 20 44  1  0
 21 22  1  0
 21 26  1  0
 21 56  1  6
 22 23  1  0
 22 45  1  0
 22 46  1  0
 23 25  1  0
 23 24  1  0
 23 47  1  0
 24 25  1  0
 24 48  1  0
 24 49  1  0
 25 50  1  0
 25 51  1  0
 26 27  1  0
 26 52  1  0
 26 53  1  0
 28 27  1  1
 27 54  1  0
 27 55  1  0
M  CHG  1  21   1
M  END
>  <i_m_ct_stereo_status>  (397) 
1

>  <s_m_source_file>  (397) 
/var/tmp/pbs.5076255.sched01/tmpm28zzdm2/1449lyhn0we.sdf

>  <i_m_source_file_index>  (397) 
31

>  <i_lp_mmshare_version>  (397) 
48012

>  <i_f3d_flags>  (397) 
1

>  <s_epik_input>  (397) 
W09IXVtDQEhdMVtDSDJdW0NIMl1bQ0BdKFtPSF0pKFtDSF09W0NIXTIpW0NAQEhdM09jNGMoW09IXSlbY0hdW2NIXWMoYzRbQ0BdMzVbQ0BdMTI2KVtDSDJdW0NASF02TihbQ0gyXVtDSDJdNSlbQ0gyXVtDSF03W0NIMl1bQ0gyXTc=

>  <s_epik_cmdline>  (397) 
J2VwaWtfcHl0aG9uJywgJy1waHQnLCAnMi4wJywgJy1waCcsICc3LjAnLCAnLXRuJywgJzgnLCAnLW1hJywgJzIwMCcsICctaW1hZScsICc8aW5maWxlLm1hZT4nLCAnLW9tYWUnLCAnPG91dGZpbGUubWFlPic=

>  <r_lp_tautomer_probability>  (397) 
1

>  <r_epik_Ionization_Penalty>  (397) 
0.0320862

>  <r_epik_Ionization_Penalty_Charging>  (397) 
0.0210701

>  <r_epik_Ionization_Penalty_Neutral>  (397) 
0.0110161

>  <r_epik_State_Penalty>  (397) 
0.0251428

>  <r_epik_Charging_Adjusted_Penalty>  (397) 
0.0462129

>  <i_epik_Tot_Q>  (397) 
1

>  <i_epik_Tot_abs_Q>  (397) 
1

>  <s_lp_Force_Field>  (397) 
OPLS3e

>  <r_lp_Energy>  (397) 
207.73

>  <b_lp_Chiralities_Consistent>  (397) 
1

>  <s_lp_Variant>  (397) 
109:0-1

>  <s_i_glide_gridfile>  (397) 
pfpi4k_grid

>  <i_i_glide_lignum>  (397) 
31

>  <i_i_glide_rotatable_bonds>  (397) 
5

>  <r_i_docking_score>  (397) 
-3.4007

>  <r_i_glide_ligand_efficiency>  (397) 
-0.121454

>  <r_i_glide_ligand_efficiency_sa>  (397) 
-0.368805

>  <r_i_glide_ligand_efficiency_ln>  (397) 
-0.784981

>  <r_i_glide_gscore>  (397) 
-3.4007

>  <r_i_glide_lipo>  (397) 
-0.417924

>  <r_i_glide_hbond>  (397) 
-0.152

>  <r_i_glide_metal>  (397) 
-0

>  <r_i_glide_rewards>  (397) 
-0.801322

>  <r_i_glide_evdw>  (397) 
-21.5546

>  <r_i_glide_ecoul>  (397) 
-8.11508

>  <r_i_glide_erotb>  (397) 
0.265536

>  <r_i_glide_esite>  (397) 
0

>  <r_i_glide_emodel>  (397) 
-37.094

>  <r_i_glide_energy>  (397) 
-29.6696

>  <r_i_glide_einternal>  (397) 
2.32647

>  <r_i_glide_intrahb_reward>  (397) 
-0

>  <i_i_glide_confnum>  (397) 
3

>  <i_i_glide_posenum>  (397) 
3

>  <r_i_glide_eff_state_penalty>  (397) 
0

>  <ligand_id>  (397) 
109

>  <original_smiles>  (397) 
Oc1ccc2c3c1OC1C4(O)C=CC5(C(O)CC4)C(C2)N(CC2CC2)CCC315

>  <smiles>  (397) 
[H]Oc1c([H])c([H])c2c3c1OC1([H])C4(O[H])C([H])=C([H])C5(C([H])(O[H])C([H])([H])C4([H])[H])C31C([H])([H])C([H])([H])[N+]([H])(C([H])([H])C1([H])C([H])([H])C1([H])[H])C5([H])C2([H])[H]

$$$$
109:0:2
     RDKit          3D

 56 62  0  0  1  0  0  0  0  0999 V2000
    0.6474   -1.1429    8.5714 O   0  0  0  0  0  0  0  0  0  0  0  0
    1.3527   -0.6377    7.5182 C   0  0  0  0  0  0  0  0  0  0  0  0
    2.7429   -0.3727    7.6460 C   0  0  0  0  0  0  0  0  0  0  0  0
    3.4953    0.1914    6.5799 C   0  0  0  0  0  0  0  0  0  0  0  0
    2.8650    0.4544    5.3502 C   0  0  0  0  0  0  0  0  0  0  0  0
    1.5051    0.1262    5.2929 C   0  0  0  0  0  0  0  0  0  0  0  0
    0.6932   -0.3606    6.3036 C   0  0  0  0  0  0  0  0  0  0  0  0
   -0.6410   -0.4621    5.9677 O   0  0  0  0  0  0  0  0  0  0  0  0
   -0.7879    0.1472    4.6379 C   0  0  1  0  0  0  0  0  0  0  0  0
   -1.7653    1.3712    4.2478 C   0  0  2  0  0  0  0  0  0  0  0  0
   -1.1006    1.7865    5.4309 O   0  0  0  0  0  0  0  0  0  0  0  0
   -1.3426    1.4029    2.7338 C   0  0  0  0  0  0  0  0  0  0  0  0
   -0.0847    1.5106    2.2458 C   0  0  0  0  0  0  0  0  0  0  0  0
    1.0323    1.5225    3.2558 C   0  0  2  0  0  0  0  0  0  0  0  0
    0.9378    2.9476    3.9848 C   0  0  1  0  0  0  0  0  0  0  0  0
    1.8717    3.8718    3.4578 O   0  0  0  0  0  0  0  0  0  0  0  0
   -0.4334    3.7329    3.8978 C   0  0  0  0  0  0  0  0  0  0  0  0
   -1.7662    2.9732    4.2994 C   0  0  0  0  0  0  0  0  0  0  0  0
    2.5186    1.2396    2.8099 C   0  0  1  0  0  0  0  0  0  0  0  0
    3.4335    1.1431    4.0900 C   0  0  0  0  0  0  0  0  0  0  0  0
    2.6639    0.0410    1.9251 N   0  0  1  0  0  0  0  0  0  0  0  0
    3.9934   -0.0432    1.2626 C   0  0  0  0  0  0  0  0  0  0  0  0
    4.0245   -1.0519    0.1252 C   0  0  0  0  0  0  0  0  0  0  0  0
    4.6669   -2.4122    0.3215 C   0  0  0  0  0  0  0  0  0  0  0  0
    5.3368   -1.3904   -0.5554 C   0  0  0  0  0  0  0  0  0  0  0  0
    2.3057   -1.2065    2.6288 C   0  0  0  0  0  0  0  0  0  0  0  0
    0.9025   -1.0651    3.2120 C   0  0  0  0  0  0  0  0  0  0  0  0
    0.6820    0.2291    4.0734 C   0  0  1  0  0  0  0  0  0  0  0  0
    1.1834   -1.2462    9.3429 H   0  0  0  0  0  0  0  0  0  0  0  0
    3.2456   -0.5686    8.5768 H   0  0  0  0  0  0  0  0  0  0  0  0
    4.5405    0.4317    6.7142 H   0  0  0  0  0  0  0  0  0  0  0  0
   -1.2859   -0.6749    4.1217 H   0  0  0  0  0  0  0  0  0  0  0  0
   -0.2594    2.1414    5.1992 H   0  0  0  0  0  0  0  0  0  0  0  0
   -2.1738    1.3637    2.0406 H   0  0  0  0  0  0  0  0  0  0  0  0
    0.1253    1.5474    1.1846 H   0  0  0  0  0  0  0  0  0  0  0  0
    1.2191    2.8396    5.0342 H   0  0  0  0  0  0  0  0  0  0  0  0
    1.5774    4.1392    2.5954 H   0  0  0  0  0  0  0  0  0  0  0  0
   -0.3630    4.6304    4.5124 H   0  0  0  0  0  0  0  0  0  0  0  0
   -0.5651    4.1235    2.8848 H   0  0  0  0  0  0  0  0  0  0  0  0
   -2.4916    3.2891    3.5438 H   0  0  0  0  0  0  0  0  0  0  0  0
   -2.2782    3.4814    5.1418 H   0  0  0  0  0  0  0  0  0  0  0  0
    2.8705    2.0673    2.1934 H   0  0  0  0  0  0  0  0  0  0  0  0
    3.6840    2.1574    4.4011 H   0  0  0  0  0  0  0  0  0  0  0  0
    4.3965    0.6869    3.8618 H   0  0  0  0  0  0  0  0  0  0  0  0
    4.2473    0.9287    0.8413 H   0  0  0  0  0  0  0  0  0  0  0  0
    4.7857   -0.2987    1.9689 H   0  0  0  0  0  0  0  0  0  0  0  0
    3.1608   -1.0066   -0.5407 H   0  0  0  0  0  0  0  0  0  0  0  0
    5.1147   -2.6243    1.2925 H   0  0  0  0  0  0  0  0  0  0  0  0
    4.1859   -3.2596   -0.1664 H   0  0  0  0  0  0  0  0  0  0  0  0
    5.3159   -1.5771   -1.6277 H   0  0  0  0  0  0  0  0  0  0  0  0
    6.2436   -0.9212   -0.1788 H   0  0  0  0  0  0  0  0  0  0  0  0
    2.3179   -2.0461    1.9316 H   0  0  0  0  0  0  0  0  0  0  0  0
    3.0256   -1.4540    3.4118 H   0  0  0  0  0  0  0  0  0  0  0  0
    0.2172   -1.0673    2.3703 H   0  0  0  0  0  0  0  0  0  0  0  0
    0.6667   -1.9687    3.7792 H   0  0  0  0  0  0  0  0  0  0  0  0
    1.9910    0.1469    1.1743 H   0  0  0  0  0  0  0  0  0  0  0  0
  1  2  1  0
  1 29  1  0
  2  7  2  0
  2  3  1  0
  3  4  2  0
  3 30  1  0
  4  5  1  0
  4 31  1  0
  5 20  1  0
  5  6  2  0
  6 28  1  0
  6  7  1  0
  7  8  1  0
  8  9  1  0
  9 28  1  0
  9 10  1  0
  9 32  1  6
 10 18  1  0
 10 11  1  6
 10 12  1  0
 11 33  1  0
 12 13  2  0
 12 34  1  0
 14 13  1  6
 13 35  1  0
 14 28  1  0
 14 15  1  0
 14 19  1  0
 15 16  1  0
 15 17  1  0
 15 36  1  1
 16 37  1  0
 17 18  1  0
 17 38  1  0
 17 39  1  0
 18 40  1  0
 18 41  1  0
 19 20  1  0
 19 21  1  0
 19 42  1  6
 20 43  1  0
 20 44  1  0
 21 22  1  0
 21 26  1  0
 21 56  1  6
 22 23  1  0
 22 45  1  0
 22 46  1  0
 23 25  1  0
 23 24  1  0
 23 47  1  0
 24 25  1  0
 24 48  1  0
 24 49  1  0
 25 50  1  0
 25 51  1  0
 26 27  1  0
 26 52  1  0
 26 53  1  0
 28 27  1  6
 27 54  1  0
 27 55  1  0
M  CHG  1  21   1
M  END
>  <i_m_ct_stereo_status>  (398) 
1

>  <s_m_source_file>  (398) 
/var/tmp/pbs.5076255.sched01/tmpm28zzdm2/1449lyhn0we.sdf

>  <i_m_source_file_index>  (398) 
31

>  <i_lp_mmshare_version>  (398) 
48012

>  <i_f3d_flags>  (398) 
1

>  <s_epik_input>  (398) 
W09IXVtDQEhdMVtDSDJdW0NIMl1bQ0BdKFtPSF0pKFtDSF09W0NIXTIpW0NAQEhdM09jNGMoW09IXSlbY0hdW2NIXWMoYzRbQ0BdMzVbQ0BdMTI2KVtDSDJdW0NASF02TihbQ0gyXVtDSDJdNSlbQ0gyXVtDSF03W0NIMl1bQ0gyXTc=

>  <s_epik_cmdline>  (398) 
J2VwaWtfcHl0aG9uJywgJy1waHQnLCAnMi4wJywgJy1waCcsICc3LjAnLCAnLXRuJywgJzgnLCAnLW1hJywgJzIwMCcsICctaW1hZScsICc8aW5maWxlLm1hZT4nLCAnLW9tYWUnLCAnPG91dGZpbGUubWFlPic=

>  <r_lp_tautomer_probability>  (398) 
1

>  <r_epik_Ionization_Penalty>  (398) 
0.0320862

>  <r_epik_Ionization_Penalty_Charging>  (398) 
0.0210701

>  <r_epik_Ionization_Penalty_Neutral>  (398) 
0.0110161

>  <r_epik_State_Penalty>  (398) 
0.0251428

>  <r_epik_Charging_Adjusted_Penalty>  (398) 
0.0462129

>  <i_epik_Tot_Q>  (398) 
1

>  <i_epik_Tot_abs_Q>  (398) 
1

>  <s_lp_Force_Field>  (398) 
OPLS3e

>  <r_lp_Energy>  (398) 
207.73

>  <b_lp_Chiralities_Consistent>  (398) 
1

>  <s_lp_Variant>  (398) 
109:0-1

>  <s_i_glide_gridfile>  (398) 
pfpi4k_grid

>  <i_i_glide_lignum>  (398) 
31

>  <i_i_glide_rotatable_bonds>  (398) 
5

>  <r_i_docking_score>  (398) 
-3.30686

>  <r_i_glide_ligand_efficiency>  (398) 
-0.118102

>  <r_i_glide_ligand_efficiency_sa>  (398) 
-0.358628

>  <r_i_glide_ligand_efficiency_ln>  (398) 
-0.763321

>  <r_i_glide_gscore>  (398) 
-3.30686

>  <r_i_glide_lipo>  (398) 
-0.0518945

>  <r_i_glide_hbond>  (398) 
-0.0277835

>  <r_i_glide_metal>  (398) 
-0

>  <r_i_glide_rewards>  (398) 
-0.801322

>  <r_i_glide_evdw>  (398) 
-25.8818

>  <r_i_glide_ecoul>  (398) 
-9.18623

>  <r_i_glide_erotb>  (398) 
0.265536

>  <r_i_glide_esite>  (398) 
-0.0193748

>  <r_i_glide_emodel>  (398) 
-43.6603

>  <r_i_glide_energy>  (398) 
-35.068

>  <r_i_glide_einternal>  (398) 
0.10975

>  <r_i_glide_intrahb_reward>  (398) 
-0

>  <i_i_glide_confnum>  (398) 
1

>  <i_i_glide_posenum>  (398) 
40

>  <r_i_glide_eff_state_penalty>  (398) 
0

>  <ligand_id>  (398) 
109

>  <original_smiles>  (398) 
Oc1ccc2c3c1OC1C4(O)C=CC5(C(O)CC4)C(C2)N(CC2CC2)CCC315

>  <smiles>  (398) 
[H]Oc1c([H])c([H])c2c3c1OC1([H])C4(O[H])C([H])=C([H])C5(C([H])(O[H])C([H])([H])C4([H])[H])C31C([H])([H])C([H])([H])[N+]([H])(C([H])([H])C1([H])C([H])([H])C1([H])[H])C5([H])C2([H])[H]

$$$$
109:1:0
     RDKit          3D

 55 61  0  0  1  0  0  0  0  0999 V2000
   -2.1766   -7.6134    3.6013 O   0  0  0  0  0  0  0  0  0  0  0  0
   -0.9403   -8.1882    3.6238 C   0  0  0  0  0  0  0  0  0  0  0  0
   -0.6829   -9.3578    2.8639 C   0  0  0  0  0  0  0  0  0  0  0  0
    0.5863   -9.9935    2.8835 C   0  0  0  0  0  0  0  0  0  0  0  0
    1.6420   -9.4278    3.6286 C   0  0  0  0  0  0  0  0  0  0  0  0
    1.3086   -8.2690    4.3340 C   0  0  0  0  0  0  0  0  0  0  0  0
    0.0819   -7.6342    4.4219 C   0  0  0  0  0  0  0  0  0  0  0  0
    0.0433   -6.5784    5.3053 O   0  0  0  0  0  0  0  0  0  0  0  0
    1.3310   -6.5827    6.0196 C   0  0  1  0  0  0  0  0  0  0  0  0
    1.5327   -6.6914    7.6210 C   0  0  2  0  0  0  0  0  0  0  0  0
    0.6033   -7.7151    7.2960 O   0  0  0  0  0  0  0  0  0  0  0  0
    3.1017   -6.6289    7.5621 C   0  0  0  0  0  0  0  0  0  0  0  0
    3.9111   -7.4426    6.8389 C   0  0  0  0  0  0  0  0  0  0  0  0
    3.2368   -8.4377    5.9286 C   0  0  2  0  0  0  0  0  0  0  0  0
    2.6032   -9.5493    6.8899 C   0  0  1  0  0  0  0  0  0  0  0  0
    3.4108  -10.7030    6.9865 O   0  0  0  0  0  0  0  0  0  0  0  0
    2.3997   -9.1692    8.4086 C   0  0  0  0  0  0  0  0  0  0  0  0
    1.6081   -7.8353    8.7451 C   0  0  0  0  0  0  0  0  0  0  0  0
    4.0499   -9.1328    4.7744 C   0  0  1  0  0  0  0  0  0  0  0  0
    3.0739   -9.9567    3.8417 C   0  0  0  0  0  0  0  0  0  0  0  0
    4.8700   -8.1692    4.0152 N   0  0  0  0  0  0  0  0  0  0  0  0
    5.8505   -8.8365    3.1522 C   0  0  0  0  0  0  0  0  0  0  0  0
    6.8598   -7.8666    2.5665 C   0  0  0  0  0  0  0  0  0  0  0  0
    6.5559   -7.1087    1.2904 C   0  0  0  0  0  0  0  0  0  0  0  0
    7.5772   -8.2076    1.2784 C   0  0  0  0  0  0  0  0  0  0  0  0
    4.0345   -7.2414    3.2590 C   0  0  0  0  0  0  0  0  0  0  0  0
    3.0704   -6.5324    4.2007 C   0  0  0  0  0  0  0  0  0  0  0  0
    2.2709   -7.4929    5.1402 C   0  0  1  0  0  0  0  0  0  0  0  0
   -2.8116   -8.2098    3.2390 H   0  0  0  0  0  0  0  0  0  0  0  0
   -1.4634   -9.7954    2.2691 H   0  0  0  0  0  0  0  0  0  0  0  0
    0.7412  -10.9003    2.3247 H   0  0  0  0  0  0  0  0  0  0  0  0
    1.6306   -5.5486    5.8475 H   0  0  0  0  0  0  0  0  0  0  0  0
    1.0830   -8.4927    7.0593 H   0  0  0  0  0  0  0  0  0  0  0  0
    3.5402   -5.8650    8.1905 H   0  0  0  0  0  0  0  0  0  0  0  0
    4.9874   -7.3549    6.8367 H   0  0  0  0  0  0  0  0  0  0  0  0
    1.6637   -9.9204    6.4742 H   0  0  0  0  0  0  0  0  0  0  0  0
    2.8371  -11.4158    7.2722 H   0  0  0  0  0  0  0  0  0  0  0  0
    1.8981   -9.9949    8.9166 H   0  0  0  0  0  0  0  0  0  0  0  0
    3.3769   -9.1143    8.9000 H   0  0  0  0  0  0  0  0  0  0  0  0
    2.1678   -7.3937    9.5737 H   0  0  0  0  0  0  0  0  0  0  0  0
    0.7056   -8.0567    9.3510 H   0  0  0  0  0  0  0  0  0  0  0  0
    4.7733   -9.8158    5.2139 H   0  0  0  0  0  0  0  0  0  0  0  0
    2.9462  -10.9359    4.2915 H   0  0  0  0  0  0  0  0  0  0  0  0
    3.5074  -10.1579    2.8621 H   0  0  0  0  0  0  0  0  0  0  0  0
    6.4051   -9.5714    3.7350 H   0  0  0  0  0  0  0  0  0  0  0  0
    5.3724   -9.3799    2.3398 H   0  0  0  0  0  0  0  0  0  0  0  0
    7.4526   -7.3448    3.3175 H   0  0  0  0  0  0  0  0  0  0  0  0
    5.5901   -7.3025    0.8242 H   0  0  0  0  0  0  0  0  0  0  0  0
    6.9046   -6.0797    1.2376 H   0  0  0  0  0  0  0  0  0  0  0  0
    8.6082   -7.8922    1.1671 H   0  0  0  0  0  0  0  0  0  0  0  0
    7.3113   -9.1332    0.7734 H   0  0  0  0  0  0  0  0  0  0  0  0
    4.6454   -6.4659    2.8041 H   0  0  0  0  0  0  0  0  0  0  0  0
    3.5025   -7.7409    2.4500 H   0  0  0  0  0  0  0  0  0  0  0  0
    3.6629   -5.8275    4.7858 H   0  0  0  0  0  0  0  0  0  0  0  0
    2.3999   -5.9072    3.6077 H   0  0  0  0  0  0  0  0  0  0  0  0
  1  2  1  0
  1 29  1  0
  2  7  2  0
  2  3  1  0
  3  4  2  0
  3 30  1  0
  4  5  1  0
  4 31  1  0
  5 20  1  0
  5  6  2  0
  6 28  1  0
  6  7  1  0
  7  8  1  0
  8  9  1  0
  9 28  1  0
  9 10  1  0
  9 32  1  6
 10 18  1  0
 10 11  1  1
 10 12  1  0
 11 33  1  0
 12 13  2  0
 12 34  1  0
 14 13  1  1
 13 35  1  0
 14 28  1  0
 14 15  1  0
 14 19  1  0
 15 16  1  0
 15 17  1  0
 15 36  1  6
 16 37  1  0
 17 18  1  0
 17 38  1  0
 17 39  1  0
 18 40  1  0
 18 41  1  0
 19 20  1  0
 19 21  1  0
 19 42  1  1
 20 43  1  0
 20 44  1  0
 21 22  1  0
 21 26  1  0
 22 23  1  0
 22 45  1  0
 22 46  1  0
 23 25  1  0
 23 24  1  0
 23 47  1  0
 24 25  1  0
 24 48  1  0
 24 49  1  0
 25 50  1  0
 25 51  1  0
 26 27  1  0
 26 52  1  0
 26 53  1  0
 28 27  1  6
 27 54  1  0
 27 55  1  0
M  END
>  <i_m_ct_stereo_status>  (399) 
1

>  <s_m_source_file>  (399) 
/var/tmp/pbs.5076255.sched01/tmpm28zzdm2/1449lyhn0we.sdf

>  <i_m_source_file_index>  (399) 
32

>  <i_lp_mmshare_version>  (399) 
48012

>  <i_f3d_flags>  (399) 
1

>  <s_epik_input>  (399) 
W09IXVtDQEhdMVtDSDJdW0NIMl1bQ0BdKFtPSF0pKFtDSF09W0NIXTIpW0NAQEhdM09jNGMoW09IXSlbY0hdW2NIXWMoYzRbQ0BdMzVbQ0BdMTI2KVtDSDJdW0NASF02TihbQ0gyXVtDSDJdNSlbQ0gyXVtDSF03W0NIMl1bQ0gyXTc=

>  <s_epik_cmdline>  (399) 
J2VwaWtfcHl0aG9uJywgJy1waHQnLCAnMi4wJywgJy1waCcsICc3LjAnLCAnLXRuJywgJzgnLCAnLW1hJywgJzIwMCcsICctaW1hZScsICc8aW5maWxlLm1hZT4nLCAnLW9tYWUnLCAnPG91dGZpbGUubWFlPic=

>  <r_lp_tautomer_probability>  (399) 
1

>  <r_epik_Ionization_Penalty>  (399) 
1.9889

>  <r_epik_Ionization_Penalty_Charging>  (399) 
0

>  <r_epik_Ionization_Penalty_Neutral>  (399) 
1.9889

>  <r_epik_State_Penalty>  (399) 
2.12328

>  <r_epik_Charging_Adjusted_Penalty>  (399) 
2.12328

>  <i_epik_Tot_Q>  (399) 
0

>  <i_epik_Tot_abs_Q>  (399) 
0

>  <s_lp_Force_Field>  (399) 
OPLS3e

>  <r_lp_Energy>  (399) 
208.889

>  <b_lp_Chiralities_Consistent>  (399) 
1

>  <s_lp_Variant>  (399) 
109:0-2

>  <s_i_glide_gridfile>  (399) 
pfpi4k_grid

>  <i_i_glide_lignum>  (399) 
32

>  <i_i_glide_rotatable_bonds>  (399) 
5

>  <r_i_docking_score>  (399) 
-2.70851

>  <r_i_glide_ligand_efficiency>  (399) 
-0.0967325

>  <r_i_glide_ligand_efficiency_sa>  (399) 
-0.293737

>  <r_i_glide_ligand_efficiency_ln>  (399) 
-0.625204

>  <r_i_glide_gscore>  (399) 
-2.70851

>  <r_i_glide_lipo>  (399) 
-0.190463

>  <r_i_glide_hbond>  (399) 
-0.16

>  <r_i_glide_metal>  (399) 
-0

>  <r_i_glide_rewards>  (399) 
-0.808195

>  <r_i_glide_evdw>  (399) 
-19.1897

>  <r_i_glide_ecoul>  (399) 
-5.71441

>  <r_i_glide_erotb>  (399) 
0.266795

>  <r_i_glide_esite>  (399) 
0

>  <r_i_glide_emodel>  (399) 
-28.8806

>  <r_i_glide_energy>  (399) 
-24.9041

>  <r_i_glide_einternal>  (399) 
1.44294

>  <r_i_glide_intrahb_reward>  (399) 
-0

>  <i_i_glide_confnum>  (399) 
1

>  <i_i_glide_posenum>  (399) 
8

>  <r_i_glide_eff_state_penalty>  (399) 
0

>  <ligand_id>  (399) 
109

>  <original_smiles>  (399) 
Oc1ccc2c3c1OC1C4(O)C=CC5(C(O)CC4)C(C2)N(CC2CC2)CCC315

>  <smiles>  (399) 
[H]Oc1c([H])c([H])c2c3c1OC1([H])C4(O[H])C([H])=C([H])C5(C([H])(O[H])C([H])([H])C4([H])[H])C([H])(N(C([H])([H])C4([H])C([H])([H])C4([H])[H])C([H])([H])C([H])([H])C315)C2([H])[H]

$$$$
109:1:1
     RDKit          3D

 55 61  0  0  1  0  0  0  0  0999 V2000
    5.6767   -0.6599   -0.3645 O   0  0  0  0  0  0  0  0  0  0  0  0
    4.9711   -1.4496    0.4963 C   0  0  0  0  0  0  0  0  0  0  0  0
    4.0550   -0.8704    1.4157 C   0  0  0  0  0  0  0  0  0  0  0  0
    3.3374   -1.6614    2.3524 C   0  0  0  0  0  0  0  0  0  0  0  0
    3.4856   -3.0676    2.3417 C   0  0  0  0  0  0  0  0  0  0  0  0
    4.3838   -3.5576    1.3882 C   0  0  0  0  0  0  0  0  0  0  0  0
    5.1681   -2.8493    0.4960 C   0  0  0  0  0  0  0  0  0  0  0  0
    6.0482   -3.6230   -0.2297 O   0  0  0  0  0  0  0  0  0  0  0  0
    5.9757   -4.9832    0.3283 C   0  0  1  0  0  0  0  0  0  0  0  0
    7.2122   -5.8332    0.9356 C   0  0  2  0  0  0  0  0  0  0  0  0
    7.3150   -4.5487    1.5223 O   0  0  0  0  0  0  0  0  0  0  0  0
    6.3515   -7.0922    1.2999 C   0  0  0  0  0  0  0  0  0  0  0  0
    5.2269   -7.1081    2.0588 C   0  0  0  0  0  0  0  0  0  0  0  0
    4.7043   -5.7728    2.5272 C   0  0  2  0  0  0  0  0  0  0  0  0
    5.7252   -5.2757    3.6582 C   0  0  1  0  0  0  0  0  0  0  0  0
    5.2435   -5.5127    4.9685 O   0  0  0  0  0  0  0  0  0  0  0  0
    7.1606   -5.9397    3.6771 C   0  0  0  0  0  0  0  0  0  0  0  0
    8.0032   -5.9566    2.3290 C   0  0  0  0  0  0  0  0  0  0  0  0
    3.2275   -5.6420    3.0503 C   0  0  1  0  0  0  0  0  0  0  0  0
    2.8628   -4.1194    3.2763 C   0  0  0  0  0  0  0  0  0  0  0  0
    2.2567   -6.3264    2.1728 N   0  0  0  0  0  0  0  0  0  0  0  0
    0.9500   -6.4849    2.8174 C   0  0  0  0  0  0  0  0  0  0  0  0
    0.0843   -7.5339    2.1365 C   0  0  0  0  0  0  0  0  0  0  0  0
   -1.2371   -7.9331    2.7533 C   0  0  0  0  0  0  0  0  0  0  0  0
   -0.0812   -8.9000    2.7609 C   0  0  0  0  0  0  0  0  0  0  0  0
    2.1569   -5.6683    0.8742 C   0  0  0  0  0  0  0  0  0  0  0  0
    3.5379   -5.5887    0.2362 C   0  0  0  0  0  0  0  0  0  0  0  0
    4.6444   -4.9976    1.1705 C   0  0  1  0  0  0  0  0  0  0  0  0
    5.4129    0.2553   -0.3328 H   0  0  0  0  0  0  0  0  0  0  0  0
    3.9152    0.1959    1.4266 H   0  0  0  0  0  0  0  0  0  0  0  0
    2.6821   -1.1922    3.0717 H   0  0  0  0  0  0  0  0  0  0  0  0
    5.7744   -5.5347   -0.5885 H   0  0  0  0  0  0  0  0  0  0  0  0
    6.6620   -4.4712    2.1953 H   0  0  0  0  0  0  0  0  0  0  0  0
    6.7431   -8.0199    0.9046 H   0  0  0  0  0  0  0  0  0  0  0  0
    4.6737   -8.0122    2.2695 H   0  0  0  0  0  0  0  0  0  0  0  0
    5.8238   -4.1910    3.6058 H   0  0  0  0  0  0  0  0  0  0  0  0
    5.1814   -6.4434    5.1057 H   0  0  0  0  0  0  0  0  0  0  0  0
    7.7659   -5.4518    4.4400 H   0  0  0  0  0  0  0  0  0  0  0  0
    7.0820   -6.9713    4.0332 H   0  0  0  0  0  0  0  0  0  0  0  0
    8.4684   -6.9465    2.3127 H   0  0  0  0  0  0  0  0  0  0  0  0
    8.9607   -5.4085    2.4578 H   0  0  0  0  0  0  0  0  0  0  0  0
    3.1471   -6.1642    4.0009 H   0  0  0  0  0  0  0  0  0  0  0  0
    3.2065   -3.8488    4.2703 H   0  0  0  0  0  0  0  0  0  0  0  0
    1.7853   -3.9589    3.3011 H   0  0  0  0  0  0  0  0  0  0  0  0
    1.0912   -6.7940    3.8540 H   0  0  0  0  0  0  0  0  0  0  0  0
    0.4079   -5.5412    2.8547 H   0  0  0  0  0  0  0  0  0  0  0  0
    0.0676   -7.5025    1.0481 H   0  0  0  0  0  0  0  0  0  0  0  0
   -1.5183   -7.4683    3.6971 H   0  0  0  0  0  0  0  0  0  0  0  0
   -2.0590   -8.1629    2.0802 H   0  0  0  0  0  0  0  0  0  0  0  0
   -0.1231   -9.7463    2.0810 H   0  0  0  0  0  0  0  0  0  0  0  0
    0.4313   -9.0831    3.7052 H   0  0  0  0  0  0  0  0  0  0  0  0
    1.5098   -6.2269    0.2006 H   0  0  0  0  0  0  0  0  0  0  0  0
    1.7429   -4.6679    0.9658 H   0  0  0  0  0  0  0  0  0  0  0  0
    3.8086   -6.5961   -0.0828 H   0  0  0  0  0  0  0  0  0  0  0  0
    3.4591   -5.0135   -0.6884 H   0  0  0  0  0  0  0  0  0  0  0  0
  1  2  1  0
  1 29  1  0
  2  7  2  0
  2  3  1  0
  3  4  2  0
  3 30  1  0
  4  5  1  0
  4 31  1  0
  5 20  1  0
  5  6  2  0
  6 28  1  0
  6  7  1  0
  7  8  1  0
  8  9  1  0
  9 28  1  0
  9 10  1  0
  9 32  1  6
 10 18  1  0
 10 11  1  6
 10 12  1  0
 11 33  1  0
 12 13  2  0
 12 34  1  0
 14 13  1  6
 13 35  1  0
 14 28  1  0
 14 15  1  0
 14 19  1  0
 15 16  1  0
 15 17  1  0
 15 36  1  1
 16 37  1  0
 17 18  1  0
 17 38  1  0
 17 39  1  0
 18 40  1  0
 18 41  1  0
 19 20  1  0
 19 21  1  0
 19 42  1  1
 20 43  1  0
 20 44  1  0
 21 22  1  0
 21 26  1  0
 22 23  1  0
 22 45  1  0
 22 46  1  0
 23 25  1  0
 23 24  1  0
 23 47  1  0
 24 25  1  0
 24 48  1  0
 24 49  1  0
 25 50  1  0
 25 51  1  0
 26 27  1  0
 26 52  1  0
 26 53  1  0
 28 27  1  6
 27 54  1  0
 27 55  1  0
M  END
>  <i_m_ct_stereo_status>  (400) 
1

>  <s_m_source_file>  (400) 
/var/tmp/pbs.5076255.sched01/tmpm28zzdm2/1449lyhn0we.sdf

>  <i_m_source_file_index>  (400) 
32

>  <i_lp_mmshare_version>  (400) 
48012

>  <i_f3d_flags>  (400) 
1

>  <s_epik_input>  (400) 
W09IXVtDQEhdMVtDSDJdW0NIMl1bQ0BdKFtPSF0pKFtDSF09W0NIXTIpW0NAQEhdM09jNGMoW09IXSlbY0hdW2NIXWMoYzRbQ0BdMzVbQ0BdMTI2KVtDSDJdW0NASF02TihbQ0gyXVtDSDJdNSlbQ0gyXVtDSF03W0NIMl1bQ0gyXTc=

>  <s_epik_cmdline>  (400) 
J2VwaWtfcHl0aG9uJywgJy1waHQnLCAnMi4wJywgJy1waCcsICc3LjAnLCAnLXRuJywgJzgnLCAnLW1hJywgJzIwMCcsICctaW1hZScsICc8aW5maWxlLm1hZT4nLCAnLW9tYWUnLCAnPG91dGZpbGUubWFlPic=

>  <r_lp_tautomer_probability>  (400) 
1

>  <r_epik_Ionization_Penalty>  (400) 
1.9889

>  <r_epik_Ionization_Penalty_Charging>  (400) 
0

>  <r_epik_Ionization_Penalty_Neutral>  (400) 
1.9889

>  <r_epik_State_Penalty>  (400) 
2.12328

>  <r_epik_Charging_Adjusted_Penalty>  (400) 
2.12328

>  <i_epik_Tot_Q>  (400) 
0

>  <i_epik_Tot_abs_Q>  (400) 
0

>  <s_lp_Force_Field>  (400) 
OPLS3e

>  <r_lp_Energy>  (400) 
208.889

>  <b_lp_Chiralities_Consistent>  (400) 
1

>  <s_lp_Variant>  (400) 
109:0-2

>  <s_i_glide_gridfile>  (400) 
pfpi4k_grid

>  <i_i_glide_lignum>  (400) 
32

>  <i_i_glide_rotatable_bonds>  (400) 
5

>  <r_i_docking_score>  (400) 
-2.66358

>  <r_i_glide_ligand_efficiency>  (400) 
-0.0951277

>  <r_i_glide_ligand_efficiency_sa>  (400) 
-0.288864

>  <r_i_glide_ligand_efficiency_ln>  (400) 
-0.614832

>  <r_i_glide_gscore>  (400) 
-2.66358

>  <r_i_glide_lipo>  (400) 
-0.480907

>  <r_i_glide_hbond>  (400) 
0

>  <r_i_glide_metal>  (400) 
-0

>  <r_i_glide_rewards>  (400) 
-0.808195

>  <r_i_glide_evdw>  (400) 
-22.2306

>  <r_i_glide_ecoul>  (400) 
-3.53158

>  <r_i_glide_erotb>  (400) 
0.266795

>  <r_i_glide_esite>  (400) 
0

>  <r_i_glide_emodel>  (400) 
-30.5469

>  <r_i_glide_energy>  (400) 
-25.7622

>  <r_i_glide_einternal>  (400) 
0.28003

>  <r_i_glide_intrahb_reward>  (400) 
-0

>  <i_i_glide_confnum>  (400) 
1

>  <i_i_glide_posenum>  (400) 
19

>  <r_i_glide_eff_state_penalty>  (400) 
0

>  <ligand_id>  (400) 
109

>  <original_smiles>  (400) 
Oc1ccc2c3c1OC1C4(O)C=CC5(C(O)CC4)C(C2)N(CC2CC2)CCC315

>  <smiles>  (400) 
[H]Oc1c([H])c([H])c2c3c1OC1([H])C4(O[H])C([H])=C([H])C5(C([H])(O[H])C([H])([H])C4([H])[H])C([H])(N(C([H])([H])C4([H])C([H])([H])C4([H])[H])C([H])([H])C([H])([H])C315)C2([H])[H]

$$$$
109:1:2
     RDKit          3D

 55 61  0  0  1  0  0  0  0  0999 V2000
    5.7133   -0.9937   -0.3494 O   0  0  0  0  0  0  0  0  0  0  0  0
    5.0846   -1.7763    0.5771 C   0  0  0  0  0  0  0  0  0  0  0  0
    4.1822   -1.1926    1.5052 C   0  0  0  0  0  0  0  0  0  0  0  0
    3.5393   -1.9727    2.5062 C   0  0  0  0  0  0  0  0  0  0  0  0
    3.7497   -3.3640    2.5563 C   0  0  0  0  0  0  0  0  0  0  0  0
    4.6274   -3.8647    1.5900 C   0  0  0  0  0  0  0  0  0  0  0  0
    5.3440   -3.1656    0.6302 C   0  0  0  0  0  0  0  0  0  0  0  0
    6.2280   -3.9357   -0.0915 O   0  0  0  0  0  0  0  0  0  0  0  0
    6.2408   -5.2635    0.5431 C   0  0  1  0  0  0  0  0  0  0  0  0
    7.5413   -6.0281    1.1313 C   0  0  2  0  0  0  0  0  0  0  0  0
    7.6093   -4.7115    1.6542 O   0  0  0  0  0  0  0  0  0  0  0  0
    6.7539   -7.3065    1.5889 C   0  0  0  0  0  0  0  0  0  0  0  0
    5.6611   -7.3372    2.3886 C   0  0  0  0  0  0  0  0  0  0  0  0
    5.0944   -6.0055    2.8181 C   0  0  2  0  0  0  0  0  0  0  0  0
    6.1366   -5.4137    3.8813 C   0  0  1  0  0  0  0  0  0  0  0  0
    5.7179   -5.6034    5.2205 O   0  0  0  0  0  0  0  0  0  0  0  0
    7.6022   -6.0078    3.8732 C   0  0  0  0  0  0  0  0  0  0  0  0
    8.3918   -6.0532    2.4947 C   0  0  0  0  0  0  0  0  0  0  0  0
    3.6360   -5.9105    3.3978 C   0  0  1  0  0  0  0  0  0  0  0  0
    3.2143   -4.3975    3.5676 C   0  0  0  0  0  0  0  0  0  0  0  0
    2.6621   -6.6781    2.5986 N   0  0  0  0  0  0  0  0  0  0  0  0
    1.3905   -6.8641    3.3043 C   0  0  0  0  0  0  0  0  0  0  0  0
    0.4769   -7.8430    2.5954 C   0  0  0  0  0  0  0  0  0  0  0  0
   -0.6202   -7.3325    1.6886 C   0  0  0  0  0  0  0  0  0  0  0  0
   -0.9744   -7.9591    3.0128 C   0  0  0  0  0  0  0  0  0  0  0  0
    2.4700   -6.0942    1.2745 C   0  0  0  0  0  0  0  0  0  0  0  0
    3.8219   -5.9839    0.5726 C   0  0  0  0  0  0  0  0  0  0  0  0
    4.9422   -5.2990    1.4307 C   0  0  1  0  0  0  0  0  0  0  0  0
    5.4097   -0.0977   -0.3234 H   0  0  0  0  0  0  0  0  0  0  0  0
    3.9924   -0.1334    1.4752 H   0  0  0  0  0  0  0  0  0  0  0  0
    2.8933   -1.4983    3.2282 H   0  0  0  0  0  0  0  0  0  0  0  0
    6.0257   -5.8807   -0.3216 H   0  0  0  0  0  0  0  0  0  0  0  0
    7.0502   -4.6588    2.4089 H   0  0  0  0  0  0  0  0  0  0  0  0
    7.1677   -8.2362    1.2197 H   0  0  0  0  0  0  0  0  0  0  0  0
    5.1571   -8.2533    2.6627 H   0  0  0  0  0  0  0  0  0  0  0  0
    6.1875   -4.3314    3.7719 H   0  0  0  0  0  0  0  0  0  0  0  0
    5.6866   -6.5287    5.4025 H   0  0  0  0  0  0  0  0  0  0  0  0
    8.2141   -5.4535    4.5861 H   0  0  0  0  0  0  0  0  0  0  0  0
    7.5853   -7.0230    4.2801 H   0  0  0  0  0  0  0  0  0  0  0  0
    8.9001   -7.0227    2.5048 H   0  0  0  0  0  0  0  0  0  0  0  0
    9.3300   -5.4617    2.5578 H   0  0  0  0  0  0  0  0  0  0  0  0
    3.6128   -6.3908    4.3740 H   0  0  0  0  0  0  0  0  0  0  0  0
    3.5781   -4.0616    4.5354 H   0  0  0  0  0  0  0  0  0  0  0  0
    2.1344   -4.2744    3.6241 H   0  0  0  0  0  0  0  0  0  0  0  0
    1.5857   -7.2581    4.3017 H   0  0  0  0  0  0  0  0  0  0  0  0
    0.8589   -5.9230    3.4350 H   0  0  0  0  0  0  0  0  0  0  0  0
    0.9604   -8.7770    2.3077 H   0  0  0  0  0  0  0  0  0  0  0  0
   -0.7051   -6.2570    1.5806 H   0  0  0  0  0  0  0  0  0  0  0  0
   -0.8368   -7.9007    0.7895 H   0  0  0  0  0  0  0  0  0  0  0  0
   -1.4271   -8.9491    2.9920 H   0  0  0  0  0  0  0  0  0  0  0  0
   -1.3234   -7.3045    3.8104 H   0  0  0  0  0  0  0  0  0  0  0  0
    1.8227   -6.7340    0.6762 H   0  0  0  0  0  0  0  0  0  0  0  0
    1.9820   -5.1221    1.3272 H   0  0  0  0  0  0  0  0  0  0  0  0
    4.1192   -6.9947    0.2847 H   0  0  0  0  0  0  0  0  0  0  0  0
    3.6815   -5.4558   -0.3710 H   0  0  0  0  0  0  0  0  0  0  0  0
  1  2  1  0
  1 29  1  0
  2  7  2  0
  2  3  1  0
  3  4  2  0
  3 30  1  0
  4  5  1  0
  4 31  1  0
  5 20  1  0
  5  6  2  0
  6 28  1  0
  6  7  1  0
  7  8  1  0
  8  9  1  0
  9 28  1  0
  9 10  1  0
  9 32  1  6
 10 18  1  0
 10 11  1  6
 10 12  1  0
 11 33  1  0
 12 13  2  0
 12 34  1  0
 14 13  1  6
 13 35  1  0
 14 28  1  0
 14 15  1  0
 14 19  1  0
 15 16  1  0
 15 17  1  0
 15 36  1  6
 16 37  1  0
 17 18  1  0
 17 38  1  0
 17 39  1  0
 18 40  1  0
 18 41  1  0
 19 20  1  0
 19 21  1  0
 19 42  1  1
 20 43  1  0
 20 44  1  0
 21 22  1  0
 21 26  1  0
 22 23  1  0
 22 45  1  0
 22 46  1  0
 23 25  1  0
 23 24  1  0
 23 47  1  0
 24 25  1  0
 24 48  1  0
 24 49  1  0
 25 50  1  0
 25 51  1  0
 26 27  1  0
 26 52  1  0
 26 53  1  0
 28 27  1  6
 27 54  1  0
 27 55  1  0
M  END
>  <i_m_ct_stereo_status>  (401) 
1

>  <s_m_source_file>  (401) 
/var/tmp/pbs.5076255.sched01/tmpm28zzdm2/1449lyhn0we.sdf

>  <i_m_source_file_index>  (401) 
32

>  <i_lp_mmshare_version>  (401) 
48012

>  <i_f3d_flags>  (401) 
1

>  <s_epik_input>  (401) 
W09IXVtDQEhdMVtDSDJdW0NIMl1bQ0BdKFtPSF0pKFtDSF09W0NIXTIpW0NAQEhdM09jNGMoW09IXSlbY0hdW2NIXWMoYzRbQ0BdMzVbQ0BdMTI2KVtDSDJdW0NASF02TihbQ0gyXVtDSDJdNSlbQ0gyXVtDSF03W0NIMl1bQ0gyXTc=

>  <s_epik_cmdline>  (401) 
J2VwaWtfcHl0aG9uJywgJy1waHQnLCAnMi4wJywgJy1waCcsICc3LjAnLCAnLXRuJywgJzgnLCAnLW1hJywgJzIwMCcsICctaW1hZScsICc8aW5maWxlLm1hZT4nLCAnLW9tYWUnLCAnPG91dGZpbGUubWFlPic=

>  <r_lp_tautomer_probability>  (401) 
1

>  <r_epik_Ionization_Penalty>  (401) 
1.9889

>  <r_epik_Ionization_Penalty_Charging>  (401) 
0

>  <r_epik_Ionization_Penalty_Neutral>  (401) 
1.9889

>  <r_epik_State_Penalty>  (401) 
2.12328

>  <r_epik_Charging_Adjusted_Penalty>  (401) 
2.12328

>  <i_epik_Tot_Q>  (401) 
0

>  <i_epik_Tot_abs_Q>  (401) 
0

>  <s_lp_Force_Field>  (401) 
OPLS3e

>  <r_lp_Energy>  (401) 
208.889

>  <b_lp_Chiralities_Consistent>  (401) 
1

>  <s_lp_Variant>  (401) 
109:0-2

>  <s_i_glide_gridfile>  (401) 
pfpi4k_grid

>  <i_i_glide_lignum>  (401) 
32

>  <i_i_glide_rotatable_bonds>  (401) 
5

>  <r_i_docking_score>  (401) 
-2.42054

>  <r_i_glide_ligand_efficiency>  (401) 
-0.086448

>  <r_i_glide_ligand_efficiency_sa>  (401) 
-0.262507

>  <r_i_glide_ligand_efficiency_ln>  (401) 
-0.558733

>  <r_i_glide_gscore>  (401) 
-2.42054

>  <r_i_glide_lipo>  (401) 
-0.48253

>  <r_i_glide_hbond>  (401) 
0

>  <r_i_glide_metal>  (401) 
-0

>  <r_i_glide_rewards>  (401) 
-0.808195

>  <r_i_glide_evdw>  (401) 
-21.7744

>  <r_i_glide_ecoul>  (401) 
-2.05263

>  <r_i_glide_erotb>  (401) 
0.266795

>  <r_i_glide_esite>  (401) 
0

>  <r_i_glide_emodel>  (401) 
-28.233

>  <r_i_glide_energy>  (401) 
-23.827

>  <r_i_glide_einternal>  (401) 
0.161973

>  <r_i_glide_intrahb_reward>  (401) 
-0

>  <i_i_glide_confnum>  (401) 
1

>  <i_i_glide_posenum>  (401) 
1

>  <r_i_glide_eff_state_penalty>  (401) 
0

>  <ligand_id>  (401) 
109

>  <original_smiles>  (401) 
Oc1ccc2c3c1OC1C4(O)C=CC5(C(O)CC4)C(C2)N(CC2CC2)CCC315

>  <smiles>  (401) 
[H]Oc1c([H])c([H])c2c3c1OC1([H])C4(O[H])C([H])=C([H])C5(C([H])(O[H])C([H])([H])C4([H])[H])C([H])(N(C([H])([H])C4([H])C([H])([H])C4([H])[H])C([H])([H])C([H])([H])C315)C2([H])[H]

$$$$
109:2:0
     RDKit          3D

 55 61  0  0  1  0  0  0  0  0999 V2000
    0.1461   -1.4933    8.2177 O   0  0  0  0  0  0  0  0  0  0  0  0
    0.9470   -0.9405    7.2622 C   0  0  0  0  0  0  0  0  0  0  0  0
    2.3363   -0.7585    7.5136 C   0  0  0  0  0  0  0  0  0  0  0  0
    3.2031   -0.1573    6.5646 C   0  0  0  0  0  0  0  0  0  0  0  0
    2.6840    0.2337    5.3144 C   0  0  0  0  0  0  0  0  0  0  0  0
    1.3205   -0.0121    5.1286 C   0  0  0  0  0  0  0  0  0  0  0  0
    0.4040   -0.5255    6.0256 C   0  0  0  0  0  0  0  0  0  0  0  0
   -0.9023   -0.5185    5.5829 O   0  0  0  0  0  0  0  0  0  0  0  0
   -0.9040    0.1985    4.2994 C   0  0  1  0  0  0  0  0  0  0  0  0
   -1.7793    1.5025    3.9449 C   0  0  2  0  0  0  0  0  0  0  0  0
   -1.1923    1.7950    5.1982 O   0  0  0  0  0  0  0  0  0  0  0  0
   -1.2405    1.6141    2.4762 C   0  0  0  0  0  0  0  0  0  0  0  0
    0.0538    1.6796    2.0885 C   0  0  0  0  0  0  0  0  0  0  0  0
    1.0895    1.5545    3.1749 C   0  0  2  0  0  0  0  0  0  0  0  0
    1.0111    2.9288    3.9984 C   0  0  1  0  0  0  0  0  0  0  0  0
    2.0337    3.8309    3.6166 O   0  0  0  0  0  0  0  0  0  0  0  0
   -0.3015    3.8000    3.8698 C   0  0  0  0  0  0  0  0  0  0  0  0
   -1.7021    3.0937    4.1113 C   0  0  0  0  0  0  0  0  0  0  0  0
    2.5906    1.2171    2.8270 C   0  0  1  0  0  0  0  0  0  0  0  0
    3.3930    0.9822    4.1668 C   0  0  0  0  0  0  0  0  0  0  0  0
    2.7479    0.0687    1.8737 N   0  0  1  0  0  0  0  0  0  0  0  0
    4.1229   -0.0490    1.3049 C   0  0  0  0  0  0  0  0  0  0  0  0
    4.2209   -1.0563    0.1771 C   0  0  0  0  0  0  0  0  0  0  0  0
    4.7845   -2.4387    0.4345 C   0  0  0  0  0  0  0  0  0  0  0  0
    5.5762   -1.4463   -0.3753 C   0  0  0  0  0  0  0  0  0  0  0  0
    2.2641   -1.1990    2.4559 C   0  0  0  0  0  0  0  0  0  0  0  0
    0.8310   -1.0087    2.9220 C   0  0  0  0  0  0  0  0  0  0  0  0
    0.6088    0.2280    3.8584 C   0  0  1  0  0  0  0  0  0  0  0  0
    2.7419   -1.0564    8.4641 H   0  0  0  0  0  0  0  0  0  0  0  0
    4.2464    0.0146    6.7942 H   0  0  0  0  0  0  0  0  0  0  0  0
   -1.4067   -0.5530    3.6927 H   0  0  0  0  0  0  0  0  0  0  0  0
   -0.3035    2.0858    5.0662 H   0  0  0  0  0  0  0  0  0  0  0  0
   -2.0174    1.6592    1.7211 H   0  0  0  0  0  0  0  0  0  0  0  0
    0.3406    1.7701    1.0464 H   0  0  0  0  0  0  0  0  0  0  0  0
    1.2013    2.7321    5.0540 H   0  0  0  0  0  0  0  0  0  0  0  0
    1.8537    4.1417    2.7388 H   0  0  0  0  0  0  0  0  0  0  0  0
   -0.2353    4.6449    4.5537 H   0  0  0  0  0  0  0  0  0  0  0  0
   -0.3360    4.2730    2.8856 H   0  0  0  0  0  0  0  0  0  0  0  0
   -2.3469    3.5030    3.3300 H   0  0  0  0  0  0  0  0  0  0  0  0
   -2.2523    3.5695    4.9484 H   0  0  0  0  0  0  0  0  0  0  0  0
    3.0264    2.0647    2.2935 H   0  0  0  0  0  0  0  0  0  0  0  0
    3.6652    1.9559    4.5720 H   0  0  0  0  0  0  0  0  0  0  0  0
    4.3479    0.4921    3.9860 H   0  0  0  0  0  0  0  0  0  0  0  0
    4.4285    0.9177    0.9028 H   0  0  0  0  0  0  0  0  0  0  0  0
    4.8509   -0.3241    2.0692 H   0  0  0  0  0  0  0  0  0  0  0  0
    3.4252   -0.9761   -0.5615 H   0  0  0  0  0  0  0  0  0  0  0  0
    5.1282   -2.6634    1.4435 H   0  0  0  0  0  0  0  0  0  0  0  0
    4.3188   -3.2669   -0.0959 H   0  0  0  0  0  0  0  0  0  0  0  0
    5.6510   -1.6378   -1.4432 H   0  0  0  0  0  0  0  0  0  0  0  0
    6.4638   -1.0158    0.0861 H   0  0  0  0  0  0  0  0  0  0  0  0
    2.2891   -1.9899    1.7051 H   0  0  0  0  0  0  0  0  0  0  0  0
    2.9001   -1.5436    3.2708 H   0  0  0  0  0  0  0  0  0  0  0  0
    0.2187   -0.9167    2.0195 H   0  0  0  0  0  0  0  0  0  0  0  0
    0.4955   -1.9321    3.3910 H   0  0  0  0  0  0  0  0  0  0  0  0
    2.1407    0.2600    1.0858 H   0  0  0  0  0  0  0  0  0  0  0  0
  1  2  1  0
  2  7  2  0
  2  3  1  0
  3  4  2  0
  3 29  1  0
  4  5  1  0
  4 30  1  0
  5 20  1  0
  5  6  2  0
  6 28  1  0
  6  7  1  0
  7  8  1  0
  8  9  1  0
  9 28  1  0
  9 10  1  0
  9 31  1  6
 10 18  1  0
 10 11  1  6
 10 12  1  0
 11 32  1  0
 12 13  2  0
 12 33  1  0
 14 13  1  6
 13 34  1  0
 14 28  1  0
 14 15  1  0
 14 19  1  0
 15 16  1  0
 15 17  1  0
 15 35  1  1
 16 36  1  0
 17 18  1  0
 17 37  1  0
 17 38  1  0
 18 39  1  0
 18 40  1  0
 19 20  1  0
 19 21  1  0
 19 41  1  6
 20 42  1  0
 20 43  1  0
 21 22  1  0
 21 26  1  0
 21 55  1  6
 22 23  1  0
 22 44  1  0
 22 45  1  0
 23 25  1  0
 23 24  1  0
 23 46  1  0
 24 25  1  0
 24 47  1  0
 24 48  1  0
 25 49  1  0
 25 50  1  0
 26 27  1  0
 26 51  1  0
 26 52  1  0
 28 27  1  6
 27 53  1  0
 27 54  1  0
M  CHG  2   1  -1  21   1
M  END
>  <i_m_ct_stereo_status>  (402) 
1

>  <s_m_source_file>  (402) 
/var/tmp/pbs.5076255.sched01/tmpm28zzdm2/1449lyhn0we.sdf

>  <i_m_source_file_index>  (402) 
33

>  <i_lp_mmshare_version>  (402) 
48012

>  <i_f3d_flags>  (402) 
1

>  <s_epik_input>  (402) 
W09IXVtDQEhdMVtDSDJdW0NIMl1bQ0BdKFtPSF0pKFtDSF09W0NIXTIpW0NAQEhdM09jNGMoW09IXSlbY0hdW2NIXWMoYzRbQ0BdMzVbQ0BdMTI2KVtDSDJdW0NASF02TihbQ0gyXVtDSDJdNSlbQ0gyXVtDSF03W0NIMl1bQ0gyXTc=

>  <s_epik_cmdline>  (402) 
J2VwaWtfcHl0aG9uJywgJy1waHQnLCAnMi4wJywgJy1waCcsICc3LjAnLCAnLXRuJywgJzgnLCAnLW1hJywgJzIwMCcsICctaW1hZScsICc8aW5maWxlLm1hZT4nLCAnLW9tYWUnLCAnPG91dGZpbGUubWFlPic=

>  <r_epik_Ionization_Penalty>  (402) 
2.38546

>  <r_epik_Ionization_Penalty_Charging>  (402) 
2.38546

>  <r_epik_Ionization_Penalty_Neutral>  (402) 
9.53825e-07

>  <r_epik_State_Penalty>  (402) 
2.53873

>  <r_epik_Charging_Adjusted_Penalty>  (402) 
4.92419

>  <i_epik_Tot_Q>  (402) 
0

>  <i_epik_Tot_abs_Q>  (402) 
2

>  <s_lp_Force_Field>  (402) 
OPLS3e

>  <r_lp_Energy>  (402) 
203.901

>  <b_lp_Chiralities_Consistent>  (402) 
1

>  <s_lp_Variant>  (402) 
109:0-3

>  <s_i_glide_gridfile>  (402) 
pfpi4k_grid

>  <i_i_glide_lignum>  (402) 
33

>  <i_i_glide_rotatable_bonds>  (402) 
4

>  <r_i_docking_score>  (402) 
-3.50556

>  <r_i_glide_ligand_efficiency>  (402) 
-0.125199

>  <r_i_glide_ligand_efficiency_sa>  (402) 
-0.380177

>  <r_i_glide_ligand_efficiency_ln>  (402) 
-0.809187

>  <r_i_glide_gscore>  (402) 
-3.50556

>  <r_i_glide_lipo>  (402) 
-0.0729028

>  <r_i_glide_hbond>  (402) 
-0.0891318

>  <r_i_glide_metal>  (402) 
-0

>  <r_i_glide_rewards>  (402) 
-1.10819

>  <r_i_glide_evdw>  (402) 
-24.6969

>  <r_i_glide_ecoul>  (402) 
-8.35142

>  <r_i_glide_erotb>  (402) 
0.266795

>  <r_i_glide_esite>  (402) 
-0.0145674

>  <r_i_glide_emodel>  (402) 
-43.7389

>  <r_i_glide_energy>  (402) 
-33.0484

>  <r_i_glide_einternal>  (402) 
0.245681

>  <r_i_glide_intrahb_reward>  (402) 
-0

>  <i_i_glide_confnum>  (402) 
1

>  <i_i_glide_posenum>  (402) 
9

>  <r_i_glide_eff_state_penalty>  (402) 
0

>  <ligand_id>  (402) 
109

>  <original_smiles>  (402) 
Oc1ccc2c3c1OC1C4(O)C=CC5(C(O)CC4)C(C2)N(CC2CC2)CCC315

>  <smiles>  (402) 
[H]OC1([H])C([H])([H])C([H])([H])C2(O[H])C([H])=C([H])C13C14c5c(c([O-])c([H])c([H])c5C([H])([H])C3([H])[N+]([H])(C([H])([H])C3([H])C([H])([H])C3([H])[H])C([H])([H])C1([H])[H])OC24[H]

$$$$
109:2:1
     RDKit          3D

 55 61  0  0  1  0  0  0  0  0999 V2000
   -1.9345    2.1707    9.5079 O   0  0  0  0  0  0  0  0  0  0  0  0
   -0.9159    1.7455    8.7120 C   0  0  0  0  0  0  0  0  0  0  0  0
    0.2733    1.2175    9.2793 C   0  0  0  0  0  0  0  0  0  0  0  0
    1.3618    0.8002    8.4714 C   0  0  0  0  0  0  0  0  0  0  0  0
    1.2429    0.8671    7.0681 C   0  0  0  0  0  0  0  0  0  0  0  0
    0.0199    1.3628    6.5960 C   0  0  0  0  0  0  0  0  0  0  0  0
   -1.0487    1.8519    7.3141 C   0  0  0  0  0  0  0  0  0  0  0  0
   -2.0657    2.3961    6.5576 O   0  0  0  0  0  0  0  0  0  0  0  0
   -1.5846    2.4142    5.1736 C   0  0  1  0  0  0  0  0  0  0  0  0
   -1.4701    3.7096    4.2224 C   0  0  2  0  0  0  0  0  0  0  0  0
   -0.8735    4.1099    5.4450 O   0  0  0  0  0  0  0  0  0  0  0  0
   -0.9274    2.8997    2.9970 C   0  0  0  0  0  0  0  0  0  0  0  0
    0.1616    2.0917    2.9732 C   0  0  0  0  0  0  0  0  0  0  0  0
    0.8639    1.8654    4.2863 C   0  0  2  0  0  0  0  0  0  0  0  0
    1.6177    3.2426    4.6164 C   0  0  1  0  0  0  0  0  0  0  0  0
    2.9982    3.1882    4.2897 O   0  0  0  0  0  0  0  0  0  0  0  0
    1.1192    4.5492    3.8805 C   0  0  0  0  0  0  0  0  0  0  0  0
   -0.4261    4.8958    3.9283 C   0  0  0  0  0  0  0  0  0  0  0  0
    1.8593    0.6543    4.4814 C   0  0  1  0  0  0  0  0  0  0  0  0
    2.3003    0.5726    5.9928 C   0  0  0  0  0  0  0  0  0  0  0  0
    1.3216   -0.6522    3.9910 N   0  0  1  0  0  0  0  0  0  0  0  0
    2.3575   -1.7163    3.8891 C   0  0  0  0  0  0  0  0  0  0  0  0
    1.9111   -2.8871    3.0344 C   0  0  0  0  0  0  0  0  0  0  0  0
    1.4411   -4.1771    3.6795 C   0  0  0  0  0  0  0  0  0  0  0  0
    2.7610   -4.1404    2.9570 C   0  0  0  0  0  0  0  0  0  0  0  0
    0.1310   -1.0863    4.7508 C   0  0  0  0  0  0  0  0  0  0  0  0
   -0.9154    0.0258    4.7275 C   0  0  0  0  0  0  0  0  0  0  0  0
   -0.3545    1.4280    5.1689 C   0  0  1  0  0  0  0  0  0  0  0  0
    0.3701    1.1629   10.3519 H   0  0  0  0  0  0  0  0  0  0  0  0
    2.2808    0.4490    8.9180 H   0  0  0  0  0  0  0  0  0  0  0  0
   -2.4206    1.8983    4.7005 H   0  0  0  0  0  0  0  0  0  0  0  0
    0.0156    3.8000    5.4726 H   0  0  0  0  0  0  0  0  0  0  0  0
   -1.4726    3.0690    2.0766 H   0  0  0  0  0  0  0  0  0  0  0  0
    0.4954    1.5967    2.0732 H   0  0  0  0  0  0  0  0  0  0  0  0
    1.6047    3.4204    5.6930 H   0  0  0  0  0  0  0  0  0  0  0  0
    3.1005    3.1719    3.3482 H   0  0  0  0  0  0  0  0  0  0  0  0
    1.6613    5.4096    4.2732 H   0  0  0  0  0  0  0  0  0  0  0  0
    1.4210    4.5219    2.8306 H   0  0  0  0  0  0  0  0  0  0  0  0
   -0.6479    5.2409    2.9134 H   0  0  0  0  0  0  0  0  0  0  0  0
   -0.5841    5.8863    4.3997 H   0  0  0  0  0  0  0  0  0  0  0  0
    2.7465    0.8198    3.8668 H   0  0  0  0  0  0  0  0  0  0  0  0
    3.0936    1.3012    6.1546 H   0  0  0  0  0  0  0  0  0  0  0  0
    2.7578   -0.3868    6.2259 H   0  0  0  0  0  0  0  0  0  0  0  0
    3.2640   -1.3127    3.4388 H   0  0  0  0  0  0  0  0  0  0  0  0
    2.6395   -2.0955    4.8718 H   0  0  0  0  0  0  0  0  0  0  0  0
    1.4387   -2.6002    2.0944 H   0  0  0  0  0  0  0  0  0  0  0  0
    1.4566   -4.2325    4.7672 H   0  0  0  0  0  0  0  0  0  0  0  0
    0.6197   -4.7058    3.1990 H   0  0  0  0  0  0  0  0  0  0  0  0
    2.8136   -4.6647    2.0039 H   0  0  0  0  0  0  0  0  0  0  0  0
    3.6667   -4.1873    3.5595 H   0  0  0  0  0  0  0  0  0  0  0  0
   -0.2934   -1.9882    4.3089 H   0  0  0  0  0  0  0  0  0  0  0  0
    0.3860   -1.3554    5.7773 H   0  0  0  0  0  0  0  0  0  0  0  0
   -1.3298    0.0720    3.7170 H   0  0  0  0  0  0  0  0  0  0  0  0
   -1.7582   -0.2736    5.3532 H   0  0  0  0  0  0  0  0  0  0  0  0
    1.0115   -0.4806    3.0436 H   0  0  0  0  0  0  0  0  0  0  0  0
  1  2  1  0
  2  7  2  0
  2  3  1  0
  3  4  2  0
  3 29  1  0
  4  5  1  0
  4 30  1  0
  5 20  1  0
  5  6  2  0
  6 28  1  0
  6  7  1  0
  7  8  1  0
  8  9  1  0
  9 28  1  0
  9 10  1  0
  9 31  1  6
 10 18  1  0
 10 11  1  6
 10 12  1  0
 11 32  1  0
 12 13  2  0
 12 33  1  0
 14 13  1  6
 13 34  1  0
 14 28  1  0
 14 15  1  0
 14 19  1  0
 15 16  1  0
 15 17  1  0
 15 35  1  1
 16 36  1  0
 17 18  1  0
 17 37  1  0
 17 38  1  0
 18 39  1  0
 18 40  1  0
 19 20  1  0
 19 21  1  0
 19 41  1  6
 20 42  1  0
 20 43  1  0
 21 22  1  0
 21 26  1  0
 21 55  1  6
 22 23  1  0
 22 44  1  0
 22 45  1  0
 23 25  1  0
 23 24  1  0
 23 46  1  0
 24 25  1  0
 24 47  1  0
 24 48  1  0
 25 49  1  0
 25 50  1  0
 26 27  1  0
 26 51  1  0
 26 52  1  0
 28 27  1  6
 27 53  1  0
 27 54  1  0
M  CHG  2   1  -1  21   1
M  END
>  <i_m_ct_stereo_status>  (403) 
1

>  <s_m_source_file>  (403) 
/var/tmp/pbs.5076255.sched01/tmpm28zzdm2/1449lyhn0we.sdf

>  <i_m_source_file_index>  (403) 
33

>  <i_lp_mmshare_version>  (403) 
48012

>  <i_f3d_flags>  (403) 
1

>  <s_epik_input>  (403) 
W09IXVtDQEhdMVtDSDJdW0NIMl1bQ0BdKFtPSF0pKFtDSF09W0NIXTIpW0NAQEhdM09jNGMoW09IXSlbY0hdW2NIXWMoYzRbQ0BdMzVbQ0BdMTI2KVtDSDJdW0NASF02TihbQ0gyXVtDSDJdNSlbQ0gyXVtDSF03W0NIMl1bQ0gyXTc=

>  <s_epik_cmdline>  (403) 
J2VwaWtfcHl0aG9uJywgJy1waHQnLCAnMi4wJywgJy1waCcsICc3LjAnLCAnLXRuJywgJzgnLCAnLW1hJywgJzIwMCcsICctaW1hZScsICc8aW5maWxlLm1hZT4nLCAnLW9tYWUnLCAnPG91dGZpbGUubWFlPic=

>  <r_epik_Ionization_Penalty>  (403) 
2.38546

>  <r_epik_Ionization_Penalty_Charging>  (403) 
2.38546

>  <r_epik_Ionization_Penalty_Neutral>  (403) 
9.53825e-07

>  <r_epik_State_Penalty>  (403) 
2.53873

>  <r_epik_Charging_Adjusted_Penalty>  (403) 
4.92419

>  <i_epik_Tot_Q>  (403) 
0

>  <i_epik_Tot_abs_Q>  (403) 
2

>  <s_lp_Force_Field>  (403) 
OPLS3e

>  <r_lp_Energy>  (403) 
203.901

>  <b_lp_Chiralities_Consistent>  (403) 
1

>  <s_lp_Variant>  (403) 
109:0-3

>  <s_i_glide_gridfile>  (403) 
pfpi4k_grid

>  <i_i_glide_lignum>  (403) 
33

>  <i_i_glide_rotatable_bonds>  (403) 
4

>  <r_i_docking_score>  (403) 
-2.77803

>  <r_i_glide_ligand_efficiency>  (403) 
-0.0992153

>  <r_i_glide_ligand_efficiency_sa>  (403) 
-0.301276

>  <r_i_glide_ligand_efficiency_ln>  (403) 
-0.641251

>  <r_i_glide_gscore>  (403) 
-2.77803

>  <r_i_glide_lipo>  (403) 
-0.00168149

>  <r_i_glide_hbond>  (403) 
0

>  <r_i_glide_metal>  (403) 
-0

>  <r_i_glide_rewards>  (403) 
-1.10819

>  <r_i_glide_evdw>  (403) 
-21.3517

>  <r_i_glide_ecoul>  (403) 
-5.75767

>  <r_i_glide_erotb>  (403) 
0.266795

>  <r_i_glide_esite>  (403) 
-0.00370996

>  <r_i_glide_emodel>  (403) 
-35.6078

>  <r_i_glide_energy>  (403) 
-27.1094

>  <r_i_glide_einternal>  (403) 
0.0436487

>  <r_i_glide_intrahb_reward>  (403) 
-0

>  <i_i_glide_confnum>  (403) 
1

>  <i_i_glide_posenum>  (403) 
10

>  <r_i_glide_eff_state_penalty>  (403) 
0

>  <ligand_id>  (403) 
109

>  <original_smiles>  (403) 
Oc1ccc2c3c1OC1C4(O)C=CC5(C(O)CC4)C(C2)N(CC2CC2)CCC315

>  <smiles>  (403) 
[H]OC1([H])C([H])([H])C([H])([H])C2(O[H])C([H])=C([H])C13C14c5c(c([O-])c([H])c([H])c5C([H])([H])C3([H])[N+]([H])(C([H])([H])C3([H])C([H])([H])C3([H])[H])C([H])([H])C1([H])[H])OC24[H]

$$$$
109:2:2
     RDKit          3D

 55 61  0  0  1  0  0  0  0  0999 V2000
   -3.0575    2.7639    9.2680 O   0  0  0  0  0  0  0  0  0  0  0  0
   -1.9567    2.1722    8.7232 C   0  0  0  0  0  0  0  0  0  0  0  0
   -0.9698    1.5845    9.5562 C   0  0  0  0  0  0  0  0  0  0  0  0
    0.1976    0.9853    9.0193 C   0  0  0  0  0  0  0  0  0  0  0  0
    0.3653    0.9377    7.6211 C   0  0  0  0  0  0  0  0  0  0  0  0
   -0.6735    1.5090    6.8750 C   0  0  0  0  0  0  0  0  0  0  0  0
   -1.7996    2.1640    7.3230 C   0  0  0  0  0  0  0  0  0  0  0  0
   -2.5749    2.7393    6.3401 O   0  0  0  0  0  0  0  0  0  0  0  0
   -1.8288    2.5881    5.0885 C   0  0  1  0  0  0  0  0  0  0  0  0
   -1.3778    3.7758    4.1015 C   0  0  2  0  0  0  0  0  0  0  0  0
   -0.9995    4.2227    5.3916 O   0  0  0  0  0  0  0  0  0  0  0  0
   -0.6882    2.8117    3.0791 C   0  0  0  0  0  0  0  0  0  0  0  0
    0.2857    1.9049    3.3277 C   0  0  0  0  0  0  0  0  0  0  0  0
    0.6725    1.7261    4.7692 C   0  0  2  0  0  0  0  0  0  0  0  0
    1.4909    3.0503    5.1564 C   0  0  1  0  0  0  0  0  0  0  0  0
    2.8913    2.8332    5.1216 O   0  0  0  0  0  0  0  0  0  0  0  0
    1.2994    4.3326    4.2499 C   0  0  0  0  0  0  0  0  0  0  0  0
   -0.1756    4.8325    3.9570 C   0  0  0  0  0  0  0  0  0  0  0  0
    1.4627    0.4439    5.2386 C   0  0  1  0  0  0  0  0  0  0  0  0
    1.5779    0.4512    6.8111 C   0  0  0  0  0  0  0  0  0  0  0  0
    0.8869   -0.8393    4.7288 N   0  0  1  0  0  0  0  0  0  0  0  0
    1.7970   -2.0047    4.9058 C   0  0  0  0  0  0  0  0  0  0  0  0
    1.3389   -3.2338    4.1401 C   0  0  0  0  0  0  0  0  0  0  0  0
    0.6440   -4.3712    4.8657 C   0  0  0  0  0  0  0  0  0  0  0  0
    2.0420   -4.5612    4.3423 C   0  0  0  0  0  0  0  0  0  0  0  0
   -0.4729   -1.0877    5.2507 C   0  0  0  0  0  0  0  0  0  0  0  0
   -1.3607    0.1151    4.9401 C   0  0  0  0  0  0  0  0  0  0  0  0
   -0.7446    1.4881    5.4006 C   0  0  1  0  0  0  0  0  0  0  0  0
   -1.1007    1.6037   10.6273 H   0  0  0  0  0  0  0  0  0  0  0  0
    0.9593    0.5788    9.6677 H   0  0  0  0  0  0  0  0  0  0  0  0
   -2.6032    2.1197    4.4800 H   0  0  0  0  0  0  0  0  0  0  0  0
   -0.1621    3.8535    5.6097 H   0  0  0  0  0  0  0  0  0  0  0  0
   -1.0282    2.9407    2.0660 H   0  0  0  0  0  0  0  0  0  0  0  0
    0.7252    1.3031    2.5453 H   0  0  0  0  0  0  0  0  0  0  0  0
    1.2825    3.3175    6.1934 H   0  0  0  0  0  0  0  0  0  0  0  0
    3.1690    2.7374    4.2225 H   0  0  0  0  0  0  0  0  0  0  0  0
    1.8452    5.1649    4.6938 H   0  0  0  0  0  0  0  0  0  0  0  0
    1.7973    4.1870    3.2877 H   0  0  0  0  0  0  0  0  0  0  0  0
   -0.1571    5.1140    2.8990 H   0  0  0  0  0  0  0  0  0  0  0  0
   -0.3162    5.8717    4.3201 H   0  0  0  0  0  0  0  0  0  0  0  0
    2.4676    0.4692    4.8118 H   0  0  0  0  0  0  0  0  0  0  0  0
    2.3997    1.1122    7.0867 H   0  0  0  0  0  0  0  0  0  0  0  0
    1.8708   -0.5224    7.1976 H   0  0  0  0  0  0  0  0  0  0  0  0
    2.7963   -1.7490    4.5534 H   0  0  0  0  0  0  0  0  0  0  0  0
    1.8980   -2.2802    5.9566 H   0  0  0  0  0  0  0  0  0  0  0  0
    1.0235   -3.0342    3.1151 H   0  0  0  0  0  0  0  0  0  0  0  0
    0.5116   -4.2785    5.9432 H   0  0  0  0  0  0  0  0  0  0  0  0
   -0.1620   -4.8818    4.3420 H   0  0  0  0  0  0  0  0  0  0  0  0
    2.1587   -5.2122    3.4777 H   0  0  0  0  0  0  0  0  0  0  0  0
    2.8501   -4.6107    5.0707 H   0  0  0  0  0  0  0  0  0  0  0  0
   -0.9045   -1.9749    4.7861 H   0  0  0  0  0  0  0  0  0  0  0  0
   -0.4568   -1.2938    6.3228 H   0  0  0  0  0  0  0  0  0  0  0  0
   -1.5555    0.1159    3.8643 H   0  0  0  0  0  0  0  0  0  0  0  0
   -2.3407   -0.0477    5.3932 H   0  0  0  0  0  0  0  0  0  0  0  0
    0.7901   -0.7180    3.7290 H   0  0  0  0  0  0  0  0  0  0  0  0
  1  2  1  0
  2  7  2  0
  2  3  1  0
  3  4  2  0
  3 29  1  0
  4  5  1  0
  4 30  1  0
  5 20  1  0
  5  6  2  0
  6 28  1  0
  6  7  1  0
  7  8  1  0
  8  9  1  0
  9 28  1  0
  9 10  1  0
  9 31  1  6
 10 18  1  0
 10 11  1  6
 10 12  1  0
 11 32  1  0
 12 13  2  0
 12 33  1  0
 14 13  1  6
 13 34  1  0
 14 28  1  0
 14 15  1  0
 14 19  1  0
 15 16  1  0
 15 17  1  0
 15 35  1  1
 16 36  1  0
 17 18  1  0
 17 37  1  0
 17 38  1  0
 18 39  1  0
 18 40  1  0
 19 20  1  0
 19 21  1  0
 19 41  1  6
 20 42  1  0
 20 43  1  0
 21 22  1  0
 21 26  1  0
 21 55  1  6
 22 23  1  0
 22 44  1  0
 22 45  1  0
 23 25  1  0
 23 24  1  0
 23 46  1  0
 24 25  1  0
 24 47  1  0
 24 48  1  0
 25 49  1  0
 25 50  1  0
 26 27  1  0
 26 51  1  0
 26 52  1  0
 28 27  1  1
 27 53  1  0
 27 54  1  0
M  CHG  2   1  -1  21   1
M  END
>  <i_m_ct_stereo_status>  (404) 
1

>  <s_m_source_file>  (404) 
/var/tmp/pbs.5076255.sched01/tmpm28zzdm2/1449lyhn0we.sdf

>  <i_m_source_file_index>  (404) 
33

>  <i_lp_mmshare_version>  (404) 
48012

>  <i_f3d_flags>  (404) 
1

>  <s_epik_input>  (404) 
W09IXVtDQEhdMVtDSDJdW0NIMl1bQ0BdKFtPSF0pKFtDSF09W0NIXTIpW0NAQEhdM09jNGMoW09IXSlbY0hdW2NIXWMoYzRbQ0BdMzVbQ0BdMTI2KVtDSDJdW0NASF02TihbQ0gyXVtDSDJdNSlbQ0gyXVtDSF03W0NIMl1bQ0gyXTc=

>  <s_epik_cmdline>  (404) 
J2VwaWtfcHl0aG9uJywgJy1waHQnLCAnMi4wJywgJy1waCcsICc3LjAnLCAnLXRuJywgJzgnLCAnLW1hJywgJzIwMCcsICctaW1hZScsICc8aW5maWxlLm1hZT4nLCAnLW9tYWUnLCAnPG91dGZpbGUubWFlPic=

>  <r_epik_Ionization_Penalty>  (404) 
2.38546

>  <r_epik_Ionization_Penalty_Charging>  (404) 
2.38546

>  <r_epik_Ionization_Penalty_Neutral>  (404) 
9.53825e-07

>  <r_epik_State_Penalty>  (404) 
2.53873

>  <r_epik_Charging_Adjusted_Penalty>  (404) 
4.92419

>  <i_epik_Tot_Q>  (404) 
0

>  <i_epik_Tot_abs_Q>  (404) 
2

>  <s_lp_Force_Field>  (404) 
OPLS3e

>  <r_lp_Energy>  (404) 
203.901

>  <b_lp_Chiralities_Consistent>  (404) 
1

>  <s_lp_Variant>  (404) 
109:0-3

>  <s_i_glide_gridfile>  (404) 
pfpi4k_grid

>  <i_i_glide_lignum>  (404) 
33

>  <i_i_glide_rotatable_bonds>  (404) 
4

>  <r_i_docking_score>  (404) 
-2.55279

>  <r_i_glide_ligand_efficiency>  (404) 
-0.091171

>  <r_i_glide_ligand_efficiency_sa>  (404) 
-0.276849

>  <r_i_glide_ligand_efficiency_ln>  (404) 
-0.589258

>  <r_i_glide_gscore>  (404) 
-2.55279

>  <r_i_glide_lipo>  (404) 
-0.0352113

>  <r_i_glide_hbond>  (404) 
0

>  <r_i_glide_metal>  (404) 
-0

>  <r_i_glide_rewards>  (404) 
-0.808195

>  <r_i_glide_evdw>  (404) 
-22.1808

>  <r_i_glide_ecoul>  (404) 
-5.76131

>  <r_i_glide_erotb>  (404) 
0.266795

>  <r_i_glide_esite>  (404) 
-0.00294003

>  <r_i_glide_emodel>  (404) 
-35.6754

>  <r_i_glide_energy>  (404) 
-27.9421

>  <r_i_glide_einternal>  (404) 
0.17531

>  <r_i_glide_intrahb_reward>  (404) 
-0

>  <i_i_glide_confnum>  (404) 
1

>  <i_i_glide_posenum>  (404) 
4

>  <r_i_glide_eff_state_penalty>  (404) 
0

>  <ligand_id>  (404) 
109

>  <original_smiles>  (404) 
Oc1ccc2c3c1OC1C4(O)C=CC5(C(O)CC4)C(C2)N(CC2CC2)CCC315

>  <smiles>  (404) 
[H]OC1([H])C([H])([H])C([H])([H])C2(O[H])C([H])=C([H])C13C14c5c(c([O-])c([H])c([H])c5C([H])([H])C3([H])[N+]([H])(C([H])([H])C3([H])C([H])([H])C3([H])[H])C([H])([H])C1([H])[H])OC24[H]

$$$$
110:0:0
     RDKit          3D

 79 85  0  0  1  0  0  0  0  0999 V2000
    0.8575   -7.0068    1.1033 C   0  0  0  0  0  0  0  0  0  0  0  0
    1.7942   -7.6297    2.1510 C   0  0  2  0  0  0  0  0  0  0  0  0
    2.2344   -9.0337    1.6984 C   0  0  0  0  0  0  0  0  0  0  0  0
    3.3359   -9.6368    2.5717 C   0  0  2  0  0  0  0  0  0  0  0  0
    2.9172   -9.7146    4.0862 C   0  0  1  0  0  0  0  0  0  0  0  0
    1.9939  -10.9660    4.2082 C   0  0  0  0  0  0  0  0  0  0  0  0
    4.1593   -9.9497    4.9993 C   0  0  1  0  0  0  0  0  0  0  0  0
    3.8624  -10.6461    6.2028 O   0  0  0  0  0  0  0  0  0  0  0  0
    5.4353  -10.5217    4.3440 C   0  0  1  0  0  0  0  0  0  0  0  0
    5.2230  -11.8557    3.8962 O   0  0  0  0  0  0  0  0  0  0  0  0
    5.8835   -9.6785    3.1335 C   0  0  2  0  0  0  0  0  0  0  0  0
    6.5067   -8.2619    3.2753 C   0  0  1  0  0  0  0  0  0  0  0  0
    6.8038   -7.7752    4.7074 C   0  0  0  0  0  0  0  0  0  0  0  0
    7.8209   -8.1164    2.4809 C   0  0  0  0  0  0  0  0  0  0  0  0
    8.3817   -6.7025    2.2143 C   0  0  0  0  0  0  0  0  0  0  0  0
    7.4941   -5.4500    2.3638 C   0  0  1  0  0  0  0  0  0  0  0  0
    8.1769   -4.4138    1.6720 O   0  0  0  0  0  0  0  0  0  0  0  0
    7.3359   -3.8303    0.7390 C   0  0  0  0  0  0  0  0  0  0  0  0
    7.0113   -2.3764    1.1090 C   0  0  0  0  0  0  0  0  0  0  0  0
    8.0940   -3.9246   -0.5631 C   0  0  0  0  0  0  0  0  0  0  0  0
    6.1762   -4.5914    0.6433 O   0  0  0  0  0  0  0  0  0  0  0  0
    6.0707   -5.3753    1.8086 C   0  0  1  0  0  0  0  0  0  0  0  0
    5.4106   -6.6926    1.4254 C   0  0  0  0  0  0  0  0  0  0  0  0
    5.2473   -7.7040    2.5806 C   0  0  1  0  0  0  0  0  0  0  0  0
    4.7616   -9.1313    2.2571 C   0  0  2  0  0  0  0  0  0  0  0  0
    4.9485   -9.4778    0.9091 O   0  0  0  0  0  0  0  0  0  0  0  0
    2.2179   -8.3628    4.5628 C   0  0  2  0  0  0  0  0  0  0  0  0
    1.6721   -8.3857    6.0365 C   0  0  1  0  0  0  0  0  0  0  0  0
    2.5778   -7.7190    6.8771 O   0  0  0  0  0  0  0  0  0  0  0  0
    0.2919   -7.7400    6.2736 C   0  0  0  0  0  0  0  0  0  0  0  0
   -0.2826   -7.1525    4.9867 C   0  0  1  0  0  0  0  0  0  0  0  0
    0.6918   -6.3185    4.1570 C   0  0  0  0  0  0  0  0  0  0  0  0
    1.2015   -7.6654    3.5843 C   0  0  1  0  0  0  0  0  0  0  0  0
   -0.2787   -8.0582    3.7611 C   0  0  1  0  0  0  0  0  0  0  0  0
   -0.4898   -9.4425    3.8712 O   0  0  0  0  0  0  0  0  0  0  0  0
   -0.0301   -7.6144    0.9209 H   0  0  0  0  0  0  0  0  0  0  0  0
    1.3780   -6.8964    0.1603 H   0  0  0  0  0  0  0  0  0  0  0  0
    0.5455   -6.0049    1.3815 H   0  0  0  0  0  0  0  0  0  0  0  0
    2.6789   -6.9965    2.1812 H   0  0  0  0  0  0  0  0  0  0  0  0
    1.3587   -9.6824    1.7081 H   0  0  0  0  0  0  0  0  0  0  0  0
    2.5388   -9.0259    0.6515 H   0  0  0  0  0  0  0  0  0  0  0  0
    3.3241  -10.6766    2.2362 H   0  0  0  0  0  0  0  0  0  0  0  0
    1.4740  -11.0543    5.1639 H   0  0  0  0  0  0  0  0  0  0  0  0
    2.5543  -11.8917    4.0908 H   0  0  0  0  0  0  0  0  0  0  0  0
    1.2354  -11.0163    3.4342 H   0  0  0  0  0  0  0  0  0  0  0  0
    4.4810   -8.9856    5.3656 H   0  0  0  0  0  0  0  0  0  0  0  0
    3.5264  -11.5062    5.9778 H   0  0  0  0  0  0  0  0  0  0  0  0
    6.2291  -10.5841    5.0927 H   0  0  0  0  0  0  0  0  0  0  0  0
    4.6245  -11.8428    3.1625 H   0  0  0  0  0  0  0  0  0  0  0  0
    6.5646  -10.2621    2.5131 H   0  0  0  0  0  0  0  0  0  0  0  0
    7.5205   -6.9552    4.7499 H   0  0  0  0  0  0  0  0  0  0  0  0
    7.2283   -8.5695    5.3240 H   0  0  0  0  0  0  0  0  0  0  0  0
    5.9077   -7.4110    5.2023 H   0  0  0  0  0  0  0  0  0  0  0  0
    8.6166   -8.7164    2.9340 H   0  0  0  0  0  0  0  0  0  0  0  0
    7.6655   -8.5437    1.4914 H   0  0  0  0  0  0  0  0  0  0  0  0
    9.2382   -6.5438    2.8803 H   0  0  0  0  0  0  0  0  0  0  0  0
    8.7978   -6.6987    1.2095 H   0  0  0  0  0  0  0  0  0  0  0  0
    7.4243   -5.2159    3.4265 H   0  0  0  0  0  0  0  0  0  0  0  0
    6.5588   -2.3054    2.0783 H   0  0  0  0  0  0  0  0  0  0  0  0
    6.3491   -1.9518    0.3701 H   0  0  0  0  0  0  0  0  0  0  0  0
    7.9187   -1.7815    1.0811 H   0  0  0  0  0  0  0  0  0  0  0  0
    8.4240   -4.9646   -0.6894 H   0  0  0  0  0  0  0  0  0  0  0  0
    9.0106   -3.3370   -0.5213 H   0  0  0  0  0  0  0  0  0  0  0  0
    7.4682   -3.5792   -1.3992 H   0  0  0  0  0  0  0  0  0  0  0  0
    5.4692   -4.8670    2.5510 H   0  0  0  0  0  0  0  0  0  0  0  0
    4.4481   -6.4842    0.9579 H   0  0  0  0  0  0  0  0  0  0  0  0
    6.0159   -7.1082    0.6183 H   0  0  0  0  0  0  0  0  0  0  0  0
    4.6445   -7.3034    3.3670 H   0  0  0  0  0  0  0  0  0  0  0  0
    4.6954  -10.3891    0.8111 H   0  0  0  0  0  0  0  0  0  0  0  0
    3.0143   -7.6261    4.6119 H   0  0  0  0  0  0  0  0  0  0  0  0
    1.5808   -9.3898    6.4208 H   0  0  0  0  0  0  0  0  0  0  0  0
    3.3192   -8.2933    7.0010 H   0  0  0  0  0  0  0  0  0  0  0  0
   -0.3923   -8.5068    6.6445 H   0  0  0  0  0  0  0  0  0  0  0  0
    0.3214   -6.9828    7.0638 H   0  0  0  0  0  0  0  0  0  0  0  0
   -1.2264   -6.6240    5.1008 H   0  0  0  0  0  0  0  0  0  0  0  0
    0.1859   -5.6679    3.4422 H   0  0  0  0  0  0  0  0  0  0  0  0
    1.4419   -5.7845    4.7275 H   0  0  0  0  0  0  0  0  0  0  0  0
   -0.9540   -7.6561    3.0066 H   0  0  0  0  0  0  0  0  0  0  0  0
   -1.2229   -9.6414    4.4463 H   0  0  0  0  0  0  0  0  0  0  0  0
  1  2  1  0
  1 36  1  0
  1 37  1  0
  1 38  1  0
  2 33  1  0
  2  3  1  0
  2 39  1  1
  3  4  1  0
  3 40  1  0
  3 41  1  0
  4 25  1  0
  4  5  1  0
  4 42  1  6
  5  6  1  6
  5  7  1  0
  5 27  1  0
  6 43  1  0
  6 44  1  0
  6 45  1  0
  7  8  1  0
  7  9  1  0
  7 46  1  1
  8 47  1  0
  9 10  1  0
  9 11  1  0
  9 48  1  1
 10 49  1  0
 11 25  1  0
 11 12  1  0
 11 50  1  6
 12 24  1  0
 12 13  1  1
 12 14  1  0
 13 51  1  0
 13 52  1  0
 13 53  1  0
 14 15  1  0
 14 54  1  0
 14 55  1  0
 15 16  1  0
 15 56  1  0
 15 57  1  0
 16 22  1  0
 16 17  1  0
 16 58  1  1
 17 18  1  0
 18 19  1  0
 18 20  1  0
 18 21  1  0
 19 59  1  0
 19 60  1  0
 19 61  1  0
 20 62  1  0
 20 63  1  0
 20 64  1  0
 21 22  1  0
 22 23  1  0
 22 65  1  1
 23 24  1  0
 23 66  1  0
 23 67  1  0
 24 25  1  0
 24 68  1  1
 25 26  1  6
 26 69  1  0
 27 33  1  0
 27 28  1  0
 27 70  1  1
 28 29  1  0
 28 30  1  0
 28 71  1  1
 29 72  1  0
 30 31  1  0
 30 73  1  0
 30 74  1  0
 31 34  1  0
 31 32  1  0
 31 75  1  1
 33 32  1  1
 32 76  1  0
 32 77  1  0
 33 34  1  0
 34 35  1  0
 34 78  1  6
 35 79  1  0
M  END
>  <i_m_ct_stereo_status>  (405) 
1

>  <s_m_source_file>  (405) 
/var/tmp/pbs.5076255.sched01/tmpm28zzdm2/1449lyhn0we.sdf

>  <i_m_source_file_index>  (405) 
34

>  <i_lp_mmshare_version>  (405) 
48012

>  <i_f3d_flags>  (405) 
0

>  <s_epik_input>  (405) 
W09IXVtDQEhdMVtDQEhdKFtDSDJdMilbQ0gyXVtDQEhdKFtPSF0pW0NASF0oW0NAQF0xMjMpW0NAQF00KFtDSDNdKVtDQEBIXShbQ0gyXVtDQEhdM1tDSDNdKVtDQF01KFtPSF0pW0NASF0oW0NASF0oW09IXSlbQ0BASF00W09IXSlbQ0BdNihbQ0gzXSlbQ0BIXTVbQ0gyXVtDQEhdN1tDQEBIXShbQ0gyXVtDSDJdNilPQyhPNykoW0NIM10pW0NIM10=

>  <s_epik_cmdline>  (405) 
J2VwaWtfcHl0aG9uJywgJy1waHQnLCAnMi4wJywgJy1waCcsICc3LjAnLCAnLXRuJywgJzgnLCAnLW1hJywgJzIwMCcsICctaW1hZScsICc8aW5maWxlLm1hZT4nLCAnLW9tYWUnLCAnPG91dGZpbGUubWFlPic=

>  <r_lp_tautomer_probability>  (405) 
1

>  <r_epik_Ionization_Penalty>  (405) 
4.91666e-06

>  <r_epik_Ionization_Penalty_Charging>  (405) 
0

>  <r_epik_Ionization_Penalty_Neutral>  (405) 
4.91666e-06

>  <r_epik_State_Penalty>  (405) 
-0

>  <r_epik_Charging_Adjusted_Penalty>  (405) 
0

>  <i_epik_Tot_Q>  (405) 
0

>  <i_epik_Tot_abs_Q>  (405) 
0

>  <s_lp_Force_Field>  (405) 
OPLS3e

>  <r_lp_Energy>  (405) 
76.9589

>  <b_lp_Chiralities_Consistent>  (405) 
1

>  <s_lp_Variant>  (405) 
110:0-1

>  <s_i_glide_gridfile>  (405) 
pfpi4k_grid

>  <i_i_glide_lignum>  (405) 
34

>  <i_i_glide_rotatable_bonds>  (405) 
5

>  <r_i_docking_score>  (405) 
-2.86712

>  <r_i_glide_ligand_efficiency>  (405) 
-0.0819178

>  <r_i_glide_ligand_efficiency_sa>  (405) 
-0.267959

>  <r_i_glide_ligand_efficiency_ln>  (405) 
-0.629397

>  <r_i_glide_gscore>  (405) 
-2.86712

>  <r_i_glide_lipo>  (405) 
-0.373247

>  <r_i_glide_hbond>  (405) 
-0.282312

>  <r_i_glide_metal>  (405) 
-0

>  <r_i_glide_rewards>  (405) 
-0.221863

>  <r_i_glide_evdw>  (405) 
-19.4613

>  <r_i_glide_ecoul>  (405) 
-6.77757

>  <r_i_glide_erotb>  (405) 
0

>  <r_i_glide_esite>  (405) 
0

>  <r_i_glide_emodel>  (405) 
-29.1018

>  <r_i_glide_energy>  (405) 
-26.2389

>  <r_i_glide_einternal>  (405) 
2.90241

>  <r_i_glide_intrahb_reward>  (405) 
-0

>  <i_i_glide_confnum>  (405) 
1

>  <i_i_glide_posenum>  (405) 
35

>  <r_i_glide_eff_state_penalty>  (405) 
0

>  <ligand_id>  (405) 
110

>  <original_smiles>  (405) 
CC1CC2C(C)(C(O)C(O)C3C4(C)CCC5OC(C)(C)OC5CC4C32O)C2C(O)CC3CC12C3O

>  <smiles>  (405) 
[H]OC1([H])C([H])(O[H])C2(C([H])([H])[H])C([H])(C([H])([H])C([H])(C([H])([H])[H])C34C([H])([H])C([H])(C([H])([H])C([H])(O[H])C23[H])C4([H])O[H])C2(O[H])C3([H])C([H])([H])C4([H])OC(C([H])([H])[H])(C([H])([H])[H])OC4([H])C([H])([H])C([H])([H])C3(C([H])([H])[H])C12[H]

$$$$
110:0:1
     RDKit          3D

 79 85  0  0  1  0  0  0  0  0999 V2000
    0.1868   -8.3311    2.3323 C   0  0  0  0  0  0  0  0  0  0  0  0
    1.5599   -8.5680    3.0045 C   0  0  2  0  0  0  0  0  0  0  0  0
    2.2928   -9.6861    2.2671 C   0  0  0  0  0  0  0  0  0  0  0  0
    3.7654   -9.8357    2.6989 C   0  0  2  0  0  0  0  0  0  0  0  0
    3.9159  -10.0658    4.2578 C   0  0  1  0  0  0  0  0  0  0  0  0
    3.5661  -11.5692    4.4975 C   0  0  0  0  0  0  0  0  0  0  0  0
    5.3991   -9.8215    4.7253 C   0  0  1  0  0  0  0  0  0  0  0  0
    5.7960  -10.6214    5.8288 O   0  0  0  0  0  0  0  0  0  0  0  0
    6.4995   -9.8764    3.6387 C   0  0  1  0  0  0  0  0  0  0  0  0
    6.6371  -11.2002    3.1451 O   0  0  0  0  0  0  0  0  0  0  0  0
    6.2097   -8.9352    2.4595 C   0  0  2  0  0  0  0  0  0  0  0  0
    6.3046   -7.3791    2.5811 C   0  0  1  0  0  0  0  0  0  0  0  0
    6.8335   -6.8313    3.9203 C   0  0  0  0  0  0  0  0  0  0  0  0
    7.1525   -6.7358    1.4648 C   0  0  0  0  0  0  0  0  0  0  0  0
    7.0612   -5.2051    1.2356 C   0  0  0  0  0  0  0  0  0  0  0  0
    5.8967   -4.3816    1.8392 C   0  0  1  0  0  0  0  0  0  0  0  0
    5.9034   -3.1320    1.1788 O   0  0  0  0  0  0  0  0  0  0  0  0
    4.6921   -2.9622    0.5166 C   0  0  0  0  0  0  0  0  0  0  0  0
    4.0193   -1.7011    1.0802 C   0  0  0  0  0  0  0  0  0  0  0  0
    4.9557   -2.8675   -0.9937 C   0  0  0  0  0  0  0  0  0  0  0  0
    3.8608   -4.0507    0.7188 O   0  0  0  0  0  0  0  0  0  0  0  0
    4.4417   -4.8649    1.7105 C   0  0  1  0  0  0  0  0  0  0  0  0
    4.2098   -6.3314    1.3337 C   0  0  0  0  0  0  0  0  0  0  0  0
    4.7776   -7.3307    2.3531 C   0  0  1  0  0  0  0  0  0  0  0  0
    4.7465   -8.8387    2.0113 C   0  0  2  0  0  0  0  0  0  0  0  0
    4.5914   -9.0788    0.6275 O   0  0  0  0  0  0  0  0  0  0  0  0
    2.9677   -9.0815    5.0796 C   0  0  2  0  0  0  0  0  0  0  0  0
    2.9575   -9.2978    6.6454 C   0  0  1  0  0  0  0  0  0  0  0  0
    3.7845   -8.3329    7.2668 O   0  0  0  0  0  0  0  0  0  0  0  0
    1.5682   -9.2100    7.3393 C   0  0  0  0  0  0  0  0  0  0  0  0
    0.4649   -8.8842    6.3494 C   0  0  1  0  0  0  0  0  0  0  0  0
    0.7896   -7.7657    5.3638 C   0  0  0  0  0  0  0  0  0  0  0  0
    1.5237   -8.8447    4.5265 C   0  0  1  0  0  0  0  0  0  0  0  0
    0.4049   -9.7548    5.0979 C   0  0  1  0  0  0  0  0  0  0  0  0
    0.6464  -11.1321    5.2669 O   0  0  0  0  0  0  0  0  0  0  0  0
   -0.4421   -9.2233    2.3436 H   0  0  0  0  0  0  0  0  0  0  0  0
    0.3330   -8.0647    1.2837 H   0  0  0  0  0  0  0  0  0  0  0  0
   -0.3727   -7.5106    2.7778 H   0  0  0  0  0  0  0  0  0  0  0  0
    2.1129   -7.6436    2.8497 H   0  0  0  0  0  0  0  0  0  0  0  0
    1.7557  -10.6174    2.4560 H   0  0  0  0  0  0  0  0  0  0  0  0
    2.2086   -9.5403    1.1908 H   0  0  0  0  0  0  0  0  0  0  0  0
    4.0329  -10.7993    2.2635 H   0  0  0  0  0  0  0  0  0  0  0  0
    3.4453  -11.8389    5.5450 H   0  0  0  0  0  0  0  0  0  0  0  0
    4.3450  -12.2242    4.1071 H   0  0  0  0  0  0  0  0  0  0  0  0
    2.6537  -11.8787    3.9923 H   0  0  0  0  0  0  0  0  0  0  0  0
    5.4536   -8.8175    5.1300 H   0  0  0  0  0  0  0  0  0  0  0  0
    5.8061  -11.5219    5.5443 H   0  0  0  0  0  0  0  0  0  0  0  0
    7.4629   -9.6285    4.0862 H   0  0  0  0  0  0  0  0  0  0  0  0
    5.8433  -11.4463    2.6944 H   0  0  0  0  0  0  0  0  0  0  0  0
    6.8281   -9.2323    1.6079 H   0  0  0  0  0  0  0  0  0  0  0  0
    7.1796   -5.8039    3.8563 H   0  0  0  0  0  0  0  0  0  0  0  0
    7.6868   -7.4053    4.2826 H   0  0  0  0  0  0  0  0  0  0  0  0
    6.0701   -6.8380    4.6973 H   0  0  0  0  0  0  0  0  0  0  0  0
    8.2008   -7.0245    1.5696 H   0  0  0  0  0  0  0  0  0  0  0  0
    6.8521   -7.1714    0.5171 H   0  0  0  0  0  0  0  0  0  0  0  0
    7.9820   -4.7620    1.6202 H   0  0  0  0  0  0  0  0  0  0  0  0
    7.0946   -5.0296    0.1591 H   0  0  0  0  0  0  0  0  0  0  0  0
    6.0992   -4.1857    2.8895 H   0  0  0  0  0  0  0  0  0  0  0  0
    3.8623   -1.8106    2.1525 H   0  0  0  0  0  0  0  0  0  0  0  0
    3.0575   -1.5325    0.5913 H   0  0  0  0  0  0  0  0  0  0  0  0
    4.6606   -0.8345    0.9076 H   0  0  0  0  0  0  0  0  0  0  0  0
    5.4112   -3.7920   -1.3482 H   0  0  0  0  0  0  0  0  0  0  0  0
    5.6187   -2.0302   -1.2129 H   0  0  0  0  0  0  0  0  0  0  0  0
    4.0106   -2.7236   -1.5215 H   0  0  0  0  0  0  0  0  0  0  0  0
    3.9283   -4.6443    2.6468 H   0  0  0  0  0  0  0  0  0  0  0  0
    3.1416   -6.4960    1.2048 H   0  0  0  0  0  0  0  0  0  0  0  0
    4.6279   -6.4964    0.3398 H   0  0  0  0  0  0  0  0  0  0  0  0
    4.3065   -7.1819    3.3190 H   0  0  0  0  0  0  0  0  0  0  0  0
    4.4774  -10.0208    0.5135 H   0  0  0  0  0  0  0  0  0  0  0  0
    3.4245   -8.1016    4.9668 H   0  0  0  0  0  0  0  0  0  0  0  0
    3.3824  -10.2591    6.9154 H   0  0  0  0  0  0  0  0  0  0  0  0
    3.8846   -8.5690    8.1759 H   0  0  0  0  0  0  0  0  0  0  0  0
    1.3454  -10.1572    7.8309 H   0  0  0  0  0  0  0  0  0  0  0  0
    1.5656   -8.4763    8.1476 H   0  0  0  0  0  0  0  0  0  0  0  0
   -0.5204   -8.7647    6.8019 H   0  0  0  0  0  0  0  0  0  0  0  0
   -0.0988   -7.3274    4.9100 H   0  0  0  0  0  0  0  0  0  0  0  0
    1.4431   -6.9912    5.7705 H   0  0  0  0  0  0  0  0  0  0  0  0
   -0.5416   -9.6249    4.5756 H   0  0  0  0  0  0  0  0  0  0  0  0
    0.9903  -11.2837    6.1457 H   0  0  0  0  0  0  0  0  0  0  0  0
  1  2  1  0
  1 36  1  0
  1 37  1  0
  1 38  1  0
  2 33  1  0
  2  3  1  0
  2 39  1  1
  3  4  1  0
  3 40  1  0
  3 41  1  0
  4 25  1  0
  4  5  1  0
  4 42  1  6
  5  6  1  6
  5  7  1  0
  5 27  1  0
  6 43  1  0
  6 44  1  0
  6 45  1  0
  7  8  1  0
  7  9  1  0
  7 46  1  1
  8 47  1  0
  9 10  1  0
  9 11  1  0
  9 48  1  1
 10 49  1  0
 11 25  1  0
 11 12  1  0
 11 50  1  6
 12 24  1  0
 12 13  1  1
 12 14  1  0
 13 51  1  0
 13 52  1  0
 13 53  1  0
 14 15  1  0
 14 54  1  0
 14 55  1  0
 15 16  1  0
 15 56  1  0
 15 57  1  0
 16 22  1  0
 16 17  1  0
 16 58  1  1
 17 18  1  0
 18 19  1  0
 18 20  1  0
 18 21  1  0
 19 59  1  0
 19 60  1  0
 19 61  1  0
 20 62  1  0
 20 63  1  0
 20 64  1  0
 21 22  1  0
 22 23  1  0
 22 65  1  1
 23 24  1  0
 23 66  1  0
 23 67  1  0
 24 25  1  0
 24 68  1  1
 25 26  1  6
 26 69  1  0
 27 33  1  0
 27 28  1  0
 27 70  1  1
 28 29  1  0
 28 30  1  0
 28 71  1  6
 29 72  1  0
 30 31  1  0
 30 73  1  0
 30 74  1  0
 31 34  1  0
 31 32  1  0
 31 75  1  1
 33 32  1  1
 32 76  1  0
 32 77  1  0
 33 34  1  0
 34 35  1  0
 34 78  1  6
 35 79  1  0
M  END
>  <i_m_ct_stereo_status>  (406) 
1

>  <s_m_source_file>  (406) 
/var/tmp/pbs.5076255.sched01/tmpm28zzdm2/1449lyhn0we.sdf

>  <i_m_source_file_index>  (406) 
34

>  <i_lp_mmshare_version>  (406) 
48012

>  <i_f3d_flags>  (406) 
0

>  <s_epik_input>  (406) 
W09IXVtDQEhdMVtDQEhdKFtDSDJdMilbQ0gyXVtDQEhdKFtPSF0pW0NASF0oW0NAQF0xMjMpW0NAQF00KFtDSDNdKVtDQEBIXShbQ0gyXVtDQEhdM1tDSDNdKVtDQF01KFtPSF0pW0NASF0oW0NASF0oW09IXSlbQ0BASF00W09IXSlbQ0BdNihbQ0gzXSlbQ0BIXTVbQ0gyXVtDQEhdN1tDQEBIXShbQ0gyXVtDSDJdNilPQyhPNykoW0NIM10pW0NIM10=

>  <s_epik_cmdline>  (406) 
J2VwaWtfcHl0aG9uJywgJy1waHQnLCAnMi4wJywgJy1waCcsICc3LjAnLCAnLXRuJywgJzgnLCAnLW1hJywgJzIwMCcsICctaW1hZScsICc8aW5maWxlLm1hZT4nLCAnLW9tYWUnLCAnPG91dGZpbGUubWFlPic=

>  <r_lp_tautomer_probability>  (406) 
1

>  <r_epik_Ionization_Penalty>  (406) 
4.91666e-06

>  <r_epik_Ionization_Penalty_Charging>  (406) 
0

>  <r_epik_Ionization_Penalty_Neutral>  (406) 
4.91666e-06

>  <r_epik_State_Penalty>  (406) 
-0

>  <r_epik_Charging_Adjusted_Penalty>  (406) 
0

>  <i_epik_Tot_Q>  (406) 
0

>  <i_epik_Tot_abs_Q>  (406) 
0

>  <s_lp_Force_Field>  (406) 
OPLS3e

>  <r_lp_Energy>  (406) 
76.9589

>  <b_lp_Chiralities_Consistent>  (406) 
1

>  <s_lp_Variant>  (406) 
110:0-1

>  <s_i_glide_gridfile>  (406) 
pfpi4k_grid

>  <i_i_glide_lignum>  (406) 
34

>  <i_i_glide_rotatable_bonds>  (406) 
5

>  <r_i_docking_score>  (406) 
-2.79222

>  <r_i_glide_ligand_efficiency>  (406) 
-0.0797778

>  <r_i_glide_ligand_efficiency_sa>  (406) 
-0.260958

>  <r_i_glide_ligand_efficiency_ln>  (406) 
-0.612955

>  <r_i_glide_gscore>  (406) 
-2.79222

>  <r_i_glide_lipo>  (406) 
-0.394992

>  <r_i_glide_hbond>  (406) 
-0.275681

>  <r_i_glide_metal>  (406) 
-0

>  <r_i_glide_rewards>  (406) 
-0.0752173

>  <r_i_glide_evdw>  (406) 
-21.1357

>  <r_i_glide_ecoul>  (406) 
-6.59699

>  <r_i_glide_erotb>  (406) 
0

>  <r_i_glide_esite>  (406) 
0

>  <r_i_glide_emodel>  (406) 
-31.4013

>  <r_i_glide_energy>  (406) 
-27.7327

>  <r_i_glide_einternal>  (406) 
2.12305

>  <r_i_glide_intrahb_reward>  (406) 
-0

>  <i_i_glide_confnum>  (406) 
1

>  <i_i_glide_posenum>  (406) 
19

>  <r_i_glide_eff_state_penalty>  (406) 
0

>  <ligand_id>  (406) 
110

>  <original_smiles>  (406) 
CC1CC2C(C)(C(O)C(O)C3C4(C)CCC5OC(C)(C)OC5CC4C32O)C2C(O)CC3CC12C3O

>  <smiles>  (406) 
[H]OC1([H])C([H])(O[H])C2(C([H])([H])[H])C([H])(C([H])([H])C([H])(C([H])([H])[H])C34C([H])([H])C([H])(C([H])([H])C([H])(O[H])C23[H])C4([H])O[H])C2(O[H])C3([H])C([H])([H])C4([H])OC(C([H])([H])[H])(C([H])([H])[H])OC4([H])C([H])([H])C([H])([H])C3(C([H])([H])[H])C12[H]

$$$$
110:0:2
     RDKit          3D

 79 85  0  0  1  0  0  0  0  0999 V2000
    6.5308   -5.8009    4.8583 C   0  0  0  0  0  0  0  0  0  0  0  0
    5.2448   -6.6590    4.9403 C   0  0  2  0  0  0  0  0  0  0  0  0
    5.1262   -7.2582    6.3382 C   0  0  0  0  0  0  0  0  0  0  0  0
    3.7665   -7.9334    6.5995 C   0  0  2  0  0  0  0  0  0  0  0  0
    3.4259   -9.0462    5.5284 C   0  0  1  0  0  0  0  0  0  0  0  0
    4.2581  -10.2950    5.9407 C   0  0  0  0  0  0  0  0  0  0  0  0
    1.8961   -9.4303    5.5758 C   0  0  1  0  0  0  0  0  0  0  0  0
    1.6152  -10.7712    5.2114 O   0  0  0  0  0  0  0  0  0  0  0  0
    1.1079   -9.0765    6.8533 C   0  0  1  0  0  0  0  0  0  0  0  0
    1.5775   -9.8431    7.9474 O   0  0  0  0  0  0  0  0  0  0  0  0
    1.2484   -7.5904    7.2219 C   0  0  2  0  0  0  0  0  0  0  0  0
    0.5725   -6.4390    6.4096 C   0  0  1  0  0  0  0  0  0  0  0  0
   -0.3590   -6.8833    5.2605 C   0  0  0  0  0  0  0  0  0  0  0  0
   -0.2180   -5.4532    7.2960 C   0  0  0  0  0  0  0  0  0  0  0  0
   -0.6680   -4.0973    6.6917 C   0  0  0  0  0  0  0  0  0  0  0  0
   -0.0312   -3.5574    5.3846 C   0  0  1  0  0  0  0  0  0  0  0  0
   -0.3941   -2.1935    5.3020 O   0  0  0  0  0  0  0  0  0  0  0  0
    0.7693   -1.4277    5.2996 C   0  0  0  0  0  0  0  0  0  0  0  0
    0.8096   -0.6274    3.9892 C   0  0  0  0  0  0  0  0  0  0  0  0
    0.7786   -0.5300    6.5436 C   0  0  0  0  0  0  0  0  0  0  0  0
    1.8971   -2.2337    5.3775 O   0  0  0  0  0  0  0  0  0  0  0  0
    1.4939   -3.5667    5.1913 C   0  0  1  0  0  0  0  0  0  0  0  0
    2.3207   -4.4578    6.1224 C   0  0  0  0  0  0  0  0  0  0  0  0
    1.9876   -5.9568    6.0163 C   0  0  1  0  0  0  0  0  0  0  0  0
    2.6282   -6.9542    7.0084 C   0  0  2  0  0  0  0  0  0  0  0  0
    3.1115   -6.3322    8.1761 O   0  0  0  0  0  0  0  0  0  0  0  0
    3.7753   -8.5492    4.0529 C   0  0  2  0  0  0  0  0  0  0  0  0
    3.5635   -9.6209    2.9078 C   0  0  1  0  0  0  0  0  0  0  0  0
    2.3253   -9.3817    2.2665 O   0  0  0  0  0  0  0  0  0  0  0  0
    4.6634   -9.6714    1.8114 C   0  0  0  0  0  0  0  0  0  0  0  0
    5.7369   -8.6163    2.0327 C   0  0  1  0  0  0  0  0  0  0  0  0
    5.2112   -7.2326    2.3934 C   0  0  0  0  0  0  0  0  0  0  0  0
    5.1069   -7.7486    3.8520 C   0  0  1  0  0  0  0  0  0  0  0  0
    6.3586   -8.5585    3.4230 C   0  0  1  0  0  0  0  0  0  0  0  0
    6.6358   -9.7876    4.0425 O   0  0  0  0  0  0  0  0  0  0  0  0
    7.4400   -6.3822    5.0419 H   0  0  0  0  0  0  0  0  0  0  0  0
    6.5054   -5.0128    5.6155 H   0  0  0  0  0  0  0  0  0  0  0  0
    6.6405   -5.2909    3.8980 H   0  0  0  0  0  0  0  0  0  0  0  0
    4.4314   -5.9502    4.8016 H   0  0  0  0  0  0  0  0  0  0  0  0
    5.9248   -7.9893    6.4467 H   0  0  0  0  0  0  0  0  0  0  0  0
    5.3487   -6.4960    7.0850 H   0  0  0  0  0  0  0  0  0  0  0  0
    3.9540   -8.4915    7.5184 H   0  0  0  0  0  0  0  0  0  0  0  0
    4.2565  -11.0907    5.2002 H   0  0  0  0  0  0  0  0  0  0  0  0
    3.8622  -10.7413    6.8528 H   0  0  0  0  0  0  0  0  0  0  0  0
    5.2964  -10.0612    6.1548 H   0  0  0  0  0  0  0  0  0  0  0  0
    1.4080   -8.8719    4.7838 H   0  0  0  0  0  0  0  0  0  0  0  0
    1.7011  -11.3305    5.9792 H   0  0  0  0  0  0  0  0  0  0  0  0
    0.0550   -9.3315    6.7226 H   0  0  0  0  0  0  0  0  0  0  0  0
    1.4170  -10.7958    7.7923 H   0  0  0  0  0  0  0  0  0  0  0  0
    0.9588   -7.4512    8.2653 H   0  0  0  0  0  0  0  0  0  0  0  0
   -1.0526   -6.1113    4.9380 H   0  0  0  0  0  0  0  0  0  0  0  0
   -0.9745   -7.7417    5.5354 H   0  0  0  0  0  0  0  0  0  0  0  0
    0.1999   -7.1720    4.3737 H   0  0  0  0  0  0  0  0  0  0  0  0
   -1.0892   -5.9430    7.7310 H   0  0  0  0  0  0  0  0  0  0  0  0
    0.3949   -5.2030    8.1639 H   0  0  0  0  0  0  0  0  0  0  0  0
   -1.7432   -4.1646    6.5036 H   0  0  0  0  0  0  0  0  0  0  0  0
   -0.5686   -3.3398    7.4701 H   0  0  0  0  0  0  0  0  0  0  0  0
   -0.4760   -4.0555    4.5268 H   0  0  0  0  0  0  0  0  0  0  0  0
    0.7928   -1.3022    3.1334 H   0  0  0  0  0  0  0  0  0  0  0  0
    1.7146   -0.0169    3.9449 H   0  0  0  0  0  0  0  0  0  0  0  0
   -0.0619    0.0307    3.9330 H   0  0  0  0  0  0  0  0  0  0  0  0
    0.7779   -1.1439    7.4439 H   0  0  0  0  0  0  0  0  0  0  0  0
   -0.0952    0.1266    6.5490 H   0  0  0  0  0  0  0  0  0  0  0  0
    1.6836    0.0832    6.5471 H   0  0  0  0  0  0  0  0  0  0  0  0
    1.6970   -3.8280    4.1549 H   0  0  0  0  0  0  0  0  0  0  0  0
    3.3751   -4.2962    5.9132 H   0  0  0  0  0  0  0  0  0  0  0  0
    2.1837   -4.0931    7.1398 H   0  0  0  0  0  0  0  0  0  0  0  0
    2.1711   -6.3028    5.0114 H   0  0  0  0  0  0  0  0  0  0  0  0
    2.4634   -5.6914    8.4357 H   0  0  0  0  0  0  0  0  0  0  0  0
    3.0184   -7.7992    3.8285 H   0  0  0  0  0  0  0  0  0  0  0  0
    3.4870  -10.6290    3.3075 H   0  0  0  0  0  0  0  0  0  0  0  0
    1.6446   -9.7851    2.7875 H   0  0  0  0  0  0  0  0  0  0  0  0
    5.1291  -10.6573    1.8106 H   0  0  0  0  0  0  0  0  0  0  0  0
    4.2387   -9.5698    0.8114 H   0  0  0  0  0  0  0  0  0  0  0  0
    6.4939   -8.5726    1.2521 H   0  0  0  0  0  0  0  0  0  0  0  0
    5.9408   -6.4405    2.2164 H   0  0  0  0  0  0  0  0  0  0  0  0
    4.2526   -6.9969    1.9331 H   0  0  0  0  0  0  0  0  0  0  0  0
    7.2739   -7.9597    3.4168 H   0  0  0  0  0  0  0  0  0  0  0  0
    5.8389  -10.2978    3.9944 H   0  0  0  0  0  0  0  0  0  0  0  0
  1  2  1  0
  1 36  1  0
  1 37  1  0
  1 38  1  0
  2 33  1  0
  2  3  1  0
  2 39  1  6
  3  4  1  0
  3 40  1  0
  3 41  1  0
  4 25  1  0
  4  5  1  0
  4 42  1  1
  5  6  1  1
  5  7  1  0
  5 27  1  0
  6 43  1  0
  6 44  1  0
  6 45  1  0
  7  8  1  0
  7  9  1  0
  7 46  1  6
  8 47  1  0
  9 10  1  0
  9 11  1  0
  9 48  1  6
 10 49  1  0
 11 25  1  0
 11 12  1  0
 11 50  1  1
 12 24  1  0
 12 13  1  6
 12 14  1  0
 13 51  1  0
 13 52  1  0
 13 53  1  0
 14 15  1  0
 14 54  1  0
 14 55  1  0
 15 16  1  0
 15 56  1  0
 15 57  1  0
 16 22  1  0
 16 17  1  0
 16 58  1  6
 17 18  1  0
 18 19  1  0
 18 20  1  0
 18 21  1  0
 19 59  1  0
 19 60  1  0
 19 61  1  0
 20 62  1  0
 20 63  1  0
 20 64  1  0
 21 22  1  0
 22 23  1  0
 22 65  1  6
 23 24  1  0
 23 66  1  0
 23 67  1  0
 24 25  1  0
 24 68  1  6
 25 26  1  1
 26 69  1  0
 27 33  1  0
 27 28  1  0
 27 70  1  6
 28 29  1  0
 28 30  1  0
 28 71  1  1
 29 72  1  0
 30 31  1  0
 30 73  1  0
 30 74  1  0
 31 34  1  0
 31 32  1  0
 31 75  1  6
 33 32  1  6
 32 76  1  0
 32 77  1  0
 33 34  1  0
 34 35  1  0
 34 78  1  6
 35 79  1  0
M  END
>  <i_m_ct_stereo_status>  (407) 
1

>  <s_m_source_file>  (407) 
/var/tmp/pbs.5076255.sched01/tmpm28zzdm2/1449lyhn0we.sdf

>  <i_m_source_file_index>  (407) 
34

>  <i_lp_mmshare_version>  (407) 
48012

>  <i_f3d_flags>  (407) 
0

>  <s_epik_input>  (407) 
W09IXVtDQEhdMVtDQEhdKFtDSDJdMilbQ0gyXVtDQEhdKFtPSF0pW0NASF0oW0NAQF0xMjMpW0NAQF00KFtDSDNdKVtDQEBIXShbQ0gyXVtDQEhdM1tDSDNdKVtDQF01KFtPSF0pW0NASF0oW0NASF0oW09IXSlbQ0BASF00W09IXSlbQ0BdNihbQ0gzXSlbQ0BIXTVbQ0gyXVtDQEhdN1tDQEBIXShbQ0gyXVtDSDJdNilPQyhPNykoW0NIM10pW0NIM10=

>  <s_epik_cmdline>  (407) 
J2VwaWtfcHl0aG9uJywgJy1waHQnLCAnMi4wJywgJy1waCcsICc3LjAnLCAnLXRuJywgJzgnLCAnLW1hJywgJzIwMCcsICctaW1hZScsICc8aW5maWxlLm1hZT4nLCAnLW9tYWUnLCAnPG91dGZpbGUubWFlPic=

>  <r_lp_tautomer_probability>  (407) 
1

>  <r_epik_Ionization_Penalty>  (407) 
4.91666e-06

>  <r_epik_Ionization_Penalty_Charging>  (407) 
0

>  <r_epik_Ionization_Penalty_Neutral>  (407) 
4.91666e-06

>  <r_epik_State_Penalty>  (407) 
-0

>  <r_epik_Charging_Adjusted_Penalty>  (407) 
0

>  <i_epik_Tot_Q>  (407) 
0

>  <i_epik_Tot_abs_Q>  (407) 
0

>  <s_lp_Force_Field>  (407) 
OPLS3e

>  <r_lp_Energy>  (407) 
76.9589

>  <b_lp_Chiralities_Consistent>  (407) 
1

>  <s_lp_Variant>  (407) 
110:0-1

>  <s_i_glide_gridfile>  (407) 
pfpi4k_grid

>  <i_i_glide_lignum>  (407) 
34

>  <i_i_glide_rotatable_bonds>  (407) 
5

>  <r_i_docking_score>  (407) 
-2.27148

>  <r_i_glide_ligand_efficiency>  (407) 
-0.0648995

>  <r_i_glide_ligand_efficiency_sa>  (407) 
-0.212291

>  <r_i_glide_ligand_efficiency_ln>  (407) 
-0.498641

>  <r_i_glide_gscore>  (407) 
-2.27148

>  <r_i_glide_lipo>  (407) 
-0.0790902

>  <r_i_glide_hbond>  (407) 
0

>  <r_i_glide_metal>  (407) 
-0

>  <r_i_glide_rewards>  (407) 
-0.0501494

>  <r_i_glide_evdw>  (407) 
-14.7691

>  <r_i_glide_ecoul>  (407) 
-9.32892

>  <r_i_glide_erotb>  (407) 
0

>  <r_i_glide_esite>  (407) 
-0.00445054

>  <r_i_glide_emodel>  (407) 
-27.2443

>  <r_i_glide_energy>  (407) 
-24.098

>  <r_i_glide_einternal>  (407) 
1.2772

>  <r_i_glide_intrahb_reward>  (407) 
-0

>  <i_i_glide_confnum>  (407) 
2

>  <i_i_glide_posenum>  (407) 
2

>  <r_i_glide_eff_state_penalty>  (407) 
0

>  <ligand_id>  (407) 
110

>  <original_smiles>  (407) 
CC1CC2C(C)(C(O)C(O)C3C4(C)CCC5OC(C)(C)OC5CC4C32O)C2C(O)CC3CC12C3O

>  <smiles>  (407) 
[H]OC1([H])C([H])(O[H])C2(C([H])([H])[H])C([H])(C([H])([H])C([H])(C([H])([H])[H])C34C([H])([H])C([H])(C([H])([H])C([H])(O[H])C23[H])C4([H])O[H])C2(O[H])C3([H])C([H])([H])C4([H])OC(C([H])([H])[H])(C([H])([H])[H])OC4([H])C([H])([H])C([H])([H])C3(C([H])([H])[H])C12[H]

$$$$
111:0:0
     RDKit          3D

 33 37  0  0  1  0  0  0  0  0999 V2000
    4.7427    0.0038    0.7613 O   0  0  0  0  0  0  0  0  0  0  0  0
    3.7945   -0.8706    0.1853 C   0  0  2  0  0  0  0  0  0  0  0  0
    3.3272   -1.9324    1.1609 C   0  0  0  0  0  0  0  0  0  0  0  0
    3.8869   -3.2281    1.0680 C   0  0  0  0  0  0  0  0  0  0  0  0
    3.4966   -4.2668    1.9622 C   0  0  0  0  0  0  0  0  0  0  0  0
    2.5396   -4.0423    2.9807 C   0  0  0  0  0  0  0  0  0  0  0  0
    2.0102   -2.7416    3.0344 C   0  0  0  0  0  0  0  0  0  0  0  0
    0.7820   -2.2545    4.2189 S   0  0  0  0  0  0  0  0  0  0  0  0
    0.8133   -0.6430    3.4992 C   0  0  0  0  0  0  0  0  0  0  0  0
   -0.0896    0.7847    3.8842 S   0  0  0  0  0  0  0  0  0  0  0  0
    0.7346    1.6697    2.5928 C   0  0  0  0  0  0  0  0  0  0  0  0
    1.6362    0.8893    1.9191 C   0  0  0  0  0  0  0  0  0  0  0  0
    1.6576   -0.4247    2.4517 C   0  0  0  0  0  0  0  0  0  0  0  0
    2.3590   -1.6415    2.1621 C   0  0  0  0  0  0  0  0  0  0  0  0
    4.8020   -3.5347    0.0743 O   0  0  0  0  0  0  0  0  0  0  0  0
    5.4110   -2.4814   -0.6235 C   0  0  1  0  0  0  0  0  0  0  0  0
    5.8357   -3.0517   -1.9686 C   0  0  0  0  0  0  0  0  0  0  0  0
    4.5816   -2.8601   -2.8309 C   0  0  0  0  0  0  0  0  0  0  0  0
    3.6496   -1.9220   -2.0319 C   0  0  0  0  0  0  0  0  0  0  0  0
    4.4962   -1.4315   -0.9552 N   0  0  0  0  0  0  0  0  0  0  0  0
    4.8504    0.7572    0.1910 H   0  0  0  0  0  0  0  0  0  0  0  0
    2.9183   -0.3255   -0.1731 H   0  0  0  0  0  0  0  0  0  0  0  0
    3.9486   -5.2388    1.8550 H   0  0  0  0  0  0  0  0  0  0  0  0
    2.2342   -4.8259    3.6669 H   0  0  0  0  0  0  0  0  0  0  0  0
    0.5030    2.7082    2.3902 H   0  0  0  0  0  0  0  0  0  0  0  0
    2.2507    1.2028    1.0909 H   0  0  0  0  0  0  0  0  0  0  0  0
    6.2522   -2.1115   -0.0358 H   0  0  0  0  0  0  0  0  0  0  0  0
    6.6571   -2.4574   -2.3579 H   0  0  0  0  0  0  0  0  0  0  0  0
    6.1519   -4.0878   -1.8847 H   0  0  0  0  0  0  0  0  0  0  0  0
    4.8349   -2.4269   -3.7993 H   0  0  0  0  0  0  0  0  0  0  0  0
    4.0879   -3.8143   -3.0312 H   0  0  0  0  0  0  0  0  0  0  0  0
    3.2324   -1.1158   -2.6421 H   0  0  0  0  0  0  0  0  0  0  0  0
    2.8171   -2.5010   -1.6220 H   0  0  0  0  0  0  0  0  0  0  0  0
  1  2  1  0
  1 21  1  0
  2 20  1  0
  2  3  1  0
  2 22  1  6
  3 14  2  0
  3  4  1  0
  4  5  2  0
  4 15  1  0
  5  6  1  0
  5 23  1  0
  6  7  2  0
  6 24  1  0
  7 14  1  0
  7  8  1  0
  8  9  1  0
  9 13  2  0
  9 10  1  0
 10 11  1  0
 11 12  2  0
 11 25  1  0
 12 13  1  0
 12 26  1  0
 13 14  1  0
 15 16  1  0
 16 20  1  0
 16 17  1  0
 16 27  1  1
 17 18  1  0
 17 28  1  0
 17 29  1  0
 18 19  1  0
 18 30  1  0
 18 31  1  0
 19 20  1  0
 19 32  1  0
 19 33  1  0
M  END
>  <i_m_ct_stereo_status>  (408) 
1

>  <s_m_source_file>  (408) 
/var/tmp/pbs.5076255.sched01/tmpm28zzdm2/1449lyhn0we.sdf

>  <i_m_source_file_index>  (408) 
35

>  <i_lp_mmshare_version>  (408) 
48012

>  <i_f3d_flags>  (408) 
0

>  <s_epik_input>  (408) 
W0NIMl0xW0NIMl1bQ0gyXU4oW0NAQEhdMltPSF0pW0NASF0xT2MoYzIzKVtjSF1bY0hdYzRjM2M1YyhzNClzW2NIXVtjSF01

>  <s_epik_cmdline>  (408) 
J2VwaWtfcHl0aG9uJywgJy1waHQnLCAnMi4wJywgJy1waCcsICc3LjAnLCAnLXRuJywgJzgnLCAnLW1hJywgJzIwMCcsICctaW1hZScsICc8aW5maWxlLm1hZT4nLCAnLW9tYWUnLCAnPG91dGZpbGUubWFlPic=

>  <r_epik_Ionization_Penalty>  (408) 
0.0380433

>  <r_epik_Ionization_Penalty_Charging>  (408) 
0

>  <r_epik_Ionization_Penalty_Neutral>  (408) 
0.0380433

>  <r_epik_State_Penalty>  (408) 
0.00765128

>  <r_epik_Charging_Adjusted_Penalty>  (408) 
0.00765128

>  <i_epik_Tot_Q>  (408) 
0

>  <i_epik_Tot_abs_Q>  (408) 
0

>  <s_epik_Chemistry_Notes>  (408) 
This compound contains an acetal/aminal-like group ( X-CH(R)-Y where X, Y are N, S, or O) that may be acid/base labile, releasing an aldehyde.

>  <s_lp_Force_Field>  (408) 
OPLS3e

>  <r_lp_Energy>  (408) 
30.951

>  <b_lp_Chiralities_Consistent>  (408) 
1

>  <s_lp_Variant>  (408) 
111:0-1

>  <s_i_glide_gridfile>  (408) 
pfpi4k_grid

>  <i_i_glide_lignum>  (408) 
35

>  <i_i_glide_rotatable_bonds>  (408) 
1

>  <r_i_docking_score>  (408) 
-3.64997

>  <r_i_glide_ligand_efficiency>  (408) 
-0.182498

>  <r_i_glide_ligand_efficiency_sa>  (408) 
-0.495377

>  <r_i_glide_ligand_efficiency_ln>  (408) 
-0.913467

>  <r_i_glide_gscore>  (408) 
-3.64997

>  <r_i_glide_lipo>  (408) 
-0.255085

>  <r_i_glide_hbond>  (408) 
-0.331629

>  <r_i_glide_metal>  (408) 
-0

>  <r_i_glide_rewards>  (408) 
-1.34045

>  <r_i_glide_evdw>  (408) 
-24.4242

>  <r_i_glide_ecoul>  (408) 
-3.07184

>  <r_i_glide_erotb>  (408) 
0

>  <r_i_glide_esite>  (408) 
-0.0408242

>  <r_i_glide_emodel>  (408) 
-34.0562

>  <r_i_glide_energy>  (408) 
-27.496

>  <r_i_glide_einternal>  (408) 
0.512802

>  <r_i_glide_intrahb_reward>  (408) 
-0

>  <i_i_glide_confnum>  (408) 
2

>  <i_i_glide_posenum>  (408) 
5

>  <r_i_glide_eff_state_penalty>  (408) 
0

>  <ligand_id>  (408) 
111

>  <original_smiles>  (408) 
OC1c2c(ccc3sc4sccc4c23)OC2CCCN21

>  <smiles>  (408) 
[H]OC1([H])c2c(c([H])c([H])c3sc4sc([H])c([H])c4c23)OC2([H])N1C([H])([H])C([H])([H])C2([H])[H]

$$$$
111:0:1
     RDKit          3D

 33 37  0  0  1  0  0  0  0  0999 V2000
    2.3738    0.0035    0.9087 O   0  0  0  0  0  0  0  0  0  0  0  0
    2.3063   -0.7166    2.1146 C   0  0  2  0  0  0  0  0  0  0  0  0
    2.8509    0.1168    3.2659 C   0  0  0  0  0  0  0  0  0  0  0  0
    4.1893   -0.1120    3.7102 C   0  0  0  0  0  0  0  0  0  0  0  0
    4.7472    0.6391    4.7794 C   0  0  0  0  0  0  0  0  0  0  0  0
    4.0111    1.6570    5.4389 C   0  0  0  0  0  0  0  0  0  0  0  0
    2.7049    1.8548    4.9509 C   0  0  0  0  0  0  0  0  0  0  0  0
    1.6032    3.0552    5.6402 S   0  0  0  0  0  0  0  0  0  0  0  0
    0.4009    2.5289    4.4566 C   0  0  0  0  0  0  0  0  0  0  0  0
   -1.2180    3.0867    4.2054 S   0  0  0  0  0  0  0  0  0  0  0  0
   -1.4159    1.9293    2.8794 C   0  0  0  0  0  0  0  0  0  0  0  0
   -0.2796    1.1708    2.6563 C   0  0  0  0  0  0  0  0  0  0  0  0
    0.7268    1.5508    3.5931 C   0  0  0  0  0  0  0  0  0  0  0  0
    2.0782    1.1228    3.8694 C   0  0  0  0  0  0  0  0  0  0  0  0
    4.9593   -1.1010    3.1290 O   0  0  0  0  0  0  0  0  0  0  0  0
    4.5520   -1.6405    1.8961 C   0  0  1  0  0  0  0  0  0  0  0  0
    5.1708   -3.0354    1.8346 C   0  0  0  0  0  0  0  0  0  0  0  0
    4.1157   -3.9035    2.5327 C   0  0  0  0  0  0  0  0  0  0  0  0
    2.8535   -3.0300    2.6683 C   0  0  0  0  0  0  0  0  0  0  0  0
    3.1349   -1.8738    1.8434 N   0  0  0  0  0  0  0  0  0  0  0  0
    1.6762   -0.3114    0.3189 H   0  0  0  0  0  0  0  0  0  0  0  0
    1.2803   -1.0417    2.3431 H   0  0  0  0  0  0  0  0  0  0  0  0
    5.7623    0.4270    5.0916 H   0  0  0  0  0  0  0  0  0  0  0  0
    4.4139    2.2362    6.2630 H   0  0  0  0  0  0  0  0  0  0  0  0
   -2.3408    1.8689    2.3222 H   0  0  0  0  0  0  0  0  0  0  0  0
   -0.1574    0.4235    1.8942 H   0  0  0  0  0  0  0  0  0  0  0  0
    4.8969   -0.9923    1.0786 H   0  0  0  0  0  0  0  0  0  0  0  0
    5.2565   -3.3382    0.7945 H   0  0  0  0  0  0  0  0  0  0  0  0
    6.1584   -3.0824    2.3009 H   0  0  0  0  0  0  0  0  0  0  0  0
    3.9029   -4.8017    1.9544 H   0  0  0  0  0  0  0  0  0  0  0  0
    4.4555   -4.2416    3.5132 H   0  0  0  0  0  0  0  0  0  0  0  0
    1.9396   -3.5421    2.3630 H   0  0  0  0  0  0  0  0  0  0  0  0
    2.7445   -2.7135    3.7041 H   0  0  0  0  0  0  0  0  0  0  0  0
  1  2  1  0
  1 21  1  0
  2 20  1  0
  2  3  1  0
  2 22  1  1
  3 14  2  0
  3  4  1  0
  4  5  2  0
  4 15  1  0
  5  6  1  0
  5 23  1  0
  6  7  2  0
  6 24  1  0
  7 14  1  0
  7  8  1  0
  8  9  1  0
  9 13  2  0
  9 10  1  0
 10 11  1  0
 11 12  2  0
 11 25  1  0
 12 13  1  0
 12 26  1  0
 13 14  1  0
 15 16  1  0
 16 20  1  0
 16 17  1  0
 16 27  1  6
 17 18  1  0
 17 28  1  0
 17 29  1  0
 18 19  1  0
 18 30  1  0
 18 31  1  0
 19 20  1  0
 19 32  1  0
 19 33  1  0
M  END
>  <i_m_ct_stereo_status>  (409) 
1

>  <s_m_source_file>  (409) 
/var/tmp/pbs.5076255.sched01/tmpm28zzdm2/1449lyhn0we.sdf

>  <i_m_source_file_index>  (409) 
35

>  <i_lp_mmshare_version>  (409) 
48012

>  <i_f3d_flags>  (409) 
0

>  <s_epik_input>  (409) 
W0NIMl0xW0NIMl1bQ0gyXU4oW0NAQEhdMltPSF0pW0NASF0xT2MoYzIzKVtjSF1bY0hdYzRjM2M1YyhzNClzW2NIXVtjSF01

>  <s_epik_cmdline>  (409) 
J2VwaWtfcHl0aG9uJywgJy1waHQnLCAnMi4wJywgJy1waCcsICc3LjAnLCAnLXRuJywgJzgnLCAnLW1hJywgJzIwMCcsICctaW1hZScsICc8aW5maWxlLm1hZT4nLCAnLW9tYWUnLCAnPG91dGZpbGUubWFlPic=

>  <r_epik_Ionization_Penalty>  (409) 
0.0380433

>  <r_epik_Ionization_Penalty_Charging>  (409) 
0

>  <r_epik_Ionization_Penalty_Neutral>  (409) 
0.0380433

>  <r_epik_State_Penalty>  (409) 
0.00765128

>  <r_epik_Charging_Adjusted_Penalty>  (409) 
0.00765128

>  <i_epik_Tot_Q>  (409) 
0

>  <i_epik_Tot_abs_Q>  (409) 
0

>  <s_epik_Chemistry_Notes>  (409) 
This compound contains an acetal/aminal-like group ( X-CH(R)-Y where X, Y are N, S, or O) that may be acid/base labile, releasing an aldehyde.

>  <s_lp_Force_Field>  (409) 
OPLS3e

>  <r_lp_Energy>  (409) 
30.951

>  <b_lp_Chiralities_Consistent>  (409) 
1

>  <s_lp_Variant>  (409) 
111:0-1

>  <s_i_glide_gridfile>  (409) 
pfpi4k_grid

>  <i_i_glide_lignum>  (409) 
35

>  <i_i_glide_rotatable_bonds>  (409) 
1

>  <r_i_docking_score>  (409) 
-3.43279

>  <r_i_glide_ligand_efficiency>  (409) 
-0.171639

>  <r_i_glide_ligand_efficiency_sa>  (409) 
-0.465901

>  <r_i_glide_ligand_efficiency_ln>  (409) 
-0.859113

>  <r_i_glide_gscore>  (409) 
-3.43279

>  <r_i_glide_lipo>  (409) 
-0.117647

>  <r_i_glide_hbond>  (409) 
-0.16

>  <r_i_glide_metal>  (409) 
-0

>  <r_i_glide_rewards>  (409) 
-1.38496

>  <r_i_glide_evdw>  (409) 
-16.0979

>  <r_i_glide_ecoul>  (409) 
-6.17467

>  <r_i_glide_erotb>  (409) 
0

>  <r_i_glide_esite>  (409) 
-0.0390855

>  <r_i_glide_emodel>  (409) 
-28.4391

>  <r_i_glide_energy>  (409) 
-22.2725

>  <r_i_glide_einternal>  (409) 
0.567598

>  <r_i_glide_intrahb_reward>  (409) 
-0

>  <i_i_glide_confnum>  (409) 
2

>  <i_i_glide_posenum>  (409) 
3

>  <r_i_glide_eff_state_penalty>  (409) 
0

>  <ligand_id>  (409) 
111

>  <original_smiles>  (409) 
OC1c2c(ccc3sc4sccc4c23)OC2CCCN21

>  <smiles>  (409) 
[H]OC1([H])c2c(c([H])c([H])c3sc4sc([H])c([H])c4c23)OC2([H])N1C([H])([H])C([H])([H])C2([H])[H]

$$$$
111:0:2
     RDKit          3D

 33 37  0  0  1  0  0  0  0  0999 V2000
   -2.3206    2.5054    4.1645 O   0  0  0  0  0  0  0  0  0  0  0  0
   -1.1456    1.9936    4.7689 C   0  0  2  0  0  0  0  0  0  0  0  0
   -0.1993    3.1047    5.1703 C   0  0  0  0  0  0  0  0  0  0  0  0
    0.9250    3.3678    4.3456 C   0  0  0  0  0  0  0  0  0  0  0  0
    1.8319    4.4209    4.6439 C   0  0  0  0  0  0  0  0  0  0  0  0
    1.6537    5.2516    5.7705 C   0  0  0  0  0  0  0  0  0  0  0  0
    0.5309    4.9565    6.5609 C   0  0  0  0  0  0  0  0  0  0  0  0
    0.1184    5.8604    8.0333 S   0  0  0  0  0  0  0  0  0  0  0  0
   -1.2819    4.8034    8.2292 C   0  0  0  0  0  0  0  0  0  0  0  0
   -2.5219    4.7722    9.4472 S   0  0  0  0  0  0  0  0  0  0  0  0
   -3.2912    3.4079    8.6341 C   0  0  0  0  0  0  0  0  0  0  0  0
   -2.6236    3.0250    7.4931 C   0  0  0  0  0  0  0  0  0  0  0  0
   -1.4762    3.8379    7.2954 C   0  0  0  0  0  0  0  0  0  0  0  0
   -0.4277    3.9041    6.3149 C   0  0  0  0  0  0  0  0  0  0  0  0
    1.1929    2.5816    3.2487 O   0  0  0  0  0  0  0  0  0  0  0  0
    0.1771    1.7435    2.7562 C   0  0  1  0  0  0  0  0  0  0  0  0
    0.8774    0.6143    2.0160 C   0  0  0  0  0  0  0  0  0  0  0  0
    1.1454   -0.4068    3.1263 C   0  0  0  0  0  0  0  0  0  0  0  0
    0.3157    0.0548    4.3433 C   0  0  0  0  0  0  0  0  0  0  0  0
   -0.5618    1.0850    3.7948 N   0  0  0  0  0  0  0  0  0  0  0  0
   -2.7218    1.8180    3.6503 H   0  0  0  0  0  0  0  0  0  0  0  0
   -1.3993    1.4039    5.6495 H   0  0  0  0  0  0  0  0  0  0  0  0
    2.6738    4.5832    3.9903 H   0  0  0  0  0  0  0  0  0  0  0  0
    2.3398    6.0514    6.0177 H   0  0  0  0  0  0  0  0  0  0  0  0
   -4.1964    2.9951    9.0539 H   0  0  0  0  0  0  0  0  0  0  0  0
   -2.9315    2.2295    6.8337 H   0  0  0  0  0  0  0  0  0  0  0  0
   -0.4746    2.3253    2.1030 H   0  0  0  0  0  0  0  0  0  0  0  0
    0.1921    0.1934    1.2814 H   0  0  0  0  0  0  0  0  0  0  0  0
    1.7728    0.9538    1.4986 H   0  0  0  0  0  0  0  0  0  0  0  0
    0.8529   -1.4094    2.8126 H   0  0  0  0  0  0  0  0  0  0  0  0
    2.2061   -0.4505    3.3790 H   0  0  0  0  0  0  0  0  0  0  0  0
   -0.2380   -0.7622    4.8118 H   0  0  0  0  0  0  0  0  0  0  0  0
    0.9851    0.4894    5.0903 H   0  0  0  0  0  0  0  0  0  0  0  0
  1  2  1  0
  1 21  1  0
  2 20  1  0
  2  3  1  0
  2 22  1  1
  3 14  2  0
  3  4  1  0
  4  5  2  0
  4 15  1  0
  5  6  1  0
  5 23  1  0
  6  7  2  0
  6 24  1  0
  7 14  1  0
  7  8  1  0
  8  9  1  0
  9 13  2  0
  9 10  1  0
 10 11  1  0
 11 12  2  0
 11 25  1  0
 12 13  1  0
 12 26  1  0
 13 14  1  0
 15 16  1  0
 16 20  1  0
 16 17  1  0
 16 27  1  6
 17 18  1  0
 17 28  1  0
 17 29  1  0
 18 19  1  0
 18 30  1  0
 18 31  1  0
 19 20  1  0
 19 32  1  0
 19 33  1  0
M  END
>  <i_m_ct_stereo_status>  (410) 
1

>  <s_m_source_file>  (410) 
/var/tmp/pbs.5076255.sched01/tmpm28zzdm2/1449lyhn0we.sdf

>  <i_m_source_file_index>  (410) 
35

>  <i_lp_mmshare_version>  (410) 
48012

>  <i_f3d_flags>  (410) 
0

>  <s_epik_input>  (410) 
W0NIMl0xW0NIMl1bQ0gyXU4oW0NAQEhdMltPSF0pW0NASF0xT2MoYzIzKVtjSF1bY0hdYzRjM2M1YyhzNClzW2NIXVtjSF01

>  <s_epik_cmdline>  (410) 
J2VwaWtfcHl0aG9uJywgJy1waHQnLCAnMi4wJywgJy1waCcsICc3LjAnLCAnLXRuJywgJzgnLCAnLW1hJywgJzIwMCcsICctaW1hZScsICc8aW5maWxlLm1hZT4nLCAnLW9tYWUnLCAnPG91dGZpbGUubWFlPic=

>  <r_epik_Ionization_Penalty>  (410) 
0.0380433

>  <r_epik_Ionization_Penalty_Charging>  (410) 
0

>  <r_epik_Ionization_Penalty_Neutral>  (410) 
0.0380433

>  <r_epik_State_Penalty>  (410) 
0.00765128

>  <r_epik_Charging_Adjusted_Penalty>  (410) 
0.00765128

>  <i_epik_Tot_Q>  (410) 
0

>  <i_epik_Tot_abs_Q>  (410) 
0

>  <s_epik_Chemistry_Notes>  (410) 
This compound contains an acetal/aminal-like group ( X-CH(R)-Y where X, Y are N, S, or O) that may be acid/base labile, releasing an aldehyde.

>  <s_lp_Force_Field>  (410) 
OPLS3e

>  <r_lp_Energy>  (410) 
30.951

>  <b_lp_Chiralities_Consistent>  (410) 
1

>  <s_lp_Variant>  (410) 
111:0-1

>  <s_i_glide_gridfile>  (410) 
pfpi4k_grid

>  <i_i_glide_lignum>  (410) 
35

>  <i_i_glide_rotatable_bonds>  (410) 
1

>  <r_i_docking_score>  (410) 
-3.23504

>  <r_i_glide_ligand_efficiency>  (410) 
-0.161752

>  <r_i_glide_ligand_efficiency_sa>  (410) 
-0.439062

>  <r_i_glide_ligand_efficiency_ln>  (410) 
-0.809623

>  <r_i_glide_gscore>  (410) 
-3.23504

>  <r_i_glide_lipo>  (410) 
-0.24631

>  <r_i_glide_hbond>  (410) 
-0.163607

>  <r_i_glide_metal>  (410) 
-0

>  <r_i_glide_rewards>  (410) 
-1.34045

>  <r_i_glide_evdw>  (410) 
-22.4079

>  <r_i_glide_ecoul>  (410) 
-1.92033

>  <r_i_glide_erotb>  (410) 
0

>  <r_i_glide_esite>  (410) 
-0.0762295

>  <r_i_glide_emodel>  (410) 
-30.128

>  <r_i_glide_energy>  (410) 
-24.3282

>  <r_i_glide_einternal>  (410) 
0.545091

>  <r_i_glide_intrahb_reward>  (410) 
-0

>  <i_i_glide_confnum>  (410) 
2

>  <i_i_glide_posenum>  (410) 
18

>  <r_i_glide_eff_state_penalty>  (410) 
0

>  <ligand_id>  (410) 
111

>  <original_smiles>  (410) 
OC1c2c(ccc3sc4sccc4c23)OC2CCCN21

>  <smiles>  (410) 
[H]OC1([H])c2c(c([H])c([H])c3sc4sc([H])c([H])c4c23)OC2([H])N1C([H])([H])C([H])([H])C2([H])[H]

$$$$
111:1:0
     RDKit          3D

 33 37  0  0  1  0  0  0  0  0999 V2000
    5.9443   -1.2199   -0.4300 O   0  0  0  0  0  0  0  0  0  0  0  0
    4.7509   -1.7691   -0.3090 C   0  0  2  0  0  0  0  0  0  0  0  0
    4.8098   -2.9827    0.6426 C   0  0  0  0  0  0  0  0  0  0  0  0
    4.7872   -4.2920    0.0730 C   0  0  0  0  0  0  0  0  0  0  0  0
    4.8172   -5.4609    0.8593 C   0  0  0  0  0  0  0  0  0  0  0  0
    4.8977   -5.4217    2.2491 C   0  0  0  0  0  0  0  0  0  0  0  0
    4.9280   -4.1405    2.7940 C   0  0  0  0  0  0  0  0  0  0  0  0
    5.0095   -3.8977    4.5385 S   0  0  0  0  0  0  0  0  0  0  0  0
    4.9766   -2.1720    4.2553 C   0  0  0  0  0  0  0  0  0  0  0  0
    5.0085   -0.8519    5.3857 S   0  0  0  0  0  0  0  0  0  0  0  0
    4.9421    0.2714    4.0331 C   0  0  0  0  0  0  0  0  0  0  0  0
    4.8965   -0.3534    2.7998 C   0  0  0  0  0  0  0  0  0  0  0  0
    4.9201   -1.7607    2.9583 C   0  0  0  0  0  0  0  0  0  0  0  0
    4.8825   -2.8928    2.0652 C   0  0  0  0  0  0  0  0  0  0  0  0
    4.7059   -4.4957   -1.2696 O   0  0  0  0  0  0  0  0  0  0  0  0
    5.2232   -3.5092   -2.0975 C   0  0  1  0  0  0  0  0  0  0  0  0
    4.6132   -3.6859   -3.4984 C   0  0  0  0  0  0  0  0  0  0  0  0
    3.2229   -3.0343   -3.5101 C   0  0  0  0  0  0  0  0  0  0  0  0
    3.1097   -2.2415   -2.2063 C   0  0  0  0  0  0  0  0  0  0  0  0
    4.5014   -2.1466   -1.7183 N   0  0  1  0  0  0  0  0  0  0  0  0
    3.8760   -1.1998    0.0117 H   0  0  0  0  0  0  0  0  0  0  0  0
    4.7839   -6.4092    0.3573 H   0  0  0  0  0  0  0  0  0  0  0  0
    4.9365   -6.3067    2.8578 H   0  0  0  0  0  0  0  0  0  0  0  0
    4.9420    1.3278    4.2623 H   0  0  0  0  0  0  0  0  0  0  0  0
    4.8530    0.1451    1.8425 H   0  0  0  0  0  0  0  0  0  0  0  0
    6.3179   -3.4744   -2.0675 H   0  0  0  0  0  0  0  0  0  0  0  0
    5.2452   -3.2086   -4.2334 H   0  0  0  0  0  0  0  0  0  0  0  0
    4.5720   -4.7424   -3.7590 H   0  0  0  0  0  0  0  0  0  0  0  0
    3.1246   -2.3757   -4.3735 H   0  0  0  0  0  0  0  0  0  0  0  0
    2.4201   -3.7686   -3.5802 H   0  0  0  0  0  0  0  0  0  0  0  0
    2.6542   -1.2538   -2.3386 H   0  0  0  0  0  0  0  0  0  0  0  0
    2.5182   -2.7999   -1.4805 H   0  0  0  0  0  0  0  0  0  0  0  0
    4.9384   -1.3927   -2.2284 H   0  0  0  0  0  0  0  0  0  0  0  0
  1  2  1  0
  2 20  1  0
  2  3  1  0
  2 21  1  1
  3 14  2  0
  3  4  1  0
  4  5  2  0
  4 15  1  0
  5  6  1  0
  5 22  1  0
  6  7  2  0
  6 23  1  0
  7 14  1  0
  7  8  1  0
  8  9  1  0
  9 13  2  0
  9 10  1  0
 10 11  1  0
 11 12  2  0
 11 24  1  0
 12 13  1  0
 12 25  1  0
 13 14  1  0
 15 16  1  0
 16 20  1  0
 16 17  1  0
 16 26  1  6
 17 18  1  0
 17 27  1  0
 17 28  1  0
 18 19  1  0
 18 29  1  0
 18 30  1  0
 19 20  1  0
 19 31  1  0
 19 32  1  0
 20 33  1  6
M  CHG  2   1  -1  20   1
M  END
>  <i_m_ct_stereo_status>  (411) 
1

>  <s_m_source_file>  (411) 
/var/tmp/pbs.5076255.sched01/tmpm28zzdm2/1449lyhn0we.sdf

>  <i_m_source_file_index>  (411) 
36

>  <i_lp_mmshare_version>  (411) 
48012

>  <i_f3d_flags>  (411) 
0

>  <s_epik_input>  (411) 
W0NIMl0xW0NIMl1bQ0gyXU4oW0NAQEhdMltPSF0pW0NASF0xT2MoYzIzKVtjSF1bY0hdYzRjM2M1YyhzNClzW2NIXVtjSF01

>  <s_epik_cmdline>  (411) 
J2VwaWtfcHl0aG9uJywgJy1waHQnLCAnMi4wJywgJy1waCcsICc3LjAnLCAnLXRuJywgJzgnLCAnLW1hJywgJzIwMCcsICctaW1hZScsICc8aW5maWxlLm1hZT4nLCAnLW9tYWUnLCAnPG91dGZpbGUubWFlPic=

>  <r_epik_Ionization_Penalty>  (411) 
0.00503436

>  <r_epik_Ionization_Penalty_Charging>  (411) 
0.00503436

>  <r_epik_Ionization_Penalty_Neutral>  (411) 
0

>  <r_epik_State_Penalty>  (411) 
2.66236

>  <r_epik_Charging_Adjusted_Penalty>  (411) 
2.6674

>  <i_epik_Tot_Q>  (411) 
0

>  <i_epik_Tot_abs_Q>  (411) 
2

>  <s_epik_Chemistry_Notes>  (411) 
This compound contains an acetal/aminal-like group ( X-CH(R)-Y where X, Y are N, S, or O) that may be acid/base labile, releasing an aldehyde.

>  <s_lp_Force_Field>  (411) 
OPLS3e

>  <r_lp_Energy>  (411) 
36.6532

>  <b_lp_Chiralities_Consistent>  (411) 
1

>  <s_lp_Variant>  (411) 
111:0-2

>  <s_i_glide_gridfile>  (411) 
pfpi4k_grid

>  <i_i_glide_lignum>  (411) 
36

>  <i_i_glide_rotatable_bonds>  (411) 
0

>  <r_i_docking_score>  (411) 
-3.7284

>  <r_i_glide_ligand_efficiency>  (411) 
-0.18642

>  <r_i_glide_ligand_efficiency_sa>  (411) 
-0.506022

>  <r_i_glide_ligand_efficiency_ln>  (411) 
-0.933096

>  <r_i_glide_gscore>  (411) 
-3.7284

>  <r_i_glide_lipo>  (411) 
-0.829731

>  <r_i_glide_hbond>  (411) 
-0.040508

>  <r_i_glide_metal>  (411) 
-0

>  <r_i_glide_rewards>  (411) 
-1.49981

>  <r_i_glide_evdw>  (411) 
-20.9411

>  <r_i_glide_ecoul>  (411) 
-1.79589

>  <r_i_glide_erotb>  (411) 
0

>  <r_i_glide_esite>  (411) 
-0.0419138

>  <r_i_glide_emodel>  (411) 
-30.0345

>  <r_i_glide_energy>  (411) 
-22.737

>  <r_i_glide_einternal>  (411) 
0

>  <r_i_glide_intrahb_reward>  (411) 
-0

>  <i_i_glide_confnum>  (411) 
2

>  <i_i_glide_posenum>  (411) 
14

>  <r_i_glide_eff_state_penalty>  (411) 
0

>  <ligand_id>  (411) 
111

>  <original_smiles>  (411) 
OC1c2c(ccc3sc4sccc4c23)OC2CCCN21

>  <smiles>  (411) 
[H]c1sc2sc3c([H])c([H])c4c(c3c2c1[H])C([H])([O-])[N+]1([H])C([H])([H])C([H])([H])C([H])([H])C1([H])O4

$$$$
111:1:1
     RDKit          3D

 33 37  0  0  1  0  0  0  0  0999 V2000
   -0.9785    4.1993    4.9547 O   0  0  0  0  0  0  0  0  0  0  0  0
   -0.7782    2.8954    4.9551 C   0  0  2  0  0  0  0  0  0  0  0  0
    0.0948    2.4764    6.1501 C   0  0  0  0  0  0  0  0  0  0  0  0
    1.4480    2.0799    5.9127 C   0  0  0  0  0  0  0  0  0  0  0  0
    2.3089    1.6626    6.9476 C   0  0  0  0  0  0  0  0  0  0  0  0
    1.9120    1.6260    8.2849 C   0  0  0  0  0  0  0  0  0  0  0  0
    0.5929    2.0125    8.5059 C   0  0  0  0  0  0  0  0  0  0  0  0
   -0.0857    2.0072   10.1323 S   0  0  0  0  0  0  0  0  0  0  0  0
   -1.5864    2.5722    9.4436 C   0  0  0  0  0  0  0  0  0  0  0  0
   -3.0732    2.9539   10.2293 S   0  0  0  0  0  0  0  0  0  0  0  0
   -3.7795    3.3380    8.6681 C   0  0  0  0  0  0  0  0  0  0  0  0
   -2.8961    3.2006    7.6159 C   0  0  0  0  0  0  0  0  0  0  0  0
   -1.6359    2.7572    8.0923 C   0  0  0  0  0  0  0  0  0  0  0  0
   -0.3609    2.4388    7.5032 C   0  0  0  0  0  0  0  0  0  0  0  0
    1.9822    2.0543    4.6622 O   0  0  0  0  0  0  0  0  0  0  0  0
    1.4600    2.9529    3.7367 C   0  0  1  0  0  0  0  0  0  0  0  0
    1.8358    2.4472    2.3383 C   0  0  0  0  0  0  0  0  0  0  0  0
    0.8317    1.3555    1.9301 C   0  0  0  0  0  0  0  0  0  0  0  0
   -0.2877    1.4000    2.9652 C   0  0  0  0  0  0  0  0  0  0  0  0
   -0.1035    2.6996    3.6465 N   0  0  1  0  0  0  0  0  0  0  0  0
   -1.6146    2.1960    4.9733 H   0  0  0  0  0  0  0  0  0  0  0  0
    3.3148    1.3752    6.6916 H   0  0  0  0  0  0  0  0  0  0  0  0
    2.5643    1.3245    9.0882 H   0  0  0  0  0  0  0  0  0  0  0  0
   -4.8117    3.6585    8.6763 H   0  0  0  0  0  0  0  0  0  0  0  0
   -3.0952    3.4078    6.5733 H   0  0  0  0  0  0  0  0  0  0  0  0
    1.7424    3.9904    3.9469 H   0  0  0  0  0  0  0  0  0  0  0  0
    1.8091    3.2805    1.6419 H   0  0  0  0  0  0  0  0  0  0  0  0
    2.8614    2.0638    2.3334 H   0  0  0  0  0  0  0  0  0  0  0  0
    0.4369    1.5590    0.9323 H   0  0  0  0  0  0  0  0  0  0  0  0
    1.2881    0.3657    1.8860 H   0  0  0  0  0  0  0  0  0  0  0  0
   -1.2836    1.2946    2.5231 H   0  0  0  0  0  0  0  0  0  0  0  0
   -0.1468    0.5961    3.6875 H   0  0  0  0  0  0  0  0  0  0  0  0
   -0.5039    3.3997    3.0349 H   0  0  0  0  0  0  0  0  0  0  0  0
  1  2  1  0
  2 20  1  0
  2  3  1  0
  2 21  1  6
  3 14  2  0
  3  4  1  0
  4  5  2  0
  4 15  1  0
  5  6  1  0
  5 22  1  0
  6  7  2  0
  6 23  1  0
  7 14  1  0
  7  8  1  0
  8  9  1  0
  9 13  2  0
  9 10  1  0
 10 11  1  0
 11 12  2  0
 11 24  1  0
 12 13  1  0
 12 25  1  0
 13 14  1  0
 15 16  1  0
 16 20  1  0
 16 17  1  0
 16 26  1  1
 17 18  1  0
 17 27  1  0
 17 28  1  0
 18 19  1  0
 18 29  1  0
 18 30  1  0
 19 20  1  0
 19 31  1  0
 19 32  1  0
 20 33  1  6
M  CHG  2   1  -1  20   1
M  END
>  <i_m_ct_stereo_status>  (412) 
1

>  <s_m_source_file>  (412) 
/var/tmp/pbs.5076255.sched01/tmpm28zzdm2/1449lyhn0we.sdf

>  <i_m_source_file_index>  (412) 
36

>  <i_lp_mmshare_version>  (412) 
48012

>  <i_f3d_flags>  (412) 
0

>  <s_epik_input>  (412) 
W0NIMl0xW0NIMl1bQ0gyXU4oW0NAQEhdMltPSF0pW0NASF0xT2MoYzIzKVtjSF1bY0hdYzRjM2M1YyhzNClzW2NIXVtjSF01

>  <s_epik_cmdline>  (412) 
J2VwaWtfcHl0aG9uJywgJy1waHQnLCAnMi4wJywgJy1waCcsICc3LjAnLCAnLXRuJywgJzgnLCAnLW1hJywgJzIwMCcsICctaW1hZScsICc8aW5maWxlLm1hZT4nLCAnLW9tYWUnLCAnPG91dGZpbGUubWFlPic=

>  <r_epik_Ionization_Penalty>  (412) 
0.00503436

>  <r_epik_Ionization_Penalty_Charging>  (412) 
0.00503436

>  <r_epik_Ionization_Penalty_Neutral>  (412) 
0

>  <r_epik_State_Penalty>  (412) 
2.66236

>  <r_epik_Charging_Adjusted_Penalty>  (412) 
2.6674

>  <i_epik_Tot_Q>  (412) 
0

>  <i_epik_Tot_abs_Q>  (412) 
2

>  <s_epik_Chemistry_Notes>  (412) 
This compound contains an acetal/aminal-like group ( X-CH(R)-Y where X, Y are N, S, or O) that may be acid/base labile, releasing an aldehyde.

>  <s_lp_Force_Field>  (412) 
OPLS3e

>  <r_lp_Energy>  (412) 
36.6532

>  <b_lp_Chiralities_Consistent>  (412) 
1

>  <s_lp_Variant>  (412) 
111:0-2

>  <s_i_glide_gridfile>  (412) 
pfpi4k_grid

>  <i_i_glide_lignum>  (412) 
36

>  <i_i_glide_rotatable_bonds>  (412) 
0

>  <r_i_docking_score>  (412) 
-3.50394

>  <r_i_glide_ligand_efficiency>  (412) 
-0.175197

>  <r_i_glide_ligand_efficiency_sa>  (412) 
-0.475557

>  <r_i_glide_ligand_efficiency_ln>  (412) 
-0.876919

>  <r_i_glide_gscore>  (412) 
-3.50394

>  <r_i_glide_lipo>  (412) 
-0.164264

>  <r_i_glide_hbond>  (412) 
0

>  <r_i_glide_metal>  (412) 
-0

>  <r_i_glide_rewards>  (412) 
-1.64045

>  <r_i_glide_evdw>  (412) 
-18.8987

>  <r_i_glide_ecoul>  (412) 
-4.3017

>  <r_i_glide_erotb>  (412) 
0

>  <r_i_glide_esite>  (412) 
-0.109033

>  <r_i_glide_emodel>  (412) 
-30.0484

>  <r_i_glide_energy>  (412) 
-23.2004

>  <r_i_glide_einternal>  (412) 
0

>  <r_i_glide_intrahb_reward>  (412) 
-0

>  <i_i_glide_confnum>  (412) 
1

>  <i_i_glide_posenum>  (412) 
18

>  <r_i_glide_eff_state_penalty>  (412) 
0

>  <ligand_id>  (412) 
111

>  <original_smiles>  (412) 
OC1c2c(ccc3sc4sccc4c23)OC2CCCN21

>  <smiles>  (412) 
[H]c1sc2sc3c([H])c([H])c4c(c3c2c1[H])C([H])([O-])[N+]1([H])C([H])([H])C([H])([H])C([H])([H])C1([H])O4

$$$$
111:1:2
     RDKit          3D

 33 37  0  0  1  0  0  0  0  0999 V2000
   -1.0775    4.4964    4.8269 O   0  0  0  0  0  0  0  0  0  0  0  0
   -0.4413    3.3656    5.0518 C   0  0  2  0  0  0  0  0  0  0  0  0
    0.4622    3.5087    6.2931 C   0  0  0  0  0  0  0  0  0  0  0  0
    1.8773    3.6007    6.1036 C   0  0  0  0  0  0  0  0  0  0  0  0
    2.7799    3.7237    7.1789 C   0  0  0  0  0  0  0  0  0  0  0  0
    2.3559    3.7849    8.5066 C   0  0  0  0  0  0  0  0  0  0  0  0
    0.9746    3.6960    8.6798 C   0  0  0  0  0  0  0  0  0  0  0  0
    0.2603    3.7293   10.2911 S   0  0  0  0  0  0  0  0  0  0  0  0
   -1.3099    3.5527    9.5423 C   0  0  0  0  0  0  0  0  0  0  0  0
   -2.8785    3.4458   10.2715 S   0  0  0  0  0  0  0  0  0  0  0  0
   -3.5944    3.3199    8.6677 C   0  0  0  0  0  0  0  0  0  0  0  0
   -2.6591    3.3389    7.6504 C   0  0  0  0  0  0  0  0  0  0  0  0
   -1.3528    3.4798    8.1830 C   0  0  0  0  0  0  0  0  0  0  0  0
   -0.0185    3.5540    7.6363 C   0  0  0  0  0  0  0  0  0  0  0  0
    2.4447    3.5463    4.8698 O   0  0  0  0  0  0  0  0  0  0  0  0
    1.6825    4.0088    3.8055 C   0  0  1  0  0  0  0  0  0  0  0  0
    2.2900    3.4308    2.5187 C   0  0  0  0  0  0  0  0  0  0  0  0
    1.7783    1.9963    2.3371 C   0  0  0  0  0  0  0  0  0  0  0  0
    0.6647    1.8116    3.3663 C   0  0  0  0  0  0  0  0  0  0  0  0
    0.3250    3.1876    3.7889 N   0  0  1  0  0  0  0  0  0  0  0  0
   -0.9771    2.4277    5.2125 H   0  0  0  0  0  0  0  0  0  0  0  0
    3.8305    3.7835    6.9573 H   0  0  0  0  0  0  0  0  0  0  0  0
    3.0369    3.8912    9.3350 H   0  0  0  0  0  0  0  0  0  0  0  0
   -4.6739    3.2420    8.6133 H   0  0  0  0  0  0  0  0  0  0  0  0
   -2.8644    3.2734    6.5900 H   0  0  0  0  0  0  0  0  0  0  0  0
    1.5538    5.0960    3.8047 H   0  0  0  0  0  0  0  0  0  0  0  0
    1.9883    4.0520    1.6895 H   0  0  0  0  0  0  0  0  0  0  0  0
    3.3766    3.4696    2.5625 H   0  0  0  0  0  0  0  0  0  0  0  0
    1.3902    1.8631    1.3228 H   0  0  0  0  0  0  0  0  0  0  0  0
    2.5664    1.2549    2.4680 H   0  0  0  0  0  0  0  0  0  0  0  0
   -0.1984    1.2695    2.9688 H   0  0  0  0  0  0  0  0  0  0  0  0
    1.0524    1.2580    4.2203 H   0  0  0  0  0  0  0  0  0  0  0  0
   -0.2637    3.5726    3.0592 H   0  0  0  0  0  0  0  0  0  0  0  0
  1  2  1  0
  2 20  1  0
  2  3  1  0
  2 21  1  1
  3 14  2  0
  3  4  1  0
  4  5  2  0
  4 15  1  0
  5  6  1  0
  5 22  1  0
  6  7  2  0
  6 23  1  0
  7 14  1  0
  7  8  1  0
  8  9  1  0
  9 13  2  0
  9 10  1  0
 10 11  1  0
 11 12  2  0
 11 24  1  0
 12 13  1  0
 12 25  1  0
 13 14  1  0
 15 16  1  0
 16 20  1  0
 16 17  1  0
 16 26  1  6
 17 18  1  0
 17 27  1  0
 17 28  1  0
 18 19  1  0
 18 29  1  0
 18 30  1  0
 19 20  1  0
 19 31  1  0
 19 32  1  0
 20 33  1  6
M  CHG  2   1  -1  20   1
M  END
>  <i_m_ct_stereo_status>  (413) 
1

>  <s_m_source_file>  (413) 
/var/tmp/pbs.5076255.sched01/tmpm28zzdm2/1449lyhn0we.sdf

>  <i_m_source_file_index>  (413) 
36

>  <i_lp_mmshare_version>  (413) 
48012

>  <i_f3d_flags>  (413) 
0

>  <s_epik_input>  (413) 
W0NIMl0xW0NIMl1bQ0gyXU4oW0NAQEhdMltPSF0pW0NASF0xT2MoYzIzKVtjSF1bY0hdYzRjM2M1YyhzNClzW2NIXVtjSF01

>  <s_epik_cmdline>  (413) 
J2VwaWtfcHl0aG9uJywgJy1waHQnLCAnMi4wJywgJy1waCcsICc3LjAnLCAnLXRuJywgJzgnLCAnLW1hJywgJzIwMCcsICctaW1hZScsICc8aW5maWxlLm1hZT4nLCAnLW9tYWUnLCAnPG91dGZpbGUubWFlPic=

>  <r_epik_Ionization_Penalty>  (413) 
0.00503436

>  <r_epik_Ionization_Penalty_Charging>  (413) 
0.00503436

>  <r_epik_Ionization_Penalty_Neutral>  (413) 
0

>  <r_epik_State_Penalty>  (413) 
2.66236

>  <r_epik_Charging_Adjusted_Penalty>  (413) 
2.6674

>  <i_epik_Tot_Q>  (413) 
0

>  <i_epik_Tot_abs_Q>  (413) 
2

>  <s_epik_Chemistry_Notes>  (413) 
This compound contains an acetal/aminal-like group ( X-CH(R)-Y where X, Y are N, S, or O) that may be acid/base labile, releasing an aldehyde.

>  <s_lp_Force_Field>  (413) 
OPLS3e

>  <r_lp_Energy>  (413) 
36.6532

>  <b_lp_Chiralities_Consistent>  (413) 
1

>  <s_lp_Variant>  (413) 
111:0-2

>  <s_i_glide_gridfile>  (413) 
pfpi4k_grid

>  <i_i_glide_lignum>  (413) 
36

>  <i_i_glide_rotatable_bonds>  (413) 
0

>  <r_i_docking_score>  (413) 
-3.41264

>  <r_i_glide_ligand_efficiency>  (413) 
-0.170632

>  <r_i_glide_ligand_efficiency_sa>  (413) 
-0.463166

>  <r_i_glide_ligand_efficiency_ln>  (413) 
-0.854071

>  <r_i_glide_gscore>  (413) 
-3.41264

>  <r_i_glide_lipo>  (413) 
-0.137355

>  <r_i_glide_hbond>  (413) 
0

>  <r_i_glide_metal>  (413) 
-0

>  <r_i_glide_rewards>  (413) 
-1.64045

>  <r_i_glide_evdw>  (413) 
-16.5808

>  <r_i_glide_ecoul>  (413) 
-4.51001

>  <r_i_glide_erotb>  (413) 
0

>  <r_i_glide_esite>  (413) 
-0.129296

>  <r_i_glide_emodel>  (413) 
-27.7692

>  <r_i_glide_energy>  (413) 
-21.0908

>  <r_i_glide_einternal>  (413) 
0

>  <r_i_glide_intrahb_reward>  (413) 
-0

>  <i_i_glide_confnum>  (413) 
2

>  <i_i_glide_posenum>  (413) 
39

>  <r_i_glide_eff_state_penalty>  (413) 
0

>  <ligand_id>  (413) 
111

>  <original_smiles>  (413) 
OC1c2c(ccc3sc4sccc4c23)OC2CCCN21

>  <smiles>  (413) 
[H]c1sc2sc3c([H])c([H])c4c(c3c2c1[H])C([H])([O-])[N+]1([H])C([H])([H])C([H])([H])C([H])([H])C1([H])O4

$$$$
112:0:0
     RDKit          3D

 55 58  0  0  1  0  0  0  0  0999 V2000
   -1.5903   -7.6251    2.8247 C   0  0  0  0  0  0  0  0  0  0  0  0
   -0.7393   -6.6561    2.2395 O   0  0  0  0  0  0  0  0  0  0  0  0
    0.1067   -7.1756    1.2787 C   0  0  0  0  0  0  0  0  0  0  0  0
    1.1036   -6.2597    0.8994 O   0  0  0  0  0  0  0  0  0  0  0  0
    2.1362   -5.9171    1.8605 C   0  0  1  0  0  0  0  0  0  0  0  0
    1.6592   -5.5539    3.1997 O   0  0  0  0  0  0  0  0  0  0  0  0
    1.6546   -3.9752    3.5748 O   0  0  0  0  0  0  0  0  0  0  0  0
    2.8999   -3.2434    3.2842 C   0  0  0  0  0  0  0  0  0  0  0  0
    2.3871   -1.9093    2.6217 C   0  0  0  0  0  0  0  0  0  0  0  0
    3.5972   -2.6995    4.5847 C   0  0  0  0  0  0  0  0  0  0  0  0
    3.7512   -4.2305    2.4382 C   0  0  2  0  0  0  0  0  0  0  0  0
    4.2571   -5.2680    3.5473 C   0  0  0  0  0  0  0  0  0  0  0  0
    4.0277   -6.7509    3.2874 C   0  0  0  0  0  0  0  0  0  0  0  0
    3.3916   -6.9140    1.9292 C   0  0  1  0  0  0  0  0  0  0  0  0
    2.9920   -8.4119    1.8402 C   0  0  0  0  0  0  0  0  0  0  0  0
    4.5720   -6.6678    0.9177 C   0  0  0  0  0  0  0  0  0  0  0  0
    5.5338   -5.3971    1.0691 C   0  0  0  0  0  0  0  0  0  0  0  0
    5.0308   -3.9892    1.6052 C   0  0  1  0  0  0  0  0  0  0  0  0
    4.9309   -2.8787    0.5153 C   0  0  1  0  0  0  0  0  0  0  0  0
    6.2068   -2.6953   -0.3178 C   0  0  0  0  0  0  0  0  0  0  0  0
    3.6545   -2.9720   -0.3512 C   0  0  0  0  0  0  0  0  0  0  0  0
    2.9341   -4.3086   -0.1564 C   0  0  0  0  0  0  0  0  0  0  0  0
    2.6794   -4.6230    1.3580 C   0  0  1  0  0  0  0  0  0  0  0  0
   -2.1812   -7.1412    3.6019 H   0  0  0  0  0  0  0  0  0  0  0  0
   -1.0067   -8.4293    3.2900 H   0  0  0  0  0  0  0  0  0  0  0  0
   -2.2636   -8.0566    2.0824 H   0  0  0  0  0  0  0  0  0  0  0  0
    0.4561   -8.1449    1.5787 H   0  0  0  0  0  0  0  0  0  0  0  0
   -0.4880   -7.3583    0.3663 H   0  0  0  0  0  0  0  0  0  0  0  0
    3.2023   -1.2493    2.3395 H   0  0  0  0  0  0  0  0  0  0  0  0
    1.7590   -1.3698    3.3230 H   0  0  0  0  0  0  0  0  0  0  0  0
    1.7451   -2.0346    1.7509 H   0  0  0  0  0  0  0  0  0  0  0  0
    4.6505   -2.4923    4.3987 H   0  0  0  0  0  0  0  0  0  0  0  0
    3.5350   -3.3710    5.4422 H   0  0  0  0  0  0  0  0  0  0  0  0
    3.1638   -1.7707    4.9399 H   0  0  0  0  0  0  0  0  0  0  0  0
    5.3142   -5.1130    3.8060 H   0  0  0  0  0  0  0  0  0  0  0  0
    3.7531   -5.1572    4.5004 H   0  0  0  0  0  0  0  0  0  0  0  0
    4.9533   -7.3107    3.3747 H   0  0  0  0  0  0  0  0  0  0  0  0
    3.3666   -7.1509    4.0597 H   0  0  0  0  0  0  0  0  0  0  0  0
    3.8421   -9.0737    1.9338 H   0  0  0  0  0  0  0  0  0  0  0  0
    2.5074   -8.6428    0.8945 H   0  0  0  0  0  0  0  0  0  0  0  0
    2.3071   -8.6659    2.6517 H   0  0  0  0  0  0  0  0  0  0  0  0
    5.2548   -7.5209    1.0165 H   0  0  0  0  0  0  0  0  0  0  0  0
    4.2222   -6.8072   -0.1056 H   0  0  0  0  0  0  0  0  0  0  0  0
    6.3339   -5.7058    1.7522 H   0  0  0  0  0  0  0  0  0  0  0  0
    6.0526   -5.2879    0.1217 H   0  0  0  0  0  0  0  0  0  0  0  0
    5.8083   -3.6093    2.2805 H   0  0  0  0  0  0  0  0  0  0  0  0
    4.8407   -1.9345    1.0644 H   0  0  0  0  0  0  0  0  0  0  0  0
    6.3335   -3.4878   -1.0694 H   0  0  0  0  0  0  0  0  0  0  0  0
    7.0967   -2.6984    0.3144 H   0  0  0  0  0  0  0  0  0  0  0  0
    6.1948   -1.7510   -0.8625 H   0  0  0  0  0  0  0  0  0  0  0  0
    2.9922   -2.1485   -0.1310 H   0  0  0  0  0  0  0  0  0  0  0  0
    3.9049   -2.8601   -1.4091 H   0  0  0  0  0  0  0  0  0  0  0  0
    1.9812   -4.2658   -0.6844 H   0  0  0  0  0  0  0  0  0  0  0  0
    3.5005   -5.0450   -0.6824 H   0  0  0  0  0  0  0  0  0  0  0  0
    1.8130   -4.0157    1.3799 H   0  0  0  0  0  0  0  0  0  0  0  0
  1  2  1  0
  1 24  1  0
  1 25  1  0
  1 26  1  0
  2  3  1  0
  3  4  1  0
  3 27  1  0
  3 28  1  0
  5  4  1  6
  5 14  1  0
  5 23  1  0
  5  6  1  0
  6  7  1  0
  7  8  1  0
  8  9  1  0
  8 10  1  0
 11  8  1  1
  9 29  1  0
  9 30  1  0
  9 31  1  0
 10 32  1  0
 10 33  1  0
 10 34  1  0
 11 18  1  0
 11 23  1  0
 11 12  1  0
 12 13  1  0
 12 35  1  0
 12 36  1  0
 13 14  1  0
 13 37  1  0
 13 38  1  0
 14 15  1  1
 14 16  1  0
 15 39  1  0
 15 40  1  0
 15 41  1  0
 16 17  1  0
 16 42  1  0
 16 43  1  0
 17 18  1  0
 17 44  1  0
 17 45  1  0
 18 19  1  0
 18 46  1  1
 19 20  1  0
 19 21  1  0
 19 47  1  1
 20 48  1  0
 20 49  1  0
 20 50  1  0
 21 22  1  0
 21 51  1  0
 21 52  1  0
 22 23  1  0
 22 53  1  0
 22 54  1  0
 23 55  1  1
M  END
>  <i_m_ct_stereo_status>  (414) 
1

>  <s_m_source_file>  (414) 
/var/tmp/pbs.5076255.sched01/tmpm28zzdm2/1449lyhn0we.sdf

>  <i_m_source_file_index>  (414) 
37

>  <i_lp_mmshare_version>  (414) 
48012

>  <i_f3d_flags>  (414) 
0

>  <s_epik_input>  (414) 
W0NIM11bQ0BIXTFbQ0gyXVtDSDJdW0NASF0yW0NAXShPW0NIMl1PW0NIM10pKE9PQzMoW0NIM10pW0NIM10pW0NAXShbQ0gzXSkoW0NIMl1bQ0gyXTQpW0NIMl1bQ0gyXVtDQEBIXTFbQ0BdMjM0

>  <s_epik_cmdline>  (414) 
J2VwaWtfcHl0aG9uJywgJy1waHQnLCAnMi4wJywgJy1waCcsICc3LjAnLCAnLXRuJywgJzgnLCAnLW1hJywgJzIwMCcsICctaW1hZScsICc8aW5maWxlLm1hZT4nLCAnLW9tYWUnLCAnPG91dGZpbGUubWFlPic=

>  <r_lp_tautomer_probability>  (414) 
1

>  <r_epik_Ionization_Penalty>  (414) 
1.96153e-13

>  <r_epik_Ionization_Penalty_Charging>  (414) 
0

>  <r_epik_Ionization_Penalty_Neutral>  (414) 
1.96153e-13

>  <r_epik_State_Penalty>  (414) 
-0

>  <r_epik_Charging_Adjusted_Penalty>  (414) 
0

>  <i_epik_Tot_Q>  (414) 
0

>  <i_epik_Tot_abs_Q>  (414) 
0

>  <s_epik_Chemistry_Notes>  (414) 
This compound contains an acetal/aminal-like group ( X-CH(R)-Y where X, Y are N, S, or O) that may be acid/base labile, releasing an aldehyde.

>  <s_lp_Force_Field>  (414) 
OPLS3e

>  <r_lp_Energy>  (414) 
146.619

>  <b_lp_Chiralities_Consistent>  (414) 
1

>  <s_lp_Variant>  (414) 
112:0-1

>  <s_i_glide_gridfile>  (414) 
pfpi4k_grid

>  <i_i_glide_lignum>  (414) 
37

>  <i_i_glide_rotatable_bonds>  (414) 
3

>  <r_i_docking_score>  (414) 
-3.26377

>  <r_i_glide_ligand_efficiency>  (414) 
-0.141903

>  <r_i_glide_ligand_efficiency_sa>  (414) 
-0.403554

>  <r_i_glide_ligand_efficiency_ln>  (414) 
-0.78921

>  <r_i_glide_gscore>  (414) 
-3.26377

>  <r_i_glide_lipo>  (414) 
-0.277721

>  <r_i_glide_hbond>  (414) 
-0.32

>  <r_i_glide_metal>  (414) 
-0

>  <r_i_glide_rewards>  (414) 
-1.1969

>  <r_i_glide_evdw>  (414) 
-18.1335

>  <r_i_glide_ecoul>  (414) 
-5.30451

>  <r_i_glide_erotb>  (414) 
0.355803

>  <r_i_glide_esite>  (414) 
-0.122605

>  <r_i_glide_emodel>  (414) 
-27.5795

>  <r_i_glide_energy>  (414) 
-23.438

>  <r_i_glide_einternal>  (414) 
2.14266

>  <r_i_glide_intrahb_reward>  (414) 
-0

>  <i_i_glide_confnum>  (414) 
2

>  <i_i_glide_posenum>  (414) 
1

>  <r_i_glide_eff_state_penalty>  (414) 
0

>  <ligand_id>  (414) 
112

>  <original_smiles>  (414) 
COCOC12OOC(C)(C)C34CCC1(C)CCC3C(C)CCC24

>  <smiles>  (414) 
[H]C([H])([H])OC([H])([H])OC12OOC(C([H])([H])[H])(C([H])([H])[H])C34C([H])([H])C([H])([H])C1(C([H])([H])[H])C([H])([H])C([H])([H])C3([H])C([H])(C([H])([H])[H])C([H])([H])C([H])([H])C24[H]

$$$$
112:0:1
     RDKit          3D

 55 58  0  0  1  0  0  0  0  0999 V2000
   -0.0057   -7.4544    1.3698 C   0  0  0  0  0  0  0  0  0  0  0  0
   -0.1572   -6.2959    2.1971 O   0  0  0  0  0  0  0  0  0  0  0  0
    1.0569   -5.8015    2.6780 C   0  0  0  0  0  0  0  0  0  0  0  0
    1.7980   -5.2404    1.6327 O   0  0  0  0  0  0  0  0  0  0  0  0
    3.0315   -4.5854    1.9549 C   0  0  1  0  0  0  0  0  0  0  0  0
    3.0623   -3.8299    3.2146 O   0  0  0  0  0  0  0  0  0  0  0  0
    3.1300   -2.1849    3.0852 O   0  0  0  0  0  0  0  0  0  0  0  0
    4.0446   -1.6573    2.0596 C   0  0  0  0  0  0  0  0  0  0  0  0
    3.1800   -0.5781    1.3086 C   0  0  0  0  0  0  0  0  0  0  0  0
    5.1492   -0.7494    2.7099 C   0  0  0  0  0  0  0  0  0  0  0  0
    4.5432   -2.8947    1.2872 C   0  0  2  0  0  0  0  0  0  0  0  0
    5.5611   -3.5329    2.3409 C   0  0  0  0  0  0  0  0  0  0  0  0
    5.4072   -5.0097    2.6686 C   0  0  0  0  0  0  0  0  0  0  0  0
    4.2884   -5.5552    1.8209 C   0  0  1  0  0  0  0  0  0  0  0  0
    3.9978   -6.9871    2.3544 C   0  0  0  0  0  0  0  0  0  0  0  0
    4.9272   -5.7010    0.3928 C   0  0  0  0  0  0  0  0  0  0  0  0
    5.7306   -4.4864   -0.2585 C   0  0  0  0  0  0  0  0  0  0  0  0
    5.3501   -2.9669   -0.0226 C   0  0  1  0  0  0  0  0  0  0  0  0
    4.7126   -2.2717   -1.2577 C   0  0  1  0  0  0  0  0  0  0  0  0
    5.5026   -2.4232   -2.5577 C   0  0  0  0  0  0  0  0  0  0  0  0
    3.2171   -2.5757   -1.4473 C   0  0  0  0  0  0  0  0  0  0  0  0
    2.7719   -3.7434   -0.5682 C   0  0  0  0  0  0  0  0  0  0  0  0
    3.1622   -3.5250    0.9357 C   0  0  1  0  0  0  0  0  0  0  0  0
   -0.9811   -7.8318    1.0626 H   0  0  0  0  0  0  0  0  0  0  0  0
    0.4957   -8.2689    1.9030 H   0  0  0  0  0  0  0  0  0  0  0  0
    0.5709   -7.2322    0.4721 H   0  0  0  0  0  0  0  0  0  0  0  0
    0.8143   -5.0446    3.4197 H   0  0  0  0  0  0  0  0  0  0  0  0
    1.5563   -6.6102    3.2071 H   0  0  0  0  0  0  0  0  0  0  0  0
    3.7349   -0.0730    0.5240 H   0  0  0  0  0  0  0  0  0  0  0  0
    2.8382    0.1925    1.9989 H   0  0  0  0  0  0  0  0  0  0  0  0
    2.2509   -0.9482    0.8789 H   0  0  0  0  0  0  0  0  0  0  0  0
    6.0096   -0.6501    2.0536 H   0  0  0  0  0  0  0  0  0  0  0  0
    5.5113   -1.1055    3.6789 H   0  0  0  0  0  0  0  0  0  0  0  0
    4.8084    0.2632    2.9228 H   0  0  0  0  0  0  0  0  0  0  0  0
    6.6090   -3.3489    2.0542 H   0  0  0  0  0  0  0  0  0  0  0  0
    5.4964   -3.1038    3.3343 H   0  0  0  0  0  0  0  0  0  0  0  0
    6.3388   -5.5474    2.5241 H   0  0  0  0  0  0  0  0  0  0  0  0
    5.1625   -5.1187    3.7269 H   0  0  0  0  0  0  0  0  0  0  0  0
    4.8676   -7.6372    2.3042 H   0  0  0  0  0  0  0  0  0  0  0  0
    3.1989   -7.4739    1.7918 H   0  0  0  0  0  0  0  0  0  0  0  0
    3.7102   -6.9435    3.4037 H   0  0  0  0  0  0  0  0  0  0  0  0
    5.6690   -6.5079    0.4517 H   0  0  0  0  0  0  0  0  0  0  0  0
    4.2103   -6.1450   -0.2984 H   0  0  0  0  0  0  0  0  0  0  0  0
    6.7707   -4.5982    0.0723 H   0  0  0  0  0  0  0  0  0  0  0  0
    5.7894   -4.6754   -1.3251 H   0  0  0  0  0  0  0  0  0  0  0  0
    6.2960   -2.4245    0.1108 H   0  0  0  0  0  0  0  0  0  0  0  0
    4.7638   -1.1966   -1.0471 H   0  0  0  0  0  0  0  0  0  0  0  0
    5.3861   -3.4158   -3.0165 H   0  0  0  0  0  0  0  0  0  0  0  0
    6.5720   -2.2787   -2.3878 H   0  0  0  0  0  0  0  0  0  0  0  0
    5.1572   -1.7080   -3.3022 H   0  0  0  0  0  0  0  0  0  0  0  0
    2.6313   -1.7030   -1.2471 H   0  0  0  0  0  0  0  0  0  0  0  0
    3.0055   -2.8309   -2.4898 H   0  0  0  0  0  0  0  0  0  0  0  0
    1.6896   -3.8319   -0.6606 H   0  0  0  0  0  0  0  0  0  0  0  0
    3.1477   -4.6303   -1.0266 H   0  0  0  0  0  0  0  0  0  0  0  0
    2.2903   -2.9502    1.1777 H   0  0  0  0  0  0  0  0  0  0  0  0
  1  2  1  0
  1 24  1  0
  1 25  1  0
  1 26  1  0
  2  3  1  0
  3  4  1  0
  3 27  1  0
  3 28  1  0
  5  4  1  6
  5 14  1  0
  5 23  1  0
  5  6  1  0
  6  7  1  0
  7  8  1  0
  8  9  1  0
  8 10  1  0
 11  8  1  1
  9 29  1  0
  9 30  1  0
  9 31  1  0
 10 32  1  0
 10 33  1  0
 10 34  1  0
 11 18  1  0
 11 23  1  0
 11 12  1  0
 12 13  1  0
 12 35  1  0
 12 36  1  0
 13 14  1  0
 13 37  1  0
 13 38  1  0
 14 15  1  1
 14 16  1  0
 15 39  1  0
 15 40  1  0
 15 41  1  0
 16 17  1  0
 16 42  1  0
 16 43  1  0
 17 18  1  0
 17 44  1  0
 17 45  1  0
 18 19  1  0
 18 46  1  1
 19 20  1  0
 19 21  1  0
 19 47  1  1
 20 48  1  0
 20 49  1  0
 20 50  1  0
 21 22  1  0
 21 51  1  0
 21 52  1  0
 22 23  1  0
 22 53  1  0
 22 54  1  0
 23 55  1  1
M  END
>  <i_m_ct_stereo_status>  (415) 
1

>  <s_m_source_file>  (415) 
/var/tmp/pbs.5076255.sched01/tmpm28zzdm2/1449lyhn0we.sdf

>  <i_m_source_file_index>  (415) 
37

>  <i_lp_mmshare_version>  (415) 
48012

>  <i_f3d_flags>  (415) 
0

>  <s_epik_input>  (415) 
W0NIM11bQ0BIXTFbQ0gyXVtDSDJdW0NASF0yW0NAXShPW0NIMl1PW0NIM10pKE9PQzMoW0NIM10pW0NIM10pW0NAXShbQ0gzXSkoW0NIMl1bQ0gyXTQpW0NIMl1bQ0gyXVtDQEBIXTFbQ0BdMjM0

>  <s_epik_cmdline>  (415) 
J2VwaWtfcHl0aG9uJywgJy1waHQnLCAnMi4wJywgJy1waCcsICc3LjAnLCAnLXRuJywgJzgnLCAnLW1hJywgJzIwMCcsICctaW1hZScsICc8aW5maWxlLm1hZT4nLCAnLW9tYWUnLCAnPG91dGZpbGUubWFlPic=

>  <r_lp_tautomer_probability>  (415) 
1

>  <r_epik_Ionization_Penalty>  (415) 
1.96153e-13

>  <r_epik_Ionization_Penalty_Charging>  (415) 
0

>  <r_epik_Ionization_Penalty_Neutral>  (415) 
1.96153e-13

>  <r_epik_State_Penalty>  (415) 
-0

>  <r_epik_Charging_Adjusted_Penalty>  (415) 
0

>  <i_epik_Tot_Q>  (415) 
0

>  <i_epik_Tot_abs_Q>  (415) 
0

>  <s_epik_Chemistry_Notes>  (415) 
This compound contains an acetal/aminal-like group ( X-CH(R)-Y where X, Y are N, S, or O) that may be acid/base labile, releasing an aldehyde.

>  <s_lp_Force_Field>  (415) 
OPLS3e

>  <r_lp_Energy>  (415) 
146.619

>  <b_lp_Chiralities_Consistent>  (415) 
1

>  <s_lp_Variant>  (415) 
112:0-1

>  <s_i_glide_gridfile>  (415) 
pfpi4k_grid

>  <i_i_glide_lignum>  (415) 
37

>  <i_i_glide_rotatable_bonds>  (415) 
3

>  <r_i_docking_score>  (415) 
-3.18417

>  <r_i_glide_ligand_efficiency>  (415) 
-0.138442

>  <r_i_glide_ligand_efficiency_sa>  (415) 
-0.393711

>  <r_i_glide_ligand_efficiency_ln>  (415) 
-0.769962

>  <r_i_glide_gscore>  (415) 
-3.18417

>  <r_i_glide_lipo>  (415) 
-0.473809

>  <r_i_glide_hbond>  (415) 
-0.276579

>  <r_i_glide_metal>  (415) 
-0

>  <r_i_glide_rewards>  (415) 
-1.1969

>  <r_i_glide_evdw>  (415) 
-16.9818

>  <r_i_glide_ecoul>  (415) 
-4.60852

>  <r_i_glide_erotb>  (415) 
0.355803

>  <r_i_glide_esite>  (415) 
-0.05232

>  <r_i_glide_emodel>  (415) 
-25.5558

>  <r_i_glide_energy>  (415) 
-21.5903

>  <r_i_glide_einternal>  (415) 
1.91581

>  <r_i_glide_intrahb_reward>  (415) 
-0

>  <i_i_glide_confnum>  (415) 
2

>  <i_i_glide_posenum>  (415) 
13

>  <r_i_glide_eff_state_penalty>  (415) 
0

>  <ligand_id>  (415) 
112

>  <original_smiles>  (415) 
COCOC12OOC(C)(C)C34CCC1(C)CCC3C(C)CCC24

>  <smiles>  (415) 
[H]C([H])([H])OC([H])([H])OC12OOC(C([H])([H])[H])(C([H])([H])[H])C34C([H])([H])C([H])([H])C1(C([H])([H])[H])C([H])([H])C([H])([H])C3([H])C([H])(C([H])([H])[H])C([H])([H])C([H])([H])C24[H]

$$$$
112:0:2
     RDKit          3D

 55 58  0  0  1  0  0  0  0  0999 V2000
   -1.1977   -7.6162    2.5084 C   0  0  0  0  0  0  0  0  0  0  0  0
   -0.4591   -6.6162    1.8095 O   0  0  0  0  0  0  0  0  0  0  0  0
    0.8308   -6.4365    2.3052 C   0  0  0  0  0  0  0  0  0  0  0  0
    1.5613   -5.6170    1.4266 O   0  0  0  0  0  0  0  0  0  0  0  0
    2.8060   -5.0499    1.9042 C   0  0  1  0  0  0  0  0  0  0  0  0
    2.7711   -4.4861    3.2621 O   0  0  0  0  0  0  0  0  0  0  0  0
    2.8067   -2.8418    3.3775 O   0  0  0  0  0  0  0  0  0  0  0  0
    3.7867   -2.1641    2.5159 C   0  0  0  0  0  0  0  0  0  0  0  0
    2.9610   -0.9846    1.8753 C   0  0  0  0  0  0  0  0  0  0  0  0
    4.8323   -1.3580    3.3722 C   0  0  0  0  0  0  0  0  0  0  0  0
    4.3552   -3.2672    1.6007 C   0  0  2  0  0  0  0  0  0  0  0  0
    5.3019   -4.0548    2.6223 C   0  0  0  0  0  0  0  0  0  0  0  0
    5.1456   -5.5636    2.7110 C   0  0  0  0  0  0  0  0  0  0  0  0
    4.0965   -5.9779    1.7108 C   0  0  1  0  0  0  0  0  0  0  0  0
    3.8202   -7.4808    1.9906 C   0  0  0  0  0  0  0  0  0  0  0  0
    4.8398   -5.9011    0.3337 C   0  0  0  0  0  0  0  0  0  0  0  0
    5.6709   -4.6030   -0.0800 C   0  0  0  0  0  0  0  0  0  0  0  0
    5.2570   -3.1391    0.3570 C   0  0  1  0  0  0  0  0  0  0  0  0
    4.7060   -2.2639   -0.8020 C   0  0  1  0  0  0  0  0  0  0  0  0
    5.5919   -2.1969   -2.0507 C   0  0  0  0  0  0  0  0  0  0  0  0
    3.2272   -2.5481   -1.1302 C   0  0  0  0  0  0  0  0  0  0  0  0
    2.7367   -3.8464   -0.4802 C   0  0  0  0  0  0  0  0  0  0  0  0
    3.0097   -3.8493    1.0632 C   0  0  1  0  0  0  0  0  0  0  0  0
   -2.2055   -7.6975    2.1037 H   0  0  0  0  0  0  0  0  0  0  0  0
   -1.2771   -7.3583    3.5666 H   0  0  0  0  0  0  0  0  0  0  0  0
   -0.7297   -8.5967    2.4225 H   0  0  0  0  0  0  0  0  0  0  0  0
    0.7658   -6.0125    3.2985 H   0  0  0  0  0  0  0  0  0  0  0  0
    1.2445   -7.4353    2.3789 H   0  0  0  0  0  0  0  0  0  0  0  0
    3.5637   -0.3623    1.2208 H   0  0  0  0  0  0  0  0  0  0  0  0
    2.5647   -0.3337    2.6533 H   0  0  0  0  0  0  0  0  0  0  0  0
    2.0729   -1.2845    1.3168 H   0  0  0  0  0  0  0  0  0  0  0  0
    5.7341   -1.1557    2.8002 H   0  0  0  0  0  0  0  0  0  0  0  0
    5.1314   -1.8552    4.2993 H   0  0  0  0  0  0  0  0  0  0  0  0
    4.4637   -0.3905    3.7072 H   0  0  0  0  0  0  0  0  0  0  0  0
    6.3643   -3.8287    2.4478 H   0  0  0  0  0  0  0  0  0  0  0  0
    5.1619   -3.7783    3.6617 H   0  0  0  0  0  0  0  0  0  0  0  0
    6.0949   -6.0648    2.5519 H   0  0  0  0  0  0  0  0  0  0  0  0
    4.8333   -5.8315    3.7220 H   0  0  0  0  0  0  0  0  0  0  0  0
    4.7209   -8.0858    1.9604 H   0  0  0  0  0  0  0  0  0  0  0  0
    3.1420   -7.9026    1.2476 H   0  0  0  0  0  0  0  0  0  0  0  0
    3.3946   -7.5980    2.9857 H   0  0  0  0  0  0  0  0  0  0  0  0
    5.5933   -6.6964    0.3316 H   0  0  0  0  0  0  0  0  0  0  0  0
    4.1869   -6.2469   -0.4662 H   0  0  0  0  0  0  0  0  0  0  0  0
    6.6910   -4.7620    0.2988 H   0  0  0  0  0  0  0  0  0  0  0  0
    5.7935   -4.6570   -1.1575 H   0  0  0  0  0  0  0  0  0  0  0  0
    6.1834   -2.6239    0.6403 H   0  0  0  0  0  0  0  0  0  0  0  0
    4.7232   -1.2364   -0.4221 H   0  0  0  0  0  0  0  0  0  0  0  0
    5.5219   -3.1084   -2.6637 H   0  0  0  0  0  0  0  0  0  0  0  0
    6.6416   -2.0676   -1.7914 H   0  0  0  0  0  0  0  0  0  0  0  0
    5.3026   -1.3715   -2.7035 H   0  0  0  0  0  0  0  0  0  0  0  0
    2.6293   -1.7210   -0.8279 H   0  0  0  0  0  0  0  0  0  0  0  0
    3.0874   -2.6265   -2.2169 H   0  0  0  0  0  0  0  0  0  0  0  0
    1.6681   -3.9124   -0.6652 H   0  0  0  0  0  0  0  0  0  0  0  0
    3.1491   -4.6579   -1.0378 H   0  0  0  0  0  0  0  0  0  0  0  0
    2.1222   -3.3113    1.3245 H   0  0  0  0  0  0  0  0  0  0  0  0
  1  2  1  0
  1 24  1  0
  1 25  1  0
  1 26  1  0
  2  3  1  0
  3  4  1  0
  3 27  1  0
  3 28  1  0
  5  4  1  6
  5 14  1  0
  5 23  1  0
  5  6  1  0
  6  7  1  0
  7  8  1  0
  8  9  1  0
  8 10  1  0
 11  8  1  1
  9 29  1  0
  9 30  1  0
  9 31  1  0
 10 32  1  0
 10 33  1  0
 10 34  1  0
 11 18  1  0
 11 23  1  0
 11 12  1  0
 12 13  1  0
 12 35  1  0
 12 36  1  0
 13 14  1  0
 13 37  1  0
 13 38  1  0
 14 15  1  1
 14 16  1  0
 15 39  1  0
 15 40  1  0
 15 41  1  0
 16 17  1  0
 16 42  1  0
 16 43  1  0
 17 18  1  0
 17 44  1  0
 17 45  1  0
 18 19  1  0
 18 46  1  1
 19 20  1  0
 19 21  1  0
 19 47  1  1
 20 48  1  0
 20 49  1  0
 20 50  1  0
 21 22  1  0
 21 51  1  0
 21 52  1  0
 22 23  1  0
 22 53  1  0
 22 54  1  0
 23 55  1  1
M  END
>  <i_m_ct_stereo_status>  (416) 
1

>  <s_m_source_file>  (416) 
/var/tmp/pbs.5076255.sched01/tmpm28zzdm2/1449lyhn0we.sdf

>  <i_m_source_file_index>  (416) 
37

>  <i_lp_mmshare_version>  (416) 
48012

>  <i_f3d_flags>  (416) 
0

>  <s_epik_input>  (416) 
W0NIM11bQ0BIXTFbQ0gyXVtDSDJdW0NASF0yW0NAXShPW0NIMl1PW0NIM10pKE9PQzMoW0NIM10pW0NIM10pW0NAXShbQ0gzXSkoW0NIMl1bQ0gyXTQpW0NIMl1bQ0gyXVtDQEBIXTFbQ0BdMjM0

>  <s_epik_cmdline>  (416) 
J2VwaWtfcHl0aG9uJywgJy1waHQnLCAnMi4wJywgJy1waCcsICc3LjAnLCAnLXRuJywgJzgnLCAnLW1hJywgJzIwMCcsICctaW1hZScsICc8aW5maWxlLm1hZT4nLCAnLW9tYWUnLCAnPG91dGZpbGUubWFlPic=

>  <r_lp_tautomer_probability>  (416) 
1

>  <r_epik_Ionization_Penalty>  (416) 
1.96153e-13

>  <r_epik_Ionization_Penalty_Charging>  (416) 
0

>  <r_epik_Ionization_Penalty_Neutral>  (416) 
1.96153e-13

>  <r_epik_State_Penalty>  (416) 
-0

>  <r_epik_Charging_Adjusted_Penalty>  (416) 
0

>  <i_epik_Tot_Q>  (416) 
0

>  <i_epik_Tot_abs_Q>  (416) 
0

>  <s_epik_Chemistry_Notes>  (416) 
This compound contains an acetal/aminal-like group ( X-CH(R)-Y where X, Y are N, S, or O) that may be acid/base labile, releasing an aldehyde.

>  <s_lp_Force_Field>  (416) 
OPLS3e

>  <r_lp_Energy>  (416) 
146.619

>  <b_lp_Chiralities_Consistent>  (416) 
1

>  <s_lp_Variant>  (416) 
112:0-1

>  <s_i_glide_gridfile>  (416) 
pfpi4k_grid

>  <i_i_glide_lignum>  (416) 
37

>  <i_i_glide_rotatable_bonds>  (416) 
3

>  <r_i_docking_score>  (416) 
-3.06252

>  <r_i_glide_ligand_efficiency>  (416) 
-0.133153

>  <r_i_glide_ligand_efficiency_sa>  (416) 
-0.378669

>  <r_i_glide_ligand_efficiency_ln>  (416) 
-0.740545

>  <r_i_glide_gscore>  (416) 
-3.06252

>  <r_i_glide_lipo>  (416) 
-0.375679

>  <r_i_glide_hbond>  (416) 
-0.328972

>  <r_i_glide_metal>  (416) 
-0

>  <r_i_glide_rewards>  (416) 
-1.1969

>  <r_i_glide_evdw>  (416) 
-16.3409

>  <r_i_glide_ecoul>  (416) 
-4.16209

>  <r_i_glide_erotb>  (416) 
0.355803

>  <r_i_glide_esite>  (416) 
-0.0754139

>  <r_i_glide_emodel>  (416) 
-23.178

>  <r_i_glide_energy>  (416) 
-20.503

>  <r_i_glide_einternal>  (416) 
4.19091

>  <r_i_glide_intrahb_reward>  (416) 
-0

>  <i_i_glide_confnum>  (416) 
2

>  <i_i_glide_posenum>  (416) 
16

>  <r_i_glide_eff_state_penalty>  (416) 
0

>  <ligand_id>  (416) 
112

>  <original_smiles>  (416) 
COCOC12OOC(C)(C)C34CCC1(C)CCC3C(C)CCC24

>  <smiles>  (416) 
[H]C([H])([H])OC([H])([H])OC12OOC(C([H])([H])[H])(C([H])([H])[H])C34C([H])([H])C([H])([H])C1(C([H])([H])[H])C([H])([H])C([H])([H])C3([H])C([H])(C([H])([H])[H])C([H])([H])C([H])([H])C24[H]

$$$$
113:0:0
     RDKit          3D

 47 50  0  0  1  0  0  0  0  0999 V2000
    4.0394   -3.4497   -3.8488 C   0  0  0  0  0  0  0  0  0  0  0  0
    4.4425   -2.7586   -2.5502 C   0  0  2  0  0  0  0  0  0  0  0  0
    5.9520   -2.8922   -2.3290 C   0  0  0  0  0  0  0  0  0  0  0  0
    6.5405   -1.9339   -1.4459 O   0  0  0  0  0  0  0  0  0  0  0  0
    6.5869   -2.2492   -0.0866 C   0  0  1  0  0  0  0  0  0  0  0  0
    7.5439   -1.4447    0.5424 O   0  0  0  0  0  0  0  0  0  0  0  0
    5.1760   -2.0001    0.5018 C   0  0  1  0  0  0  0  0  0  0  0  0
    4.2041   -3.0957   -0.0002 C   0  0  1  0  0  0  0  0  0  0  0  0
    3.3889   -3.4179    1.2888 C   0  0  1  0  0  0  0  0  0  0  0  0
    4.2964   -4.3465    2.1299 C   0  0  0  0  0  0  0  0  0  0  0  0
    5.4050   -3.3927    2.6123 C   0  0  0  0  0  0  0  0  0  0  0  0
    4.9646   -2.0222    2.0493 C   0  0  1  0  0  0  0  0  0  0  0  0
    5.5164   -0.8017    2.8151 C   0  0  0  0  0  0  0  0  0  0  0  0
    3.4112   -2.1212    2.1201 C   0  0  0  0  0  0  0  0  0  0  0  0
    2.6150   -0.9601    1.4727 C   0  0  0  0  0  0  0  0  0  0  0  0
    2.8002   -2.2726    3.5417 C   0  0  0  0  0  0  0  0  0  0  0  0
    3.5058   -2.7742   -1.3361 C   0  0  2  0  0  0  0  0  0  0  0  0
    2.1591   -3.4572   -1.4418 C   0  0  0  0  0  0  0  0  0  0  0  0
    3.7283   -1.5037   -2.1476 C   0  0  0  0  0  0  0  0  0  0  0  0
    4.6359   -3.1071   -4.6927 H   0  0  0  0  0  0  0  0  0  0  0  0
    3.0066   -3.2216   -4.1085 H   0  0  0  0  0  0  0  0  0  0  0  0
    4.1693   -4.5255   -3.7579 H   0  0  0  0  0  0  0  0  0  0  0  0
    6.1901   -3.9170   -2.0470 H   0  0  0  0  0  0  0  0  0  0  0  0
    6.4296   -2.7356   -3.2906 H   0  0  0  0  0  0  0  0  0  0  0  0
    6.9271   -3.2784    0.0447 H   0  0  0  0  0  0  0  0  0  0  0  0
    7.1280   -0.6304    0.7978 H   0  0  0  0  0  0  0  0  0  0  0  0
    4.9023   -0.9956    0.1865 H   0  0  0  0  0  0  0  0  0  0  0  0
    4.7662   -4.0036   -0.2271 H   0  0  0  0  0  0  0  0  0  0  0  0
    2.4064   -3.8581    1.1309 H   0  0  0  0  0  0  0  0  0  0  0  0
    3.7562   -4.7659    2.9758 H   0  0  0  0  0  0  0  0  0  0  0  0
    4.7054   -5.1911    1.5745 H   0  0  0  0  0  0  0  0  0  0  0  0
    5.4499   -3.3742    3.7006 H   0  0  0  0  0  0  0  0  0  0  0  0
    6.3892   -3.6927    2.2576 H   0  0  0  0  0  0  0  0  0  0  0  0
    5.1590   -0.7913    3.8440 H   0  0  0  0  0  0  0  0  0  0  0  0
    5.2184    0.1402    2.3532 H   0  0  0  0  0  0  0  0  0  0  0  0
    6.6043   -0.8197    2.8621 H   0  0  0  0  0  0  0  0  0  0  0  0
    2.8129   -0.0102    1.9693 H   0  0  0  0  0  0  0  0  0  0  0  0
    1.5478   -1.1591    1.5550 H   0  0  0  0  0  0  0  0  0  0  0  0
    2.7964   -0.8160    0.4115 H   0  0  0  0  0  0  0  0  0  0  0  0
    2.7707   -1.3099    4.0510 H   0  0  0  0  0  0  0  0  0  0  0  0
    3.3278   -2.9534    4.2066 H   0  0  0  0  0  0  0  0  0  0  0  0
    1.7721   -2.6286    3.4749 H   0  0  0  0  0  0  0  0  0  0  0  0
    1.4813   -3.0646   -0.6981 H   0  0  0  0  0  0  0  0  0  0  0  0
    2.2402   -4.5357   -1.2795 H   0  0  0  0  0  0  0  0  0  0  0  0
    1.6930   -3.2611   -2.4014 H   0  0  0  0  0  0  0  0  0  0  0  0
    4.3515   -0.6906   -1.7905 H   0  0  0  0  0  0  0  0  0  0  0  0
    2.9067   -1.1737   -2.7775 H   0  0  0  0  0  0  0  0  0  0  0  0
  2  1  1  6
  1 20  1  0
  1 21  1  0
  1 22  1  0
  2 17  1  0
  2 19  1  0
  2  3  1  0
  3  4  1  0
  3 23  1  0
  3 24  1  0
  4  5  1  0
  5  6  1  0
  5  7  1  0
  5 25  1  6
  6 26  1  0
  7 12  1  0
  7  8  1  0
  7 27  1  6
  8  9  1  0
  8 17  1  0
  8 28  1  6
  9 14  1  0
  9 10  1  0
  9 29  1  6
 10 11  1  0
 10 30  1  0
 10 31  1  0
 11 12  1  0
 11 32  1  0
 11 33  1  0
 12 13  1  1
 12 14  1  0
 13 34  1  0
 13 35  1  0
 13 36  1  0
 14 15  1  0
 14 16  1  0
 15 37  1  0
 15 38  1  0
 15 39  1  0
 16 40  1  0
 16 41  1  0
 16 42  1  0
 17 18  1  6
 17 19  1  0
 18 43  1  0
 18 44  1  0
 18 45  1  0
 19 46  1  0
 19 47  1  0
M  END
>  <i_m_ct_stereo_status>  (417) 
1

>  <s_m_source_file>  (417) 
/var/tmp/pbs.5076255.sched01/tmpm28zzdm2/1449lyhn0we.sdf

>  <i_m_source_file_index>  (417) 
38

>  <i_lp_mmshare_version>  (417) 
48012

>  <i_f3d_flags>  (417) 
0

>  <s_epik_input>  (417) 
W0NIM11bQ0BAXTEyW0NAXShbQ0gzXSkoW0NIMl0yKVtDQEhdM1tDQEhdKFtDQEhdKFtPSF0pT1tDSDJdMSlbQ0BdNChbQ0gzXSlbQ0gyXVtDSDJdW0NASF0zQzQoW0NIM10pW0NIM10=

>  <s_epik_cmdline>  (417) 
J2VwaWtfcHl0aG9uJywgJy1waHQnLCAnMi4wJywgJy1waCcsICc3LjAnLCAnLXRuJywgJzgnLCAnLW1hJywgJzIwMCcsICctaW1hZScsICc8aW5maWxlLm1hZT4nLCAnLW9tYWUnLCAnPG91dGZpbGUubWFlPic=

>  <r_lp_tautomer_probability>  (417) 
1

>  <r_epik_Ionization_Penalty>  (417) 
6.00448e-08

>  <r_epik_Ionization_Penalty_Charging>  (417) 
0

>  <r_epik_Ionization_Penalty_Neutral>  (417) 
6.00448e-08

>  <r_epik_State_Penalty>  (417) 
-0

>  <r_epik_Charging_Adjusted_Penalty>  (417) 
0

>  <i_epik_Tot_Q>  (417) 
0

>  <i_epik_Tot_abs_Q>  (417) 
0

>  <s_epik_Chemistry_Notes>  (417) 
This compound contains an acetal/aminal-like group ( X-CH(R)-Y where X, Y are N, S, or O) that may be acid/base labile, releasing an aldehyde.

>  <s_lp_Force_Field>  (417) 
OPLS3e

>  <r_lp_Energy>  (417) 
57.7237

>  <b_lp_Chiralities_Consistent>  (417) 
1

>  <s_lp_Variant>  (417) 
113:0-1

>  <s_i_glide_gridfile>  (417) 
pfpi4k_grid

>  <i_i_glide_lignum>  (417) 
38

>  <i_i_glide_rotatable_bonds>  (417) 
1

>  <r_i_docking_score>  (417) 
-4.04802

>  <r_i_glide_ligand_efficiency>  (417) 
-0.213054

>  <r_i_glide_ligand_efficiency_sa>  (417) 
-0.568513

>  <r_i_glide_ligand_efficiency_ln>  (417) 
-1.02626

>  <r_i_glide_gscore>  (417) 
-4.04802

>  <r_i_glide_lipo>  (417) 
-0.592967

>  <r_i_glide_hbond>  (417) 
-0.16

>  <r_i_glide_metal>  (417) 
-0

>  <r_i_glide_rewards>  (417) 
-1.60634

>  <r_i_glide_evdw>  (417) 
-22.2492

>  <r_i_glide_ecoul>  (417) 
-3.79141

>  <r_i_glide_erotb>  (417) 
0

>  <r_i_glide_esite>  (417) 
-0.00754063

>  <r_i_glide_emodel>  (417) 
-31.9496

>  <r_i_glide_energy>  (417) 
-26.0407

>  <r_i_glide_einternal>  (417) 
0.561576

>  <r_i_glide_intrahb_reward>  (417) 
-0

>  <i_i_glide_confnum>  (417) 
1

>  <i_i_glide_posenum>  (417) 
9

>  <r_i_glide_eff_state_penalty>  (417) 
0

>  <ligand_id>  (417) 
113

>  <original_smiles>  (417) 
CC12COC(O)C3C(C4CCC3(C)C4(C)C)C1(C)C2

>  <smiles>  (417) 
[H]OC1([H])OC([H])([H])C2(C([H])([H])[H])C([H])([H])C2(C([H])([H])[H])C2([H])C3([H])C([H])([H])C([H])([H])C(C([H])([H])[H])(C12[H])C3(C([H])([H])[H])C([H])([H])[H]

$$$$
113:0:1
     RDKit          3D

 47 50  0  0  1  0  0  0  0  0999 V2000
    3.9590   -2.4106   -3.5628 C   0  0  0  0  0  0  0  0  0  0  0  0
    4.3874   -2.6630   -2.1244 C   0  0  2  0  0  0  0  0  0  0  0  0
    5.8367   -3.1436   -2.0690 C   0  0  0  0  0  0  0  0  0  0  0  0
    6.5006   -3.0056   -0.8090 O   0  0  0  0  0  0  0  0  0  0  0  0
    6.3955   -4.0368    0.1314 C   0  0  1  0  0  0  0  0  0  0  0  0
    7.4134   -3.8966    1.0851 O   0  0  0  0  0  0  0  0  0  0  0  0
    5.0046   -3.9372    0.7958 C   0  0  1  0  0  0  0  0  0  0  0  0
    3.9212   -4.3637   -0.2267 C   0  0  1  0  0  0  0  0  0  0  0  0
    2.9741   -5.2359    0.6553 C   0  0  1  0  0  0  0  0  0  0  0  0
    3.6766   -6.6108    0.7861 C   0  0  0  0  0  0  0  0  0  0  0  0
    4.8758   -6.3137    1.6964 C   0  0  0  0  0  0  0  0  0  0  0  0
    4.6765   -4.8213    2.0429 C   0  0  1  0  0  0  0  0  0  0  0  0
    5.3572   -4.4004    3.3554 C   0  0  0  0  0  0  0  0  0  0  0  0
    3.1237   -4.6822    2.0839 C   0  0  0  0  0  0  0  0  0  0  0  0
    2.5584   -3.2465    2.2496 C   0  0  0  0  0  0  0  0  0  0  0  0
    2.4038   -5.5272    3.1736 C   0  0  0  0  0  0  0  0  0  0  0  0
    3.3785   -3.2237   -1.1177 C   0  0  2  0  0  0  0  0  0  0  0  0
    1.9534   -3.4565   -1.5745 C   0  0  0  0  0  0  0  0  0  0  0  0
    3.8456   -1.7774   -1.0399 C   0  0  0  0  0  0  0  0  0  0  0  0
    4.6714   -1.7663   -4.0765 H   0  0  0  0  0  0  0  0  0  0  0  0
    2.9997   -1.8986   -3.6022 H   0  0  0  0  0  0  0  0  0  0  0  0
    3.8670   -3.3571   -4.0974 H   0  0  0  0  0  0  0  0  0  0  0  0
    5.8869   -4.1593   -2.4586 H   0  0  0  0  0  0  0  0  0  0  0  0
    6.4100   -2.5311   -2.7588 H   0  0  0  0  0  0  0  0  0  0  0  0
    6.5613   -5.0053   -0.3243 H   0  0  0  0  0  0  0  0  0  0  0  0
    7.2343   -3.1133    1.5792 H   0  0  0  0  0  0  0  0  0  0  0  0
    4.9056   -2.9074    1.1282 H   0  0  0  0  0  0  0  0  0  0  0  0
    4.3540   -5.0508   -0.9519 H   0  0  0  0  0  0  0  0  0  0  0  0
    1.9527   -5.3431    0.2944 H   0  0  0  0  0  0  0  0  0  0  0  0
    3.0196   -7.3520    1.2391 H   0  0  0  0  0  0  0  0  0  0  0  0
    4.0021   -7.0234   -0.1673 H   0  0  0  0  0  0  0  0  0  0  0  0
    4.8454   -6.9407    2.5866 H   0  0  0  0  0  0  0  0  0  0  0  0
    5.8289   -6.5217    1.2095 H   0  0  0  0  0  0  0  0  0  0  0  0
    4.9217   -4.9166    4.2096 H   0  0  0  0  0  0  0  0  0  0  0  0
    5.2728   -3.3277    3.5327 H   0  0  0  0  0  0  0  0  0  0  0  0
    6.4114   -4.6679    3.3446 H   0  0  0  0  0  0  0  0  0  0  0  0
    2.8686   -2.8084    3.1983 H   0  0  0  0  0  0  0  0  0  0  0  0
    1.4697   -3.2729    2.2516 H   0  0  0  0  0  0  0  0  0  0  0  0
    2.8291   -2.5487    1.4610 H   0  0  0  0  0  0  0  0  0  0  0  0
    2.4874   -5.0508    4.1500 H   0  0  0  0  0  0  0  0  0  0  0  0
    2.7764   -6.5421    3.3004 H   0  0  0  0  0  0  0  0  0  0  0  0
    1.3407   -5.6091    2.9502 H   0  0  0  0  0  0  0  0  0  0  0  0
    1.3026   -3.4667   -0.7215 H   0  0  0  0  0  0  0  0  0  0  0  0
    1.8111   -4.3857   -2.1040 H   0  0  0  0  0  0  0  0  0  0  0  0
    1.5951   -2.6526   -2.2064 H   0  0  0  0  0  0  0  0  0  0  0  0
    4.5537   -1.4407   -0.2939 H   0  0  0  0  0  0  0  0  0  0  0  0
    3.1202   -1.0232   -1.3330 H   0  0  0  0  0  0  0  0  0  0  0  0
  2  1  1  6
  1 20  1  0
  1 21  1  0
  1 22  1  0
  2 17  1  0
  2 19  1  0
  2  3  1  0
  3  4  1  0
  3 23  1  0
  3 24  1  0
  4  5  1  0
  5  6  1  0
  5  7  1  0
  5 25  1  6
  6 26  1  0
  7 12  1  0
  7  8  1  0
  7 27  1  1
  8  9  1  0
  8 17  1  0
  8 28  1  6
  9 14  1  0
  9 10  1  0
  9 29  1  6
 10 11  1  0
 10 30  1  0
 10 31  1  0
 11 12  1  0
 11 32  1  0
 11 33  1  0
 12 13  1  1
 12 14  1  0
 13 34  1  0
 13 35  1  0
 13 36  1  0
 14 15  1  0
 14 16  1  0
 15 37  1  0
 15 38  1  0
 15 39  1  0
 16 40  1  0
 16 41  1  0
 16 42  1  0
 17 18  1  6
 17 19  1  0
 18 43  1  0
 18 44  1  0
 18 45  1  0
 19 46  1  0
 19 47  1  0
M  END
>  <i_m_ct_stereo_status>  (418) 
1

>  <s_m_source_file>  (418) 
/var/tmp/pbs.5076255.sched01/tmpm28zzdm2/1449lyhn0we.sdf

>  <i_m_source_file_index>  (418) 
38

>  <i_lp_mmshare_version>  (418) 
48012

>  <i_f3d_flags>  (418) 
0

>  <s_epik_input>  (418) 
W0NIM11bQ0BAXTEyW0NAXShbQ0gzXSkoW0NIMl0yKVtDQEhdM1tDQEhdKFtDQEhdKFtPSF0pT1tDSDJdMSlbQ0BdNChbQ0gzXSlbQ0gyXVtDSDJdW0NASF0zQzQoW0NIM10pW0NIM10=

>  <s_epik_cmdline>  (418) 
J2VwaWtfcHl0aG9uJywgJy1waHQnLCAnMi4wJywgJy1waCcsICc3LjAnLCAnLXRuJywgJzgnLCAnLW1hJywgJzIwMCcsICctaW1hZScsICc8aW5maWxlLm1hZT4nLCAnLW9tYWUnLCAnPG91dGZpbGUubWFlPic=

>  <r_lp_tautomer_probability>  (418) 
1

>  <r_epik_Ionization_Penalty>  (418) 
6.00448e-08

>  <r_epik_Ionization_Penalty_Charging>  (418) 
0

>  <r_epik_Ionization_Penalty_Neutral>  (418) 
6.00448e-08

>  <r_epik_State_Penalty>  (418) 
-0

>  <r_epik_Charging_Adjusted_Penalty>  (418) 
0

>  <i_epik_Tot_Q>  (418) 
0

>  <i_epik_Tot_abs_Q>  (418) 
0

>  <s_epik_Chemistry_Notes>  (418) 
This compound contains an acetal/aminal-like group ( X-CH(R)-Y where X, Y are N, S, or O) that may be acid/base labile, releasing an aldehyde.

>  <s_lp_Force_Field>  (418) 
OPLS3e

>  <r_lp_Energy>  (418) 
57.7237

>  <b_lp_Chiralities_Consistent>  (418) 
1

>  <s_lp_Variant>  (418) 
113:0-1

>  <s_i_glide_gridfile>  (418) 
pfpi4k_grid

>  <i_i_glide_lignum>  (418) 
38

>  <i_i_glide_rotatable_bonds>  (418) 
1

>  <r_i_docking_score>  (418) 
-3.42479

>  <r_i_glide_ligand_efficiency>  (418) 
-0.180252

>  <r_i_glide_ligand_efficiency_sa>  (418) 
-0.480985

>  <r_i_glide_ligand_efficiency_ln>  (418) 
-0.868258

>  <r_i_glide_gscore>  (418) 
-3.42479

>  <r_i_glide_lipo>  (418) 
-0.659089

>  <r_i_glide_hbond>  (418) 
0

>  <r_i_glide_metal>  (418) 
-0

>  <r_i_glide_rewards>  (418) 
-1.72687

>  <r_i_glide_evdw>  (418) 
-19.8367

>  <r_i_glide_ecoul>  (418) 
-0.313339

>  <r_i_glide_erotb>  (418) 
0

>  <r_i_glide_esite>  (418) 
0

>  <r_i_glide_emodel>  (418) 
-25.5284

>  <r_i_glide_energy>  (418) 
-20.15

>  <r_i_glide_einternal>  (418) 
0.0190717

>  <r_i_glide_intrahb_reward>  (418) 
-0

>  <i_i_glide_confnum>  (418) 
1

>  <i_i_glide_posenum>  (418) 
7

>  <r_i_glide_eff_state_penalty>  (418) 
0

>  <ligand_id>  (418) 
113

>  <original_smiles>  (418) 
CC12COC(O)C3C(C4CCC3(C)C4(C)C)C1(C)C2

>  <smiles>  (418) 
[H]OC1([H])OC([H])([H])C2(C([H])([H])[H])C([H])([H])C2(C([H])([H])[H])C2([H])C3([H])C([H])([H])C([H])([H])C(C([H])([H])[H])(C12[H])C3(C([H])([H])[H])C([H])([H])[H]

$$$$
113:0:2
     RDKit          3D

 47 50  0  0  1  0  0  0  0  0999 V2000
    3.3627   -2.9296   -4.0364 C   0  0  0  0  0  0  0  0  0  0  0  0
    3.8933   -2.5893   -2.6603 C   0  0  2  0  0  0  0  0  0  0  0  0
    5.4148   -2.7217   -2.6106 C   0  0  0  0  0  0  0  0  0  0  0  0
    6.0754   -1.9831   -1.5781 O   0  0  0  0  0  0  0  0  0  0  0  0
    6.2311   -2.6056   -0.3429 C   0  0  1  0  0  0  0  0  0  0  0  0
    7.2200   -1.9289    0.3883 O   0  0  0  0  0  0  0  0  0  0  0  0
    4.8688   -2.5642    0.3927 C   0  0  1  0  0  0  0  0  0  0  0  0
    3.8752   -3.5352   -0.2832 C   0  0  1  0  0  0  0  0  0  0  0  0
    3.1711   -4.1927    0.9405 C   0  0  1  0  0  0  0  0  0  0  0  0
    4.1605   -5.2733    1.4383 C   0  0  0  0  0  0  0  0  0  0  0  0
    5.2959   -4.4322    2.0548 C   0  0  0  0  0  0  0  0  0  0  0  0
    4.7833   -2.9825    1.8939 C   0  0  1  0  0  0  0  0  0  0  0  0
    5.3794   -1.9677    2.8843 C   0  0  0  0  0  0  0  0  0  0  0  0
    3.2423   -3.1448    2.0632 C   0  0  0  0  0  0  0  0  0  0  0  0
    2.3773   -1.8827    1.7960 C   0  0  0  0  0  0  0  0  0  0  0  0
    2.7691   -3.6660    3.4482 C   0  0  0  0  0  0  0  0  0  0  0  0
    3.0654   -2.9008   -1.4246 C   0  0  2  0  0  0  0  0  0  0  0  0
    1.7168   -3.5519   -1.5939 C   0  0  0  0  0  0  0  0  0  0  0  0
    3.2406   -1.4727   -1.9275 C   0  0  0  0  0  0  0  0  0  0  0  0
    3.8989   -2.3387   -4.7658 H   0  0  0  0  0  0  0  0  0  0  0  0
    2.3136   -2.6603   -4.1416 H   0  0  0  0  0  0  0  0  0  0  0  0
    3.4744   -3.9917   -4.2444 H   0  0  0  0  0  0  0  0  0  0  0  0
    5.7029   -3.7768   -2.6479 H   0  0  0  0  0  0  0  0  0  0  0  0
    5.7910   -2.2660   -3.5223 H   0  0  0  0  0  0  0  0  0  0  0  0
    6.5960   -3.6179   -0.5016 H   0  0  0  0  0  0  0  0  0  0  0  0
    6.8194   -1.1621    0.7629 H   0  0  0  0  0  0  0  0  0  0  0  0
    4.5557   -1.5303    0.3670 H   0  0  0  0  0  0  0  0  0  0  0  0
    4.4197   -4.3389   -0.7829 H   0  0  0  0  0  0  0  0  0  0  0  0
    2.1860   -4.6095    0.7486 H   0  0  0  0  0  0  0  0  0  0  0  0
    3.6972   -5.9092    2.1903 H   0  0  0  0  0  0  0  0  0  0  0  0
    4.5190   -5.9356    0.6492 H   0  0  0  0  0  0  0  0  0  0  0  0
    5.4392   -4.6858    3.1042 H   0  0  0  0  0  0  0  0  0  0  0  0
    6.2542   -4.5971    1.5621 H   0  0  0  0  0  0  0  0  0  0  0  0
    5.1269   -2.2326    3.9122 H   0  0  0  0  0  0  0  0  0  0  0  0
    5.0293   -0.9503    2.7052 H   0  0  0  0  0  0  0  0  0  0  0  0
    6.4569   -1.9631    2.8050 H   0  0  0  0  0  0  0  0  0  0  0  0
    2.6152   -1.0863    2.5013 H   0  0  0  0  0  0  0  0  0  0  0  0
    1.3219   -2.1189    1.9200 H   0  0  0  0  0  0  0  0  0  0  0  0
    2.4692   -1.4626    0.7989 H   0  0  0  0  0  0  0  0  0  0  0  0
    2.7855   -2.8626    4.1833 H   0  0  0  0  0  0  0  0  0  0  0  0
    3.3653   -4.4728    3.8676 H   0  0  0  0  0  0  0  0  0  0  0  0
    1.7421   -4.0273    3.3871 H   0  0  0  0  0  0  0  0  0  0  0  0
    1.1302   -3.3545   -0.7150 H   0  0  0  0  0  0  0  0  0  0  0  0
    1.8025   -4.6238   -1.7357 H   0  0  0  0  0  0  0  0  0  0  0  0
    1.1650   -3.1220   -2.4259 H   0  0  0  0  0  0  0  0  0  0  0  0
    3.8799   -0.7537   -1.4280 H   0  0  0  0  0  0  0  0  0  0  0  0
    2.3756   -1.0131   -2.3973 H   0  0  0  0  0  0  0  0  0  0  0  0
  2  1  1  6
  1 20  1  0
  1 21  1  0
  1 22  1  0
  2 17  1  0
  2 19  1  0
  2  3  1  0
  3  4  1  0
  3 23  1  0
  3 24  1  0
  4  5  1  0
  5  6  1  0
  5  7  1  0
  5 25  1  6
  6 26  1  0
  7 12  1  0
  7  8  1  0
  7 27  1  1
  8  9  1  0
  8 17  1  0
  8 28  1  6
  9 14  1  0
  9 10  1  0
  9 29  1  6
 10 11  1  0
 10 30  1  0
 10 31  1  0
 11 12  1  0
 11 32  1  0
 11 33  1  0
 12 13  1  1
 12 14  1  0
 13 34  1  0
 13 35  1  0
 13 36  1  0
 14 15  1  0
 14 16  1  0
 15 37  1  0
 15 38  1  0
 15 39  1  0
 16 40  1  0
 16 41  1  0
 16 42  1  0
 17 18  1  6
 17 19  1  0
 18 43  1  0
 18 44  1  0
 18 45  1  0
 19 46  1  0
 19 47  1  0
M  END
>  <i_m_ct_stereo_status>  (419) 
1

>  <s_m_source_file>  (419) 
/var/tmp/pbs.5076255.sched01/tmpm28zzdm2/1449lyhn0we.sdf

>  <i_m_source_file_index>  (419) 
38

>  <i_lp_mmshare_version>  (419) 
48012

>  <i_f3d_flags>  (419) 
0

>  <s_epik_input>  (419) 
W0NIM11bQ0BAXTEyW0NAXShbQ0gzXSkoW0NIMl0yKVtDQEhdM1tDQEhdKFtDQEhdKFtPSF0pT1tDSDJdMSlbQ0BdNChbQ0gzXSlbQ0gyXVtDSDJdW0NASF0zQzQoW0NIM10pW0NIM10=

>  <s_epik_cmdline>  (419) 
J2VwaWtfcHl0aG9uJywgJy1waHQnLCAnMi4wJywgJy1waCcsICc3LjAnLCAnLXRuJywgJzgnLCAnLW1hJywgJzIwMCcsICctaW1hZScsICc8aW5maWxlLm1hZT4nLCAnLW9tYWUnLCAnPG91dGZpbGUubWFlPic=

>  <r_lp_tautomer_probability>  (419) 
1

>  <r_epik_Ionization_Penalty>  (419) 
6.00448e-08

>  <r_epik_Ionization_Penalty_Charging>  (419) 
0

>  <r_epik_Ionization_Penalty_Neutral>  (419) 
6.00448e-08

>  <r_epik_State_Penalty>  (419) 
-0

>  <r_epik_Charging_Adjusted_Penalty>  (419) 
0

>  <i_epik_Tot_Q>  (419) 
0

>  <i_epik_Tot_abs_Q>  (419) 
0

>  <s_epik_Chemistry_Notes>  (419) 
This compound contains an acetal/aminal-like group ( X-CH(R)-Y where X, Y are N, S, or O) that may be acid/base labile, releasing an aldehyde.

>  <s_lp_Force_Field>  (419) 
OPLS3e

>  <r_lp_Energy>  (419) 
57.7237

>  <b_lp_Chiralities_Consistent>  (419) 
1

>  <s_lp_Variant>  (419) 
113:0-1

>  <s_i_glide_gridfile>  (419) 
pfpi4k_grid

>  <i_i_glide_lignum>  (419) 
38

>  <i_i_glide_rotatable_bonds>  (419) 
1

>  <r_i_docking_score>  (419) 
-3.18369

>  <r_i_glide_ligand_efficiency>  (419) 
-0.167563

>  <r_i_glide_ligand_efficiency_sa>  (419) 
-0.447124

>  <r_i_glide_ligand_efficiency_ln>  (419) 
-0.807133

>  <r_i_glide_gscore>  (419) 
-3.18369

>  <r_i_glide_lipo>  (419) 
-0.396396

>  <r_i_glide_hbond>  (419) 
-0.0940215

>  <r_i_glide_metal>  (419) 
-0

>  <r_i_glide_rewards>  (419) 
-1.60634

>  <r_i_glide_evdw>  (419) 
-16.8808

>  <r_i_glide_ecoul>  (419) 
-1.59491

>  <r_i_glide_erotb>  (419) 
0

>  <r_i_glide_esite>  (419) 
-0.00365152

>  <r_i_glide_emodel>  (419) 
-23.2106

>  <r_i_glide_energy>  (419) 
-18.4757

>  <r_i_glide_einternal>  (419) 
0.266256

>  <r_i_glide_intrahb_reward>  (419) 
-0

>  <i_i_glide_confnum>  (419) 
2

>  <i_i_glide_posenum>  (419) 
13

>  <r_i_glide_eff_state_penalty>  (419) 
0

>  <ligand_id>  (419) 
113

>  <original_smiles>  (419) 
CC12COC(O)C3C(C4CCC3(C)C4(C)C)C1(C)C2

>  <smiles>  (419) 
[H]OC1([H])OC([H])([H])C2(C([H])([H])[H])C([H])([H])C2(C([H])([H])[H])C2([H])C3([H])C([H])([H])C([H])([H])C(C([H])([H])[H])(C12[H])C3(C([H])([H])[H])C([H])([H])[H]

$$$$
116:0:0
     RDKit          3D

 43 48  0  0  1  0  0  0  0  0999 V2000
   -3.0845    2.9408    4.1307 O   0  0  0  0  0  0  0  0  0  0  0  0
   -2.0698    2.2499    4.8239 C   0  0  0  0  0  0  0  0  0  0  0  0
   -1.1718    1.4897    3.8302 C   0  0  2  0  0  0  0  0  0  0  0  0
   -0.1282    0.7972    4.5367 O   0  0  0  0  0  0  0  0  0  0  0  0
    1.1300    1.3752    4.3063 C   0  0  1  0  0  0  0  0  0  0  0  0
    1.9443    0.4470    3.4334 N   0  0  0  0  0  0  0  0  0  0  0  0
    1.5468   -0.3404    2.3668 C   0  0  0  0  0  0  0  0  0  0  0  0
    2.4971   -0.9619    1.7286 N   0  0  0  0  0  0  0  0  0  0  0  0
    3.6432   -0.6445    2.4379 C   0  0  0  0  0  0  0  0  0  0  0  0
    5.0062   -1.0096    2.3090 C   0  0  0  0  0  0  0  0  0  0  0  0
    5.4210   -1.8342    1.2183 N   0  0  0  0  0  0  0  0  0  0  0  0
    4.6104   -2.2905    0.0664 C   0  0  0  0  0  0  0  0  0  0  0  0
    5.7220   -2.8032   -0.8824 C   0  0  1  0  0  0  0  0  0  0  0  0
    6.7047   -1.8100   -0.5785 O   0  0  0  0  0  0  0  0  0  0  0  0
    6.8332   -2.0165    0.7978 C   0  0  2  0  0  0  0  0  0  0  0  0
    7.1612   -3.5016    0.8608 C   0  0  2  0  0  0  0  0  0  0  0  0
    7.8449   -4.0845   -0.2610 O   0  0  0  0  0  0  0  0  0  0  0  0
    6.4057   -4.0366   -0.2999 C   0  0  2  0  0  0  0  0  0  0  0  0
    5.8540   -0.5198    3.2474 N   0  0  0  0  0  0  0  0  0  0  0  0
    5.4136    0.2656    4.2244 C   0  0  0  0  0  0  0  0  0  0  0  0
    4.1760    0.7107    4.4461 N   0  0  0  0  0  0  0  0  0  0  0  0
    3.3016    0.2250    3.5205 C   0  0  0  0  0  0  0  0  0  0  0  0
    0.8497    2.7219    3.6147 C   0  0  1  0  0  0  0  0  0  0  0  0
    1.8681    3.1982    2.7620 O   0  0  0  0  0  0  0  0  0  0  0  0
   -0.4556    2.4546    2.8872 C   0  0  1  0  0  0  0  0  0  0  0  0
   -0.2780    1.7599    1.6986 O   0  0  0  0  0  0  0  0  0  0  0  0
   -3.5523    2.3207    3.5886 H   0  0  0  0  0  0  0  0  0  0  0  0
   -1.4935    2.9689    5.4040 H   0  0  0  0  0  0  0  0  0  0  0  0
   -2.5157    1.5611    5.5418 H   0  0  0  0  0  0  0  0  0  0  0  0
   -1.7716    0.7697    3.2719 H   0  0  0  0  0  0  0  0  0  0  0  0
    1.6870    1.4565    5.2422 H   0  0  0  0  0  0  0  0  0  0  0  0
    0.5291   -0.4171    2.0310 H   0  0  0  0  0  0  0  0  0  0  0  0
    3.8736   -3.0498    0.3289 H   0  0  0  0  0  0  0  0  0  0  0  0
    4.0821   -1.4487   -0.3685 H   0  0  0  0  0  0  0  0  0  0  0  0
    5.4574   -2.8919   -1.9382 H   0  0  0  0  0  0  0  0  0  0  0  0
    7.4561   -1.3093    1.3446 H   0  0  0  0  0  0  0  0  0  0  0  0
    7.1549   -4.0592    1.7980 H   0  0  0  0  0  0  0  0  0  0  0  0
    5.8927   -5.0023   -0.2670 H   0  0  0  0  0  0  0  0  0  0  0  0
    6.1791    0.6196    4.8941 H   0  0  0  0  0  0  0  0  0  0  0  0
    0.6677    3.4655    4.3923 H   0  0  0  0  0  0  0  0  0  0  0  0
    1.4778    3.7689    2.1069 H   0  0  0  0  0  0  0  0  0  0  0  0
   -1.0135    3.3775    2.6922 H   0  0  0  0  0  0  0  0  0  0  0  0
    0.0637    2.4014    1.0716 H   0  0  0  0  0  0  0  0  0  0  0  0
  1  2  1  0
  1 27  1  0
  2  3  1  0
  2 28  1  0
  2 29  1  0
  3 25  1  0
  3  4  1  0
  3 30  1  6
  4  5  1  0
  5  6  1  0
  5 23  1  0
  5 31  1  1
  6 22  1  0
  6  7  1  0
  7  8  2  0
  7 32  1  0
  8  9  1  0
  9 22  2  0
  9 10  1  0
 10 11  1  0
 10 19  2  0
 11 15  1  0
 11 12  1  0
 12 13  1  0
 12 33  1  0
 12 34  1  0
 13 18  1  0
 13 14  1  0
 13 35  1  6
 14 15  1  0
 15 16  1  0
 15 36  1  1
 16 18  1  0
 16 17  1  0
 16 37  1  1
 17 18  1  0
 18 38  1  1
 19 20  1  0
 20 21  2  0
 20 39  1  0
 21 22  1  0
 23 24  1  0
 23 25  1  0
 23 40  1  1
 24 41  1  0
 25 26  1  0
 25 42  1  6
 26 43  1  0
M  END
>  <i_m_ct_stereo_status>  (420) 
1

>  <s_m_source_file>  (420) 
/var/tmp/pbs.5076255.sched01/tmpm28zzdm2/1449lyhn0we.sdf

>  <i_m_source_file_index>  (420) 
44

>  <i_lp_mmshare_version>  (420) 
48012

>  <i_f3d_flags>  (420) 
0

>  <s_epik_input>  (420) 
W09IXVtDSDJdW0NAQEhdMU9bQ0BIXShbQ0BASF0oW09IXSlbQ0BIXTFbT0hdKW4oW2NIXW4yKWMoYzIzKW5bY0hdbmMzTihbQ0gyXTQpW0NASF0oTzUpW0NASF0oTzYpW0NASF02W0NAQEhdNDU=

>  <s_epik_cmdline>  (420) 
J2VwaWtfcHl0aG9uJywgJy1waHQnLCAnMi4wJywgJy1waCcsICc3LjAnLCAnLXRuJywgJzgnLCAnLW1hJywgJzIwMCcsICctaW1hZScsICc8aW5maWxlLm1hZT4nLCAnLW9tYWUnLCAnPG91dGZpbGUubWFlPic=

>  <r_lp_tautomer_probability>  (420) 
1

>  <r_epik_Ionization_Penalty>  (420) 
0.000273133

>  <r_epik_Ionization_Penalty_Charging>  (420) 
0

>  <r_epik_Ionization_Penalty_Neutral>  (420) 
0.000273133

>  <r_epik_State_Penalty>  (420) 
-0

>  <r_epik_Charging_Adjusted_Penalty>  (420) 
0

>  <i_epik_Tot_Q>  (420) 
0

>  <i_epik_Tot_abs_Q>  (420) 
0

>  <s_epik_Chemistry_Notes>  (420) 
This compound contains an acetal/aminal-like group ( X-CH(R)-Y where X, Y are N, S, or O) that may be acid/base labile, releasing an aldehyde.

>  <s_lp_Force_Field>  (420) 
OPLS3e

>  <r_lp_Energy>  (420) 
43.6286

>  <b_lp_Chiralities_Consistent>  (420) 
1

>  <s_lp_Variant>  (420) 
116:0-1

>  <s_i_glide_gridfile>  (420) 
pfpi4k_grid

>  <i_i_glide_lignum>  (420) 
44

>  <i_i_glide_rotatable_bonds>  (420) 
6

>  <r_i_docking_score>  (420) 
-3.59028

>  <r_i_glide_ligand_efficiency>  (420) 
-0.138088

>  <r_i_glide_ligand_efficiency_sa>  (420) 
-0.409084

>  <r_i_glide_ligand_efficiency_ln>  (420) 
-0.843166

>  <r_i_glide_gscore>  (420) 
-3.59028

>  <r_i_glide_lipo>  (420) 
-0.272204

>  <r_i_glide_hbond>  (420) 
-0.256511

>  <r_i_glide_metal>  (420) 
-0

>  <r_i_glide_rewards>  (420) 
-1.24694

>  <r_i_glide_evdw>  (420) 
-22.6065

>  <r_i_glide_ecoul>  (420) 
-7.12832

>  <r_i_glide_erotb>  (420) 
0.436622

>  <r_i_glide_esite>  (420) 
-0.0516713

>  <r_i_glide_emodel>  (420) 
-35.7327

>  <r_i_glide_energy>  (420) 
-29.7349

>  <r_i_glide_einternal>  (420) 
2.99409

>  <r_i_glide_intrahb_reward>  (420) 
-0

>  <i_i_glide_confnum>  (420) 
2

>  <i_i_glide_posenum>  (420) 
3

>  <r_i_glide_eff_state_penalty>  (420) 
0

>  <ligand_id>  (420) 
116

>  <original_smiles>  (420) 
OCC1OC(n2cnc3c(N4CC5OC4C4OC54)ncnc32)C(O)C1O

>  <smiles>  (420) 
[H]OC([H])([H])C1([H])OC([H])(n2c([H])nc3c(N4C([H])([H])C5([H])OC4([H])C4([H])OC54[H])nc([H])nc32)C([H])(O[H])C1([H])O[H]

$$$$
116:0:1
     RDKit          3D

 43 48  0  0  1  0  0  0  0  0999 V2000
   -1.4135    4.9435    3.2801 O   0  0  0  0  0  0  0  0  0  0  0  0
   -0.4938    4.3387    4.1696 C   0  0  0  0  0  0  0  0  0  0  0  0
   -0.6758    2.7979    4.2240 C   0  0  2  0  0  0  0  0  0  0  0  0
    0.4413    2.2202    4.9298 O   0  0  0  0  0  0  0  0  0  0  0  0
    1.3034    1.5083    4.0787 C   0  0  1  0  0  0  0  0  0  0  0  0
    1.1187    0.0276    4.3408 N   0  0  0  0  0  0  0  0  0  0  0  0
    0.0892   -0.6147    4.9951 C   0  0  0  0  0  0  0  0  0  0  0  0
    0.1657   -1.9171    5.0417 N   0  0  0  0  0  0  0  0  0  0  0  0
    1.3376   -2.2218    4.3498 C   0  0  0  0  0  0  0  0  0  0  0  0
    2.0200   -3.4284    3.9857 C   0  0  0  0  0  0  0  0  0  0  0  0
    1.4666   -4.6916    4.3516 N   0  0  0  0  0  0  0  0  0  0  0  0
    0.1870   -4.9453    5.0479 C   0  0  0  0  0  0  0  0  0  0  0  0
    0.0147   -6.4602    4.7876 C   0  0  1  0  0  0  0  0  0  0  0  0
    0.5517   -6.4754    3.4564 O   0  0  0  0  0  0  0  0  0  0  0  0
    1.8400   -5.9836    3.6994 C   0  0  2  0  0  0  0  0  0  0  0  0
    2.3344   -6.9179    4.7936 C   0  0  2  0  0  0  0  0  0  0  0  0
    1.8312   -8.2694    4.8264 O   0  0  0  0  0  0  0  0  0  0  0  0
    1.0871   -7.2567    5.5305 C   0  0  2  0  0  0  0  0  0  0  0  0
    3.1569   -3.2941    3.2584 N   0  0  0  0  0  0  0  0  0  0  0  0
    3.6143   -2.0938    2.9178 C   0  0  0  0  0  0  0  0  0  0  0  0
    3.0961   -0.9010    3.1926 N   0  0  0  0  0  0  0  0  0  0  0  0
    1.9428   -1.0031    3.9134 C   0  0  0  0  0  0  0  0  0  0  0  0
    0.8700    1.8926    2.6550 C   0  0  1  0  0  0  0  0  0  0  0  0
    1.1259    0.9391    1.6513 O   0  0  0  0  0  0  0  0  0  0  0  0
   -0.6180    2.1490    2.8364 C   0  0  1  0  0  0  0  0  0  0  0  0
   -1.3798    0.9522    2.8462 O   0  0  0  0  0  0  0  0  0  0  0  0
   -1.1098    4.7692    2.3913 H   0  0  0  0  0  0  0  0  0  0  0  0
    0.5160    4.6075    3.8488 H   0  0  0  0  0  0  0  0  0  0  0  0
   -0.6294    4.7695    5.1639 H   0  0  0  0  0  0  0  0  0  0  0  0
   -1.6230    2.5862    4.7315 H   0  0  0  0  0  0  0  0  0  0  0  0
    2.3541    1.7062    4.3025 H   0  0  0  0  0  0  0  0  0  0  0  0
   -0.7452   -0.0679    5.4030 H   0  0  0  0  0  0  0  0  0  0  0  0
    0.2054   -4.6732    6.1055 H   0  0  0  0  0  0  0  0  0  0  0  0
   -0.5865   -4.3740    4.5520 H   0  0  0  0  0  0  0  0  0  0  0  0
   -0.9955   -6.8671    4.8920 H   0  0  0  0  0  0  0  0  0  0  0  0
    2.4900   -5.7805    2.8396 H   0  0  0  0  0  0  0  0  0  0  0  0
    3.2463   -6.7127    5.3553 H   0  0  0  0  0  0  0  0  0  0  0  0
    1.0620   -7.3666    6.6172 H   0  0  0  0  0  0  0  0  0  0  0  0
    4.5151   -2.1058    2.3306 H   0  0  0  0  0  0  0  0  0  0  0  0
    1.3678    2.8241    2.3830 H   0  0  0  0  0  0  0  0  0  0  0  0
    2.0423    0.7159    1.6552 H   0  0  0  0  0  0  0  0  0  0  0  0
   -1.0298    2.7860    2.0578 H   0  0  0  0  0  0  0  0  0  0  0  0
   -2.3032    1.1625    2.8506 H   0  0  0  0  0  0  0  0  0  0  0  0
  1  2  1  0
  1 27  1  0
  2  3  1  0
  2 28  1  0
  2 29  1  0
  3 25  1  0
  3  4  1  0
  3 30  1  1
  4  5  1  0
  5  6  1  0
  5 23  1  0
  5 31  1  1
  6 22  1  0
  6  7  1  0
  7  8  2  0
  7 32  1  0
  8  9  1  0
  9 22  2  0
  9 10  1  0
 10 11  1  0
 10 19  2  0
 11 15  1  0
 11 12  1  0
 12 13  1  0
 12 33  1  0
 12 34  1  0
 13 18  1  0
 13 14  1  0
 13 35  1  6
 14 15  1  0
 15 16  1  0
 15 36  1  6
 16 18  1  0
 16 17  1  0
 16 37  1  1
 17 18  1  0
 18 38  1  1
 19 20  1  0
 20 21  2  0
 20 39  1  0
 21 22  1  0
 23 24  1  0
 23 25  1  0
 23 40  1  6
 24 41  1  0
 25 26  1  0
 25 42  1  6
 26 43  1  0
M  END
>  <i_m_ct_stereo_status>  (421) 
1

>  <s_m_source_file>  (421) 
/var/tmp/pbs.5076255.sched01/tmpm28zzdm2/1449lyhn0we.sdf

>  <i_m_source_file_index>  (421) 
44

>  <i_lp_mmshare_version>  (421) 
48012

>  <i_f3d_flags>  (421) 
0

>  <s_epik_input>  (421) 
W09IXVtDSDJdW0NAQEhdMU9bQ0BIXShbQ0BASF0oW09IXSlbQ0BIXTFbT0hdKW4oW2NIXW4yKWMoYzIzKW5bY0hdbmMzTihbQ0gyXTQpW0NASF0oTzUpW0NASF0oTzYpW0NASF02W0NAQEhdNDU=

>  <s_epik_cmdline>  (421) 
J2VwaWtfcHl0aG9uJywgJy1waHQnLCAnMi4wJywgJy1waCcsICc3LjAnLCAnLXRuJywgJzgnLCAnLW1hJywgJzIwMCcsICctaW1hZScsICc8aW5maWxlLm1hZT4nLCAnLW9tYWUnLCAnPG91dGZpbGUubWFlPic=

>  <r_lp_tautomer_probability>  (421) 
1

>  <r_epik_Ionization_Penalty>  (421) 
0.000273133

>  <r_epik_Ionization_Penalty_Charging>  (421) 
0

>  <r_epik_Ionization_Penalty_Neutral>  (421) 
0.000273133

>  <r_epik_State_Penalty>  (421) 
-0

>  <r_epik_Charging_Adjusted_Penalty>  (421) 
0

>  <i_epik_Tot_Q>  (421) 
0

>  <i_epik_Tot_abs_Q>  (421) 
0

>  <s_epik_Chemistry_Notes>  (421) 
This compound contains an acetal/aminal-like group ( X-CH(R)-Y where X, Y are N, S, or O) that may be acid/base labile, releasing an aldehyde.

>  <s_lp_Force_Field>  (421) 
OPLS3e

>  <r_lp_Energy>  (421) 
43.6286

>  <b_lp_Chiralities_Consistent>  (421) 
1

>  <s_lp_Variant>  (421) 
116:0-1

>  <s_i_glide_gridfile>  (421) 
pfpi4k_grid

>  <i_i_glide_lignum>  (421) 
44

>  <i_i_glide_rotatable_bonds>  (421) 
6

>  <r_i_docking_score>  (421) 
-3.28976

>  <r_i_glide_ligand_efficiency>  (421) 
-0.126529

>  <r_i_glide_ligand_efficiency_sa>  (421) 
-0.374843

>  <r_i_glide_ligand_efficiency_ln>  (421) 
-0.77259

>  <r_i_glide_gscore>  (421) 
-3.28976

>  <r_i_glide_lipo>  (421) 
-0.00599819

>  <r_i_glide_hbond>  (421) 
-0.303321

>  <r_i_glide_metal>  (421) 
-0

>  <r_i_glide_rewards>  (421) 
-1.43187

>  <r_i_glide_evdw>  (421) 
-18.0644

>  <r_i_glide_ecoul>  (421) 
-7.00356

>  <r_i_glide_erotb>  (421) 
0.436622

>  <r_i_glide_esite>  (421) 
-0.0314408

>  <r_i_glide_emodel>  (421) 
-36.0887

>  <r_i_glide_energy>  (421) 
-25.0679

>  <r_i_glide_einternal>  (421) 
2.3648

>  <r_i_glide_intrahb_reward>  (421) 
-0.5

>  <i_i_glide_confnum>  (421) 
2

>  <i_i_glide_posenum>  (421) 
38

>  <r_i_glide_eff_state_penalty>  (421) 
0

>  <ligand_id>  (421) 
116

>  <original_smiles>  (421) 
OCC1OC(n2cnc3c(N4CC5OC4C4OC54)ncnc32)C(O)C1O

>  <smiles>  (421) 
[H]OC([H])([H])C1([H])OC([H])(n2c([H])nc3c(N4C([H])([H])C5([H])OC4([H])C4([H])OC54[H])nc([H])nc32)C([H])(O[H])C1([H])O[H]

$$$$
116:0:2
     RDKit          3D

 43 48  0  0  1  0  0  0  0  0999 V2000
    3.5108   -1.8635   -4.0300 O   0  0  0  0  0  0  0  0  0  0  0  0
    3.7132   -1.1386   -2.8400 C   0  0  0  0  0  0  0  0  0  0  0  0
    4.5033   -2.0023   -1.8118 C   0  0  2  0  0  0  0  0  0  0  0  0
    3.5891   -2.5303   -0.8496 O   0  0  0  0  0  0  0  0  0  0  0  0
    3.3820   -1.5601    0.1311 C   0  0  1  0  0  0  0  0  0  0  0  0
    2.7819   -2.1906    1.3535 N   0  0  0  0  0  0  0  0  0  0  0  0
    3.0193   -3.4397    1.8675 C   0  0  0  0  0  0  0  0  0  0  0  0
    2.4087   -3.7036    2.9981 N   0  0  0  0  0  0  0  0  0  0  0  0
    1.7077   -2.5289    3.2988 C   0  0  0  0  0  0  0  0  0  0  0  0
    0.8604   -2.0822    4.3733 C   0  0  0  0  0  0  0  0  0  0  0  0
    0.6358   -2.9663    5.4798 N   0  0  0  0  0  0  0  0  0  0  0  0
    1.3546   -4.2345    5.7750 C   0  0  0  0  0  0  0  0  0  0  0  0
    0.9212   -4.4373    7.2395 C   0  0  1  0  0  0  0  0  0  0  0  0
    0.9130   -3.0490    7.6237 O   0  0  0  0  0  0  0  0  0  0  0  0
   -0.0201   -2.5125    6.7382 C   0  0  2  0  0  0  0  0  0  0  0  0
   -1.2073   -3.4455    6.9631 C   0  0  2  0  0  0  0  0  0  0  0  0
   -1.4160   -4.0274    8.2617 O   0  0  0  0  0  0  0  0  0  0  0  0
   -0.5776   -4.7362    7.3207 C   0  0  2  0  0  0  0  0  0  0  0  0
    0.3276   -0.8395    4.2433 N   0  0  0  0  0  0  0  0  0  0  0  0
    0.6316   -0.0516    3.2112 C   0  0  0  0  0  0  0  0  0  0  0  0
    1.4246   -0.3099    2.1836 N   0  0  0  0  0  0  0  0  0  0  0  0
    1.9382   -1.5871    2.2519 C   0  0  0  0  0  0  0  0  0  0  0  0
    4.7392   -0.9123    0.3803 C   0  0  1  0  0  0  0  0  0  0  0  0
    5.4290   -1.3585    1.5450 O   0  0  0  0  0  0  0  0  0  0  0  0
    5.4781   -1.1841   -0.9414 C   0  0  1  0  0  0  0  0  0  0  0  0
    6.7007   -1.8772   -0.7670 O   0  0  0  0  0  0  0  0  0  0  0  0
    2.8342   -2.4997   -3.8513 H   0  0  0  0  0  0  0  0  0  0  0  0
    4.2478   -0.2255   -3.0957 H   0  0  0  0  0  0  0  0  0  0  0  0
    2.7376   -0.8071   -2.4772 H   0  0  0  0  0  0  0  0  0  0  0  0
    5.0574   -2.8073   -2.3224 H   0  0  0  0  0  0  0  0  0  0  0  0
    2.6436   -0.8178   -0.1810 H   0  0  0  0  0  0  0  0  0  0  0  0
    3.7088   -4.1284    1.3936 H   0  0  0  0  0  0  0  0  0  0  0  0
    1.0923   -5.0625    5.1037 H   0  0  0  0  0  0  0  0  0  0  0  0
    2.4306   -4.0647    5.7044 H   0  0  0  0  0  0  0  0  0  0  0  0
    1.5328   -5.1015    7.8557 H   0  0  0  0  0  0  0  0  0  0  0  0
   -0.1465   -1.4105    6.6799 H   0  0  0  0  0  0  0  0  0  0  0  0
   -2.0620   -3.4250    6.3070 H   0  0  0  0  0  0  0  0  0  0  0  0
   -0.9794   -5.6864    6.9773 H   0  0  0  0  0  0  0  0  0  0  0  0
    0.1841    0.9274    3.2478 H   0  0  0  0  0  0  0  0  0  0  0  0
    4.5400    0.1590    0.4821 H   0  0  0  0  0  0  0  0  0  0  0  0
    6.2691   -0.9265    1.5872 H   0  0  0  0  0  0  0  0  0  0  0  0
    5.7569   -0.2515   -1.4309 H   0  0  0  0  0  0  0  0  0  0  0  0
    6.5064   -2.6395   -0.2401 H   0  0  0  0  0  0  0  0  0  0  0  0
  1  2  1  0
  1 27  1  0
  2  3  1  0
  2 28  1  0
  2 29  1  0
  3 25  1  0
  3  4  1  0
  3 30  1  6
  4  5  1  0
  5  6  1  0
  5 23  1  0
  5 31  1  6
  6 22  1  0
  6  7  1  0
  7  8  2  0
  7 32  1  0
  8  9  1  0
  9 22  2  0
  9 10  1  0
 10 11  1  0
 10 19  2  0
 11 15  1  0
 11 12  1  0
 12 13  1  0
 12 33  1  0
 12 34  1  0
 13 18  1  0
 13 14  1  0
 13 35  1  1
 14 15  1  0
 15 16  1  0
 15 36  1  6
 16 18  1  0
 16 17  1  0
 16 37  1  6
 17 18  1  0
 18 38  1  6
 19 20  1  0
 20 21  2  0
 20 39  1  0
 21 22  1  0
 23 24  1  0
 23 25  1  0
 23 40  1  1
 24 41  1  0
 25 26  1  0
 25 42  1  6
 26 43  1  0
M  END
>  <i_m_ct_stereo_status>  (422) 
1

>  <s_m_source_file>  (422) 
/var/tmp/pbs.5076255.sched01/tmpm28zzdm2/1449lyhn0we.sdf

>  <i_m_source_file_index>  (422) 
44

>  <i_lp_mmshare_version>  (422) 
48012

>  <i_f3d_flags>  (422) 
0

>  <s_epik_input>  (422) 
W09IXVtDSDJdW0NAQEhdMU9bQ0BIXShbQ0BASF0oW09IXSlbQ0BIXTFbT0hdKW4oW2NIXW4yKWMoYzIzKW5bY0hdbmMzTihbQ0gyXTQpW0NASF0oTzUpW0NASF0oTzYpW0NASF02W0NAQEhdNDU=

>  <s_epik_cmdline>  (422) 
J2VwaWtfcHl0aG9uJywgJy1waHQnLCAnMi4wJywgJy1waCcsICc3LjAnLCAnLXRuJywgJzgnLCAnLW1hJywgJzIwMCcsICctaW1hZScsICc8aW5maWxlLm1hZT4nLCAnLW9tYWUnLCAnPG91dGZpbGUubWFlPic=

>  <r_lp_tautomer_probability>  (422) 
1

>  <r_epik_Ionization_Penalty>  (422) 
0.000273133

>  <r_epik_Ionization_Penalty_Charging>  (422) 
0

>  <r_epik_Ionization_Penalty_Neutral>  (422) 
0.000273133

>  <r_epik_State_Penalty>  (422) 
-0

>  <r_epik_Charging_Adjusted_Penalty>  (422) 
0

>  <i_epik_Tot_Q>  (422) 
0

>  <i_epik_Tot_abs_Q>  (422) 
0

>  <s_epik_Chemistry_Notes>  (422) 
This compound contains an acetal/aminal-like group ( X-CH(R)-Y where X, Y are N, S, or O) that may be acid/base labile, releasing an aldehyde.

>  <s_lp_Force_Field>  (422) 
OPLS3e

>  <r_lp_Energy>  (422) 
43.6286

>  <b_lp_Chiralities_Consistent>  (422) 
1

>  <s_lp_Variant>  (422) 
116:0-1

>  <s_i_glide_gridfile>  (422) 
pfpi4k_grid

>  <i_i_glide_lignum>  (422) 
44

>  <i_i_glide_rotatable_bonds>  (422) 
6

>  <r_i_docking_score>  (422) 
-3.02773

>  <r_i_glide_ligand_efficiency>  (422) 
-0.116451

>  <r_i_glide_ligand_efficiency_sa>  (422) 
-0.344986

>  <r_i_glide_ligand_efficiency_ln>  (422) 
-0.711052

>  <r_i_glide_gscore>  (422) 
-3.02773

>  <r_i_glide_lipo>  (422) 
-0.119989

>  <r_i_glide_hbond>  (422) 
-0.0217872

>  <r_i_glide_metal>  (422) 
-0

>  <r_i_glide_rewards>  (422) 
-0.931872

>  <r_i_glide_evdw>  (422) 
-24.4046

>  <r_i_glide_ecoul>  (422) 
-6.42506

>  <r_i_glide_erotb>  (422) 
0.436622

>  <r_i_glide_esite>  (422) 
-0.206713

>  <r_i_glide_emodel>  (422) 
-36.4406

>  <r_i_glide_energy>  (422) 
-30.8296

>  <r_i_glide_einternal>  (422) 
2.353

>  <r_i_glide_intrahb_reward>  (422) 
-0

>  <i_i_glide_confnum>  (422) 
4

>  <i_i_glide_posenum>  (422) 
2

>  <r_i_glide_eff_state_penalty>  (422) 
0

>  <ligand_id>  (422) 
116

>  <original_smiles>  (422) 
OCC1OC(n2cnc3c(N4CC5OC4C4OC54)ncnc32)C(O)C1O

>  <smiles>  (422) 
[H]OC([H])([H])C1([H])OC([H])(n2c([H])nc3c(N4C([H])([H])C5([H])OC4([H])C4([H])OC54[H])nc([H])nc32)C([H])(O[H])C1([H])O[H]

$$$$
117:0:0
     RDKit          3D

 56 60  0  0  1  0  0  0  0  0999 V2000
    8.5534   -3.6140   -1.7699 C   0  0  0  0  0  0  0  0  0  0  0  0
    8.5073   -4.2640   -0.3651 C   0  0  0  0  0  0  0  0  0  0  0  0
    7.2578   -3.9783    0.3762 N   0  0  0  0  0  0  0  0  0  0  0  0
    6.5465   -4.9084    1.0244 C   0  0  0  0  0  0  0  0  0  0  0  0
    6.8162   -6.1096    1.0683 O   0  0  0  0  0  0  0  0  0  0  0  0
    5.3391   -4.3038    1.7468 C   0  0  1  0  0  0  0  0  0  0  0  0
    5.4905   -2.7722    1.4493 C   0  0  1  0  0  0  0  0  0  0  0  0
    6.7521   -2.7497    0.5668 C   0  0  0  0  0  0  0  0  0  0  0  0
    7.2587   -1.7062    0.1487 O   0  0  0  0  0  0  0  0  0  0  0  0
    4.1698   -2.2048    0.8219 C   0  0  1  0  0  0  0  0  0  0  0  0
    3.1536   -2.0168    1.9722 C   0  0  0  0  0  0  0  0  0  0  0  0
    4.1574   -0.8638    0.0275 C   0  0  1  0  0  0  0  0  0  0  0  0
    5.1230    0.0495    0.5082 O   0  0  0  0  0  0  0  0  0  0  0  0
    4.3082   -1.2817   -1.4360 C   0  0  2  0  0  0  0  0  0  0  0  0
    3.7578   -0.3785   -2.5344 C   0  0  0  0  0  0  0  0  0  0  0  0
    3.9620   -0.9920   -3.9235 C   0  0  0  0  0  0  0  0  0  0  0  0
    3.4022   -2.4273   -3.9818 C   0  0  0  0  0  0  0  0  0  0  0  0
    3.8198   -3.2911   -2.7761 C   0  0  0  0  0  0  0  0  0  0  0  0
    3.4916   -2.5502   -1.4658 C   0  0  1  0  0  0  0  0  0  0  0  0
    3.7586   -3.1953   -0.1807 N   0  0  0  0  0  0  0  0  0  0  0  0
    3.3406   -4.4141    0.2219 C   0  0  0  0  0  0  0  0  0  0  0  0
    2.3572   -4.9699   -0.2699 O   0  0  0  0  0  0  0  0  0  0  0  0
    4.0897   -4.9335    1.2365 N   0  0  0  0  0  0  0  0  0  0  0  0
    3.6620   -6.1344    1.8695 C   0  0  0  0  0  0  0  0  0  0  0  0
    3.1194   -6.0975    3.1688 C   0  0  0  0  0  0  0  0  0  0  0  0
    2.6896   -7.2901    3.7824 C   0  0  0  0  0  0  0  0  0  0  0  0
    2.8177   -8.5204    3.1029 C   0  0  0  0  0  0  0  0  0  0  0  0
    3.3765   -8.5587    1.8103 C   0  0  0  0  0  0  0  0  0  0  0  0
    3.8045   -7.3676    1.1987 C   0  0  0  0  0  0  0  0  0  0  0  0
    9.4042   -3.9630   -2.3440 H   0  0  0  0  0  0  0  0  0  0  0  0
    8.6344   -2.5253   -1.7325 H   0  0  0  0  0  0  0  0  0  0  0  0
    7.6522   -3.8323   -2.3406 H   0  0  0  0  0  0  0  0  0  0  0  0
    8.6652   -5.3373   -0.5107 H   0  0  0  0  0  0  0  0  0  0  0  0
    9.3621   -3.9518    0.2358 H   0  0  0  0  0  0  0  0  0  0  0  0
    5.4302   -4.5042    2.8128 H   0  0  0  0  0  0  0  0  0  0  0  0
    5.7506   -2.2252    2.3635 H   0  0  0  0  0  0  0  0  0  0  0  0
    3.4849   -1.1999    2.6147 H   0  0  0  0  0  0  0  0  0  0  0  0
    3.0656   -2.8952    2.6064 H   0  0  0  0  0  0  0  0  0  0  0  0
    2.1650   -1.7649    1.5926 H   0  0  0  0  0  0  0  0  0  0  0  0
    3.1757   -0.3750    0.1327 H   0  0  0  0  0  0  0  0  0  0  0  0
    5.1654    0.8110   -0.0692 H   0  0  0  0  0  0  0  0  0  0  0  0
    5.3569   -1.4918   -1.6373 H   0  0  0  0  0  0  0  0  0  0  0  0
    2.6902   -0.2542   -2.3847 H   0  0  0  0  0  0  0  0  0  0  0  0
    4.2151    0.5996   -2.5299 H   0  0  0  0  0  0  0  0  0  0  0  0
    3.4634   -0.3628   -4.6753 H   0  0  0  0  0  0  0  0  0  0  0  0
    5.0195   -0.9961   -4.1611 H   0  0  0  0  0  0  0  0  0  0  0  0
    2.3144   -2.3909   -4.0481 H   0  0  0  0  0  0  0  0  0  0  0  0
    3.7428   -2.9179   -4.8836 H   0  0  0  0  0  0  0  0  0  0  0  0
    3.2525   -4.2030   -2.8679 H   0  0  0  0  0  0  0  0  0  0  0  0
    4.8760   -3.5710   -2.8349 H   0  0  0  0  0  0  0  0  0  0  0  0
    2.4240   -2.3281   -1.4604 H   0  0  0  0  0  0  0  0  0  0  0  0
    3.0210   -5.1557    3.6891 H   0  0  0  0  0  0  0  0  0  0  0  0
    2.2651   -7.2631    4.7735 H   0  0  0  0  0  0  0  0  0  0  0  0
    2.4862   -9.4342    3.5737 H   0  0  0  0  0  0  0  0  0  0  0  0
    3.4763   -9.5003    1.2885 H   0  0  0  0  0  0  0  0  0  0  0  0
    4.2311   -7.3896    0.2091 H   0  0  0  0  0  0  0  0  0  0  0  0
  1  2  1  0
  1 30  1  0
  1 31  1  0
  1 32  1  0
  2 33  1  0
  2 34  1  0
  2  3  1  0
  3  8  1  0
  3  4  1  0
  4  5  2  0
  4  6  1  0
  6 23  1  0
  6 35  1  1
  6  7  1  0
  7 10  1  0
  7 36  1  1
  7  8  1  0
  8  9  2  0
 10 20  1  0
 10 11  1  1
 10 12  1  0
 11 37  1  0
 11 38  1  0
 11 39  1  0
 12 13  1  0
 12 14  1  0
 12 40  1  6
 13 41  1  0
 14 19  1  0
 14 15  1  0
 14 42  1  6
 15 16  1  0
 15 43  1  0
 15 44  1  0
 16 17  1  0
 16 45  1  0
 16 46  1  0
 17 18  1  0
 17 47  1  0
 17 48  1  0
 18 19  1  0
 18 49  1  0
 18 50  1  0
 19 20  1  0
 19 51  1  6
 20 21  1  0
 21 22  2  0
 21 23  1  0
 23 24  1  0
 24 29  1  0
 24 25  2  0
 25 26  1  0
 25 52  1  0
 26 27  2  0
 26 53  1  0
 27 28  1  0
 27 54  1  0
 28 29  2  0
 28 55  1  0
 29 56  1  0
M  END
>  <i_m_ct_stereo_status>  (423) 
1

>  <s_m_source_file>  (423) 
/var/tmp/pbs.5076255.sched01/tmpm28zzdm2/1449lyhn0we.sdf

>  <i_m_source_file_index>  (423) 
45

>  <i_lp_mmshare_version>  (423) 
48012

>  <i_f3d_flags>  (423) 
0

>  <s_epik_input>  (423) 
W2NIXTFbY0hdW2NIXVtjSF1bY0hdYzFOKGMoYzJbQ0BAXTM0W0NIM10pYyhbT0hdKW4oW0NIMl1bQ0gzXSljMltPSF0pQyg9TylONFtDQEhdNVtDQEhdKFtDQEBIXTNbT0hdKVtDSDJdW0NIMl1bQ0gyXVtDSDJdNQ==

>  <s_epik_cmdline>  (423) 
J2VwaWtfcHl0aG9uJywgJy1waHQnLCAnMi4wJywgJy1waCcsICc3LjAnLCAnLXRuJywgJzgnLCAnLW1hJywgJzIwMCcsICctaW1hZScsICc8aW5maWxlLm1hZT4nLCAnLW9tYWUnLCAnPG91dGZpbGUubWFlPic=

>  <r_lp_tautomer_probability>  (423) 
1

>  <r_epik_Ionization_Penalty>  (423) 
2.18536e-05

>  <r_epik_Ionization_Penalty_Charging>  (423) 
0

>  <r_epik_Ionization_Penalty_Neutral>  (423) 
2.18536e-05

>  <r_epik_State_Penalty>  (423) 
-0

>  <r_epik_Charging_Adjusted_Penalty>  (423) 
0

>  <i_epik_Tot_Q>  (423) 
0

>  <i_epik_Tot_abs_Q>  (423) 
0

>  <s_lp_Force_Field>  (423) 
OPLS3e

>  <r_lp_Energy>  (423) 
46.6809

>  <b_lp_Chiralities_Consistent>  (423) 
1

>  <s_lp_Variant>  (423) 
117:0-1

>  <s_i_glide_gridfile>  (423) 
pfpi4k_grid

>  <i_i_glide_lignum>  (423) 
45

>  <i_i_glide_rotatable_bonds>  (423) 
3

>  <r_i_docking_score>  (423) 
-3.81895

>  <r_i_glide_ligand_efficiency>  (423) 
-0.131688

>  <r_i_glide_ligand_efficiency_sa>  (423) 
-0.404587

>  <r_i_glide_ligand_efficiency_ln>  (423) 
-0.874442

>  <r_i_glide_gscore>  (423) 
-3.81895

>  <r_i_glide_lipo>  (423) 
-0.488108

>  <r_i_glide_hbond>  (423) 
-0.0723373

>  <r_i_glide_metal>  (423) 
-0

>  <r_i_glide_rewards>  (423) 
-1.22392

>  <r_i_glide_evdw>  (423) 
-24.0592

>  <r_i_glide_ecoul>  (423) 
-6.27201

>  <r_i_glide_erotb>  (423) 
0.123908

>  <r_i_glide_esite>  (423) 
-0.014723

>  <r_i_glide_emodel>  (423) 
-34.4668

>  <r_i_glide_energy>  (423) 
-30.3313

>  <r_i_glide_einternal>  (423) 
5.08669

>  <r_i_glide_intrahb_reward>  (423) 
-0

>  <i_i_glide_confnum>  (423) 
3

>  <i_i_glide_posenum>  (423) 
2

>  <r_i_glide_eff_state_penalty>  (423) 
0

>  <ligand_id>  (423) 
117

>  <original_smiles>  (423) 
CCn1c(O)c2c(c1O)C1(C)C(O)C3CCCCC3N1C(=O)N2c1ccccc1

>  <smiles>  (423) 
[H]OC1([H])C2([H])C([H])([H])C([H])([H])C([H])([H])C([H])([H])C2([H])N2C(=O)N(c3c([H])c([H])c([H])c([H])c3[H])C3([H])C(=O)N(C([H])([H])C([H])([H])[H])C(=O)C3([H])C21C([H])([H])[H]

$$$$
117:0:1
     RDKit          3D

 56 60  0  0  1  0  0  0  0  0999 V2000
    4.5174   -7.2868    0.3877 C   0  0  0  0  0  0  0  0  0  0  0  0
    5.6432   -6.9112    1.3624 C   0  0  0  0  0  0  0  0  0  0  0  0
    5.5520   -5.4950    1.7566 N   0  0  0  0  0  0  0  0  0  0  0  0
    4.8722   -5.0785    2.8452 C   0  0  0  0  0  0  0  0  0  0  0  0
    4.2508   -5.7875    3.6283 O   0  0  0  0  0  0  0  0  0  0  0  0
    4.9751   -3.5540    2.9893 C   0  0  1  0  0  0  0  0  0  0  0  0
    5.8814   -3.1348    1.7914 C   0  0  1  0  0  0  0  0  0  0  0  0
    6.1396   -4.4812    1.1015 C   0  0  0  0  0  0  0  0  0  0  0  0
    6.8559   -4.5876    0.1107 O   0  0  0  0  0  0  0  0  0  0  0  0
    5.2247   -1.9974    0.9713 C   0  0  1  0  0  0  0  0  0  0  0  0
    5.3622   -0.6837    1.7776 C   0  0  0  0  0  0  0  0  0  0  0  0
    5.7147   -1.6730   -0.4665 C   0  0  1  0  0  0  0  0  0  0  0  0
    7.0776   -1.9415   -0.7212 O   0  0  0  0  0  0  0  0  0  0  0  0
    4.7719   -2.4508   -1.3532 C   0  0  2  0  0  0  0  0  0  0  0  0
    4.5089   -1.9527   -2.7858 C   0  0  0  0  0  0  0  0  0  0  0  0
    3.5170   -2.8954   -3.4728 C   0  0  0  0  0  0  0  0  0  0  0  0
    2.2521   -3.1060   -2.6407 C   0  0  0  0  0  0  0  0  0  0  0  0
    2.4849   -3.3996   -1.1493 C   0  0  0  0  0  0  0  0  0  0  0  0
    3.4596   -2.3441   -0.5884 C   0  0  1  0  0  0  0  0  0  0  0  0
    3.8305   -2.4168    0.8119 N   0  0  0  0  0  0  0  0  0  0  0  0
    3.0031   -2.5213    1.8640 C   0  0  0  0  0  0  0  0  0  0  0  0
    1.8137   -2.2157    1.7824 O   0  0  0  0  0  0  0  0  0  0  0  0
    3.5939   -2.9791    3.0035 N   0  0  0  0  0  0  0  0  0  0  0  0
    2.9158   -2.9287    4.2652 C   0  0  0  0  0  0  0  0  0  0  0  0
    1.6147   -3.4572    4.4146 C   0  0  0  0  0  0  0  0  0  0  0  0
    0.9572   -3.4122    5.6562 C   0  0  0  0  0  0  0  0  0  0  0  0
    1.6048   -2.8595    6.7763 C   0  0  0  0  0  0  0  0  0  0  0  0
    2.9049   -2.3418    6.6429 C   0  0  0  0  0  0  0  0  0  0  0  0
    3.5538   -2.3703    5.3962 C   0  0  0  0  0  0  0  0  0  0  0  0
    4.5987   -8.3299    0.0716 H   0  0  0  0  0  0  0  0  0  0  0  0
    4.5474   -6.6623   -0.5063 H   0  0  0  0  0  0  0  0  0  0  0  0
    3.5370   -7.1519    0.8471 H   0  0  0  0  0  0  0  0  0  0  0  0
    5.6020   -7.5691    2.2305 H   0  0  0  0  0  0  0  0  0  0  0  0
    6.6093   -7.1083    0.9032 H   0  0  0  0  0  0  0  0  0  0  0  0
    5.4818   -3.3678    3.9410 H   0  0  0  0  0  0  0  0  0  0  0  0
    6.8671   -2.7735    2.0919 H   0  0  0  0  0  0  0  0  0  0  0  0
    6.4088   -0.3794    1.7904 H   0  0  0  0  0  0  0  0  0  0  0  0
    5.0555   -0.7738    2.8263 H   0  0  0  0  0  0  0  0  0  0  0  0
    4.7787    0.1267    1.3241 H   0  0  0  0  0  0  0  0  0  0  0  0
    5.5301   -0.6170   -0.6812 H   0  0  0  0  0  0  0  0  0  0  0  0
    7.2348   -2.8567   -0.5103 H   0  0  0  0  0  0  0  0  0  0  0  0
    5.0839   -3.5019   -1.3884 H   0  0  0  0  0  0  0  0  0  0  0  0
    4.0831   -0.9507   -2.7504 H   0  0  0  0  0  0  0  0  0  0  0  0
    5.4121   -1.9174   -3.3749 H   0  0  0  0  0  0  0  0  0  0  0  0
    3.2409   -2.5015   -4.4512 H   0  0  0  0  0  0  0  0  0  0  0  0
    3.9934   -3.8602   -3.6372 H   0  0  0  0  0  0  0  0  0  0  0  0
    1.5950   -2.2480   -2.7183 H   0  0  0  0  0  0  0  0  0  0  0  0
    1.7256   -3.9267   -3.0968 H   0  0  0  0  0  0  0  0  0  0  0  0
    1.5235   -3.3683   -0.6442 H   0  0  0  0  0  0  0  0  0  0  0  0
    2.8671   -4.4183   -1.0111 H   0  0  0  0  0  0  0  0  0  0  0  0
    3.0473   -1.3384   -0.7254 H   0  0  0  0  0  0  0  0  0  0  0  0
    1.1070   -3.9013    3.5679 H   0  0  0  0  0  0  0  0  0  0  0  0
   -0.0420   -3.8191    5.7431 H   0  0  0  0  0  0  0  0  0  0  0  0
    1.1137   -2.8356    7.7340 H   0  0  0  0  0  0  0  0  0  0  0  0
    3.4192   -1.9198    7.4980 H   0  0  0  0  0  0  0  0  0  0  0  0
    4.5478   -1.9486    5.3148 H   0  0  0  0  0  0  0  0  0  0  0  0
  1  2  1  0
  1 30  1  0
  1 31  1  0
  1 32  1  0
  2 33  1  0
  2 34  1  0
  2  3  1  0
  3  8  1  0
  3  4  1  0
  4  5  2  0
  4  6  1  0
  6 23  1  0
  6 35  1  1
  6  7  1  0
  7 10  1  0
  7 36  1  1
  7  8  1  0
  8  9  2  0
 10 20  1  0
 10 11  1  1
 10 12  1  0
 11 37  1  0
 11 38  1  0
 11 39  1  0
 12 13  1  0
 12 14  1  0
 12 40  1  6
 13 41  1  0
 14 19  1  0
 14 15  1  0
 14 42  1  6
 15 16  1  0
 15 43  1  0
 15 44  1  0
 16 17  1  0
 16 45  1  0
 16 46  1  0
 17 18  1  0
 17 47  1  0
 17 48  1  0
 18 19  1  0
 18 49  1  0
 18 50  1  0
 19 20  1  0
 19 51  1  1
 20 21  1  0
 21 22  2  0
 21 23  1  0
 23 24  1  0
 24 29  1  0
 24 25  2  0
 25 26  1  0
 25 52  1  0
 26 27  2  0
 26 53  1  0
 27 28  1  0
 27 54  1  0
 28 29  2  0
 28 55  1  0
 29 56  1  0
M  END
>  <i_m_ct_stereo_status>  (424) 
1

>  <s_m_source_file>  (424) 
/var/tmp/pbs.5076255.sched01/tmpm28zzdm2/1449lyhn0we.sdf

>  <i_m_source_file_index>  (424) 
45

>  <i_lp_mmshare_version>  (424) 
48012

>  <i_f3d_flags>  (424) 
0

>  <s_epik_input>  (424) 
W2NIXTFbY0hdW2NIXVtjSF1bY0hdYzFOKGMoYzJbQ0BAXTM0W0NIM10pYyhbT0hdKW4oW0NIMl1bQ0gzXSljMltPSF0pQyg9TylONFtDQEhdNVtDQEhdKFtDQEBIXTNbT0hdKVtDSDJdW0NIMl1bQ0gyXVtDSDJdNQ==

>  <s_epik_cmdline>  (424) 
J2VwaWtfcHl0aG9uJywgJy1waHQnLCAnMi4wJywgJy1waCcsICc3LjAnLCAnLXRuJywgJzgnLCAnLW1hJywgJzIwMCcsICctaW1hZScsICc8aW5maWxlLm1hZT4nLCAnLW9tYWUnLCAnPG91dGZpbGUubWFlPic=

>  <r_lp_tautomer_probability>  (424) 
1

>  <r_epik_Ionization_Penalty>  (424) 
2.18536e-05

>  <r_epik_Ionization_Penalty_Charging>  (424) 
0

>  <r_epik_Ionization_Penalty_Neutral>  (424) 
2.18536e-05

>  <r_epik_State_Penalty>  (424) 
-0

>  <r_epik_Charging_Adjusted_Penalty>  (424) 
0

>  <i_epik_Tot_Q>  (424) 
0

>  <i_epik_Tot_abs_Q>  (424) 
0

>  <s_lp_Force_Field>  (424) 
OPLS3e

>  <r_lp_Energy>  (424) 
46.6809

>  <b_lp_Chiralities_Consistent>  (424) 
1

>  <s_lp_Variant>  (424) 
117:0-1

>  <s_i_glide_gridfile>  (424) 
pfpi4k_grid

>  <i_i_glide_lignum>  (424) 
45

>  <i_i_glide_rotatable_bonds>  (424) 
3

>  <r_i_docking_score>  (424) 
-3.56665

>  <r_i_glide_ligand_efficiency>  (424) 
-0.122988

>  <r_i_glide_ligand_efficiency_sa>  (424) 
-0.377858

>  <r_i_glide_ligand_efficiency_ln>  (424) 
-0.816672

>  <r_i_glide_gscore>  (424) 
-3.56665

>  <r_i_glide_lipo>  (424) 
-0.879991

>  <r_i_glide_hbond>  (424) 
0

>  <r_i_glide_metal>  (424) 
-0

>  <r_i_glide_rewards>  (424) 
-1.38763

>  <r_i_glide_evdw>  (424) 
-22.4318

>  <r_i_glide_ecoul>  (424) 
-1.86501

>  <r_i_glide_erotb>  (424) 
0.123908

>  <r_i_glide_esite>  (424) 
-0.0215933

>  <r_i_glide_emodel>  (424) 
-35.7862

>  <r_i_glide_energy>  (424) 
-24.2968

>  <r_i_glide_einternal>  (424) 
0.0248194

>  <r_i_glide_intrahb_reward>  (424) 
-0.5

>  <i_i_glide_confnum>  (424) 
6

>  <i_i_glide_posenum>  (424) 
3

>  <r_i_glide_eff_state_penalty>  (424) 
0

>  <ligand_id>  (424) 
117

>  <original_smiles>  (424) 
CCn1c(O)c2c(c1O)C1(C)C(O)C3CCCCC3N1C(=O)N2c1ccccc1

>  <smiles>  (424) 
[H]OC1([H])C2([H])C([H])([H])C([H])([H])C([H])([H])C([H])([H])C2([H])N2C(=O)N(c3c([H])c([H])c([H])c([H])c3[H])C3([H])C(=O)N(C([H])([H])C([H])([H])[H])C(=O)C3([H])C21C([H])([H])[H]

$$$$
117:0:2
     RDKit          3D

 56 60  0  0  1  0  0  0  0  0999 V2000
    1.8060   -4.5814    5.9879 C   0  0  0  0  0  0  0  0  0  0  0  0
    3.3282   -4.7783    5.9663 C   0  0  0  0  0  0  0  0  0  0  0  0
    3.7858   -5.3590    4.6947 N   0  0  0  0  0  0  0  0  0  0  0  0
    4.1717   -4.6310    3.6381 C   0  0  0  0  0  0  0  0  0  0  0  0
    4.2039   -3.4049    3.5840 O   0  0  0  0  0  0  0  0  0  0  0  0
    4.5867   -5.5320    2.4741 C   0  0  1  0  0  0  0  0  0  0  0  0
    4.4248   -6.9749    3.0577 C   0  0  1  0  0  0  0  0  0  0  0  0
    3.8739   -6.6756    4.4696 C   0  0  0  0  0  0  0  0  0  0  0  0
    3.5986   -7.5418    5.3018 O   0  0  0  0  0  0  0  0  0  0  0  0
    3.5514   -7.8522    2.0950 C   0  0  1  0  0  0  0  0  0  0  0  0
    4.4343   -8.2563    0.8808 C   0  0  0  0  0  0  0  0  0  0  0  0
    2.8814   -9.1691    2.5893 C   0  0  1  0  0  0  0  0  0  0  0  0
    3.5808   -9.8270    3.6154 O   0  0  0  0  0  0  0  0  0  0  0  0
    1.4788   -8.7541    2.9873 C   0  0  2  0  0  0  0  0  0  0  0  0
    0.3569   -9.7976    2.9674 C   0  0  0  0  0  0  0  0  0  0  0  0
   -0.9652   -9.1249    3.3871 C   0  0  0  0  0  0  0  0  0  0  0  0
   -1.2838   -7.8435    2.5821 C   0  0  0  0  0  0  0  0  0  0  0  0
   -0.0758   -6.8856    2.4180 C   0  0  0  0  0  0  0  0  0  0  0  0
    1.1533   -7.6913    1.9498 C   0  0  1  0  0  0  0  0  0  0  0  0
    2.4132   -6.9942    1.7263 N   0  0  0  0  0  0  0  0  0  0  0  0
    2.5838   -5.8701    1.0039 C   0  0  0  0  0  0  0  0  0  0  0  0
    1.7203   -5.4843    0.2144 O   0  0  0  0  0  0  0  0  0  0  0  0
    3.7443   -5.1999    1.2840 N   0  0  0  0  0  0  0  0  0  0  0  0
    4.1930   -4.1386    0.4428 C   0  0  0  0  0  0  0  0  0  0  0  0
    3.3587   -3.0324    0.1549 C   0  0  0  0  0  0  0  0  0  0  0  0
    3.8138   -1.9781   -0.6481 C   0  0  0  0  0  0  0  0  0  0  0  0
    5.1248   -1.9998   -1.1643 C   0  0  0  0  0  0  0  0  0  0  0  0
    5.9747   -3.0842   -0.8716 C   0  0  0  0  0  0  0  0  0  0  0  0
    5.5112   -4.1431   -0.0723 C   0  0  0  0  0  0  0  0  0  0  0  0
    1.4804   -4.1716    6.9435 H   0  0  0  0  0  0  0  0  0  0  0  0
    1.2865   -5.5261    5.8359 H   0  0  0  0  0  0  0  0  0  0  0  0
    1.4883   -3.8961    5.2037 H   0  0  0  0  0  0  0  0  0  0  0  0
    3.8244   -3.8264    6.1588 H   0  0  0  0  0  0  0  0  0  0  0  0
    3.6237   -5.4195    6.7987 H   0  0  0  0  0  0  0  0  0  0  0  0
    5.6364   -5.3246    2.2694 H   0  0  0  0  0  0  0  0  0  0  0  0
    5.4135   -7.4337    3.1887 H   0  0  0  0  0  0  0  0  0  0  0  0
    5.2015   -8.9664    1.2018 H   0  0  0  0  0  0  0  0  0  0  0  0
    4.9539   -7.4098    0.4268 H   0  0  0  0  0  0  0  0  0  0  0  0
    3.8470   -8.7495    0.1041 H   0  0  0  0  0  0  0  0  0  0  0  0
    2.7798   -9.8683    1.7489 H   0  0  0  0  0  0  0  0  0  0  0  0
    3.2069  -10.6924    3.7280 H   0  0  0  0  0  0  0  0  0  0  0  0
    1.5159   -8.2979    3.9749 H   0  0  0  0  0  0  0  0  0  0  0  0
    0.2612  -10.2052    1.9622 H   0  0  0  0  0  0  0  0  0  0  0  0
    0.5780  -10.6397    3.6246 H   0  0  0  0  0  0  0  0  0  0  0  0
   -1.7826   -9.8348    3.2677 H   0  0  0  0  0  0  0  0  0  0  0  0
   -0.9168   -8.8872    4.4494 H   0  0  0  0  0  0  0  0  0  0  0  0
   -1.6230   -8.1524    1.5935 H   0  0  0  0  0  0  0  0  0  0  0  0
   -2.1282   -7.3272    3.0449 H   0  0  0  0  0  0  0  0  0  0  0  0
   -0.3261   -6.1283    1.6803 H   0  0  0  0  0  0  0  0  0  0  0  0
    0.1218   -6.3659    3.3584 H   0  0  0  0  0  0  0  0  0  0  0  0
    0.9187   -8.1674    0.9948 H   0  0  0  0  0  0  0  0  0  0  0  0
    2.3555   -2.9861    0.5503 H   0  0  0  0  0  0  0  0  0  0  0  0
    3.1516   -1.1514   -0.8662 H   0  0  0  0  0  0  0  0  0  0  0  0
    5.4690   -1.1841   -1.7869 H   0  0  0  0  0  0  0  0  0  0  0  0
    6.9828   -3.1133   -1.2623 H   0  0  0  0  0  0  0  0  0  0  0  0
    6.1687   -4.9738    0.1339 H   0  0  0  0  0  0  0  0  0  0  0  0
  1  2  1  0
  1 30  1  0
  1 31  1  0
  1 32  1  0
  2 33  1  0
  2 34  1  0
  2  3  1  0
  3  8  1  0
  3  4  1  0
  4  5  2  0
  4  6  1  0
  6 23  1  0
  6 35  1  6
  6  7  1  0
  7 10  1  0
  7 36  1  1
  7  8  1  0
  8  9  2  0
 10 20  1  0
 10 11  1  6
 10 12  1  0
 11 37  1  0
 11 38  1  0
 11 39  1  0
 12 13  1  0
 12 14  1  0
 12 40  1  6
 13 41  1  0
 14 19  1  0
 14 15  1  0
 14 42  1  1
 15 16  1  0
 15 43  1  0
 15 44  1  0
 16 17  1  0
 16 45  1  0
 16 46  1  0
 17 18  1  0
 17 47  1  0
 17 48  1  0
 18 19  1  0
 18 49  1  0
 18 50  1  0
 19 20  1  0
 19 51  1  6
 20 21  1  0
 21 22  2  0
 21 23  1  0
 23 24  1  0
 24 29  1  0
 24 25  2  0
 25 26  1  0
 25 52  1  0
 26 27  2  0
 26 53  1  0
 27 28  1  0
 27 54  1  0
 28 29  2  0
 28 55  1  0
 29 56  1  0
M  END
>  <i_m_ct_stereo_status>  (425) 
1

>  <s_m_source_file>  (425) 
/var/tmp/pbs.5076255.sched01/tmpm28zzdm2/1449lyhn0we.sdf

>  <i_m_source_file_index>  (425) 
45

>  <i_lp_mmshare_version>  (425) 
48012

>  <i_f3d_flags>  (425) 
0

>  <s_epik_input>  (425) 
W2NIXTFbY0hdW2NIXVtjSF1bY0hdYzFOKGMoYzJbQ0BAXTM0W0NIM10pYyhbT0hdKW4oW0NIMl1bQ0gzXSljMltPSF0pQyg9TylONFtDQEhdNVtDQEhdKFtDQEBIXTNbT0hdKVtDSDJdW0NIMl1bQ0gyXVtDSDJdNQ==

>  <s_epik_cmdline>  (425) 
J2VwaWtfcHl0aG9uJywgJy1waHQnLCAnMi4wJywgJy1waCcsICc3LjAnLCAnLXRuJywgJzgnLCAnLW1hJywgJzIwMCcsICctaW1hZScsICc8aW5maWxlLm1hZT4nLCAnLW9tYWUnLCAnPG91dGZpbGUubWFlPic=

>  <r_lp_tautomer_probability>  (425) 
1

>  <r_epik_Ionization_Penalty>  (425) 
2.18536e-05

>  <r_epik_Ionization_Penalty_Charging>  (425) 
0

>  <r_epik_Ionization_Penalty_Neutral>  (425) 
2.18536e-05

>  <r_epik_State_Penalty>  (425) 
-0

>  <r_epik_Charging_Adjusted_Penalty>  (425) 
0

>  <i_epik_Tot_Q>  (425) 
0

>  <i_epik_Tot_abs_Q>  (425) 
0

>  <s_lp_Force_Field>  (425) 
OPLS3e

>  <r_lp_Energy>  (425) 
46.6809

>  <b_lp_Chiralities_Consistent>  (425) 
1

>  <s_lp_Variant>  (425) 
117:0-1

>  <s_i_glide_gridfile>  (425) 
pfpi4k_grid

>  <i_i_glide_lignum>  (425) 
45

>  <i_i_glide_rotatable_bonds>  (425) 
3

>  <r_i_docking_score>  (425) 
-2.4966

>  <r_i_glide_ligand_efficiency>  (425) 
-0.0860897

>  <r_i_glide_ligand_efficiency_sa>  (425) 
-0.264495

>  <r_i_glide_ligand_efficiency_ln>  (425) 
-0.571658

>  <r_i_glide_gscore>  (425) 
-2.4966

>  <r_i_glide_lipo>  (425) 
-0.138629

>  <r_i_glide_hbond>  (425) 
-0.109617

>  <r_i_glide_metal>  (425) 
-0

>  <r_i_glide_rewards>  (425) 
-0.71887

>  <r_i_glide_evdw>  (425) 
-26.6066

>  <r_i_glide_ecoul>  (425) 
-1.95083

>  <r_i_glide_erotb>  (425) 
0.123908

>  <r_i_glide_esite>  (425) 
-0.0304394

>  <r_i_glide_emodel>  (425) 
-32.8396

>  <r_i_glide_energy>  (425) 
-28.5574

>  <r_i_glide_einternal>  (425) 
0.394406

>  <r_i_glide_intrahb_reward>  (425) 
-0

>  <i_i_glide_confnum>  (425) 
1

>  <i_i_glide_posenum>  (425) 
18

>  <r_i_glide_eff_state_penalty>  (425) 
0

>  <ligand_id>  (425) 
117

>  <original_smiles>  (425) 
CCn1c(O)c2c(c1O)C1(C)C(O)C3CCCCC3N1C(=O)N2c1ccccc1

>  <smiles>  (425) 
[H]OC1([H])C2([H])C([H])([H])C([H])([H])C([H])([H])C([H])([H])C2([H])N2C(=O)N(c3c([H])c([H])c([H])c([H])c3[H])C3([H])C(=O)N(C([H])([H])C([H])([H])[H])C(=O)C3([H])C21C([H])([H])[H]

$$$$
117:2:0
     RDKit          3D

 56 60  0  0  1  0  0  0  0  0999 V2000
    8.2638   -3.0185   -0.4535 C   0  0  0  0  0  0  0  0  0  0  0  0
    6.8502   -2.9795   -1.0555 C   0  0  0  0  0  0  0  0  0  0  0  0
    5.8098   -2.9814   -0.0205 N   0  0  0  0  0  0  0  0  0  0  0  0
    5.3101   -4.0941    0.5492 C   0  0  0  0  0  0  0  0  0  0  0  0
    5.5625   -5.2476    0.1947 O   0  0  0  0  0  0  0  0  0  0  0  0
    4.4615   -3.7033    1.7789 C   0  0  1  0  0  0  0  0  0  0  0  0
    4.0537   -2.3091    1.3499 C   0  0  2  0  0  0  0  0  0  0  0  0
    5.2482   -1.8708    0.4848 C   0  0  0  0  0  0  0  0  0  0  0  0
    5.5916   -0.7075    0.2621 O   0  0  0  0  0  0  0  0  0  0  0  0
    3.5103   -1.5544    2.5783 C   0  0  1  0  0  0  0  0  0  0  0  0
    4.6434   -1.2440    3.6026 C   0  0  0  0  0  0  0  0  0  0  0  0
    2.7384   -0.2364    2.2611 C   0  0  1  0  0  0  0  0  0  0  0  0
    2.6254    0.0695    0.8873 O   0  0  0  0  0  0  0  0  0  0  0  0
    1.3525   -0.4286    2.8734 C   0  0  2  0  0  0  0  0  0  0  0  0
    0.7221    0.7906    3.5591 C   0  0  0  0  0  0  0  0  0  0  0  0
   -0.6585    0.4053    4.1235 C   0  0  0  0  0  0  0  0  0  0  0  0
   -0.5938   -0.8229    5.0576 C   0  0  0  0  0  0  0  0  0  0  0  0
    0.1895   -2.0127    4.4537 C   0  0  0  0  0  0  0  0  0  0  0  0
    1.5582   -1.5295    3.9062 C   0  0  1  0  0  0  0  0  0  0  0  0
    2.4907   -2.4386    3.2184 N   0  0  0  0  0  0  0  0  0  0  0  0
    2.3402   -3.7895    3.0302 C   0  0  0  0  0  0  0  0  0  0  0  0
    1.3964   -4.4002    3.5449 O   0  0  0  0  0  0  0  0  0  0  0  0
    3.2594   -4.4365    2.2373 N   0  0  0  0  0  0  0  0  0  0  0  0
    3.2334   -5.8638    2.1310 C   0  0  0  0  0  0  0  0  0  0  0  0
    2.0610   -6.5213    1.6939 C   0  0  0  0  0  0  0  0  0  0  0  0
    2.0111   -7.9237    1.6241 C   0  0  0  0  0  0  0  0  0  0  0  0
    3.1486   -8.6894    1.9376 C   0  0  0  0  0  0  0  0  0  0  0  0
    4.3298   -8.0441    2.3504 C   0  0  0  0  0  0  0  0  0  0  0  0
    4.3684   -6.6408    2.4603 C   0  0  0  0  0  0  0  0  0  0  0  0
    9.0119   -3.0089   -1.2456 H   0  0  0  0  0  0  0  0  0  0  0  0
    8.4321   -3.9183    0.1424 H   0  0  0  0  0  0  0  0  0  0  0  0
    8.4520   -2.1579    0.1896 H   0  0  0  0  0  0  0  0  0  0  0  0
    6.7420   -2.1127   -1.7032 H   0  0  0  0  0  0  0  0  0  0  0  0
    6.7134   -3.8376   -1.7262 H   0  0  0  0  0  0  0  0  0  0  0  0
    5.1693   -3.7011    2.6127 H   0  0  0  0  0  0  0  0  0  0  0  0
    3.2243   -2.4198    0.6421 H   0  0  0  0  0  0  0  0  0  0  0  0
    5.4418   -0.6645    3.1353 H   0  0  0  0  0  0  0  0  0  0  0  0
    5.0932   -2.1384    4.0353 H   0  0  0  0  0  0  0  0  0  0  0  0
    4.2801   -0.6548    4.4441 H   0  0  0  0  0  0  0  0  0  0  0  0
    3.2339    0.6081    2.7410 H   0  0  0  0  0  0  0  0  0  0  0  0
    1.9508   -0.4460    0.4478 H   0  0  0  0  0  0  0  0  0  0  0  0
    0.6764   -0.8073    2.1033 H   0  0  0  0  0  0  0  0  0  0  0  0
    1.3692    1.1228    4.3708 H   0  0  0  0  0  0  0  0  0  0  0  0
    0.6312    1.6183    2.8555 H   0  0  0  0  0  0  0  0  0  0  0  0
   -1.0804    1.2533    4.6627 H   0  0  0  0  0  0  0  0  0  0  0  0
   -1.3317    0.1987    3.2914 H   0  0  0  0  0  0  0  0  0  0  0  0
   -0.1179   -0.5360    5.9950 H   0  0  0  0  0  0  0  0  0  0  0  0
   -1.6058   -1.1426    5.3097 H   0  0  0  0  0  0  0  0  0  0  0  0
    0.3351   -2.7732    5.2211 H   0  0  0  0  0  0  0  0  0  0  0  0
   -0.3988   -2.4837    3.6724 H   0  0  0  0  0  0  0  0  0  0  0  0
    2.1072   -1.1382    4.7661 H   0  0  0  0  0  0  0  0  0  0  0  0
    1.1941   -5.9487    1.4183 H   0  0  0  0  0  0  0  0  0  0  0  0
    1.0982   -8.4058    1.3050 H   0  0  0  0  0  0  0  0  0  0  0  0
    3.1186   -9.7643    1.8521 H   0  0  0  0  0  0  0  0  0  0  0  0
    5.2154   -8.6197    2.5795 H   0  0  0  0  0  0  0  0  0  0  0  0
    5.2819   -6.1671    2.7908 H   0  0  0  0  0  0  0  0  0  0  0  0
  1  2  1  0
  1 30  1  0
  1 31  1  0
  1 32  1  0
  2 33  1  0
  2 34  1  0
  2  3  1  0
  3  8  1  0
  3  4  1  0
  4  5  2  0
  4  6  1  0
  6 23  1  0
  6 35  1  1
  6  7  1  0
  7 10  1  0
  7 36  1  6
  7  8  1  0
  8  9  2  0
 10 20  1  0
 10 11  1  1
 10 12  1  0
 11 37  1  0
 11 38  1  0
 11 39  1  0
 12 13  1  0
 12 14  1  0
 12 40  1  1
 13 41  1  0
 14 19  1  0
 14 15  1  0
 14 42  1  6
 15 16  1  0
 15 43  1  0
 15 44  1  0
 16 17  1  0
 16 45  1  0
 16 46  1  0
 17 18  1  0
 17 47  1  0
 17 48  1  0
 18 19  1  0
 18 49  1  0
 18 50  1  0
 19 20  1  0
 19 51  1  1
 20 21  1  0
 21 22  2  0
 21 23  1  0
 23 24  1  0
 24 29  1  0
 24 25  2  0
 25 26  1  0
 25 52  1  0
 26 27  2  0
 26 53  1  0
 27 28  1  0
 27 54  1  0
 28 29  2  0
 28 55  1  0
 29 56  1  0
M  END
>  <i_m_ct_stereo_status>  (426) 
1

>  <s_m_source_file>  (426) 
/var/tmp/pbs.5076255.sched01/tmpm28zzdm2/1449lyhn0we.sdf

>  <i_m_source_file_index>  (426) 
47

>  <i_lp_mmshare_version>  (426) 
48012

>  <i_f3d_flags>  (426) 
0

>  <s_epik_input>  (426) 
W2NIXTFbY0hdW2NIXVtjSF1bY0hdYzFOKGMoYzJbQ0BAXTM0W0NIM10pYyhbT0hdKW4oW0NIMl1bQ0gzXSljMltPSF0pQyg9TylONFtDQEhdNVtDQEhdKFtDQEBIXTNbT0hdKVtDSDJdW0NIMl1bQ0gyXVtDSDJdNQ==

>  <s_epik_cmdline>  (426) 
J2VwaWtfcHl0aG9uJywgJy1waHQnLCAnMi4wJywgJy1waCcsICc3LjAnLCAnLXRuJywgJzgnLCAnLW1hJywgJzIwMCcsICctaW1hZScsICc8aW5maWxlLm1hZT4nLCAnLW9tYWUnLCAnPG91dGZpbGUubWFlPic=

>  <r_lp_tautomer_probability>  (426) 
1

>  <r_epik_Ionization_Penalty>  (426) 
2.18536e-05

>  <r_epik_Ionization_Penalty_Charging>  (426) 
0

>  <r_epik_Ionization_Penalty_Neutral>  (426) 
2.18536e-05

>  <r_epik_State_Penalty>  (426) 
-0

>  <r_epik_Charging_Adjusted_Penalty>  (426) 
0

>  <i_epik_Tot_Q>  (426) 
0

>  <i_epik_Tot_abs_Q>  (426) 
0

>  <s_lp_Force_Field>  (426) 
OPLS3e

>  <r_lp_Energy>  (426) 
58.6476

>  <b_lp_Chiralities_Consistent>  (426) 
1

>  <s_lp_Variant>  (426) 
117:0-3

>  <s_i_glide_gridfile>  (426) 
pfpi4k_grid

>  <i_i_glide_lignum>  (426) 
47

>  <i_i_glide_rotatable_bonds>  (426) 
3

>  <r_i_docking_score>  (426) 
-2.76741

>  <r_i_glide_ligand_efficiency>  (426) 
-0.0954279

>  <r_i_glide_ligand_efficiency_sa>  (426) 
-0.293185

>  <r_i_glide_ligand_efficiency_ln>  (426) 
-0.633666

>  <r_i_glide_gscore>  (426) 
-2.76741

>  <r_i_glide_lipo>  (426) 
-0.182075

>  <r_i_glide_hbond>  (426) 
0

>  <r_i_glide_metal>  (426) 
-0

>  <r_i_glide_rewards>  (426) 
-0.902666

>  <r_i_glide_evdw>  (426) 
-25.7689

>  <r_i_glide_ecoul>  (426) 
-3.43602

>  <r_i_glide_erotb>  (426) 
0.123908

>  <r_i_glide_esite>  (426) 
-0.00272631

>  <r_i_glide_emodel>  (426) 
-33.8576

>  <r_i_glide_energy>  (426) 
-29.205

>  <r_i_glide_einternal>  (426) 
0.683927

>  <r_i_glide_intrahb_reward>  (426) 
-0

>  <i_i_glide_confnum>  (426) 
2

>  <i_i_glide_posenum>  (426) 
28

>  <r_i_glide_eff_state_penalty>  (426) 
0

>  <ligand_id>  (426) 
117

>  <original_smiles>  (426) 
CCn1c(O)c2c(c1O)C1(C)C(O)C3CCCCC3N1C(=O)N2c1ccccc1

>  <smiles>  (426) 
[H]OC1([H])C2([H])C([H])([H])C([H])([H])C([H])([H])C([H])([H])C2([H])N2C(=O)N(c3c([H])c([H])c([H])c([H])c3[H])C3([H])C(=O)N(C([H])([H])C([H])([H])[H])C(=O)C3([H])C21C([H])([H])[H]

$$$$
117:2:1
     RDKit          3D

 56 60  0  0  1  0  0  0  0  0999 V2000
    8.5436   -4.8442    1.3197 C   0  0  0  0  0  0  0  0  0  0  0  0
    7.2845   -4.7678    0.4446 C   0  0  0  0  0  0  0  0  0  0  0  0
    6.1352   -4.2070    1.1618 N   0  0  0  0  0  0  0  0  0  0  0  0
    5.2301   -4.9364    1.8463 C   0  0  0  0  0  0  0  0  0  0  0  0
    5.1539   -6.1641    1.8699 O   0  0  0  0  0  0  0  0  0  0  0  0
    4.3519   -3.9926    2.6750 C   0  0  1  0  0  0  0  0  0  0  0  0
    4.4623   -2.7348    1.8439 C   0  0  2  0  0  0  0  0  0  0  0  0
    5.8518   -2.8915    1.2203 C   0  0  0  0  0  0  0  0  0  0  0  0
    6.5546   -1.9677    0.8051 O   0  0  0  0  0  0  0  0  0  0  0  0
    3.9757   -1.5440    2.6911 C   0  0  1  0  0  0  0  0  0  0  0  0
    4.9624   -1.2333    3.8560 C   0  0  0  0  0  0  0  0  0  0  0  0
    3.7130   -0.2297    1.8958 C   0  0  1  0  0  0  0  0  0  0  0  0
    3.9383   -0.3203    0.5032 O   0  0  0  0  0  0  0  0  0  0  0  0
    2.2505    0.1213    2.1783 C   0  0  2  0  0  0  0  0  0  0  0  0
    1.9184    1.6018    2.3857 C   0  0  0  0  0  0  0  0  0  0  0  0
    0.4149    1.7567    2.6654 C   0  0  0  0  0  0  0  0  0  0  0  0
   -0.0563    0.8818    3.8493 C   0  0  0  0  0  0  0  0  0  0  0  0
    0.4174   -0.5897    3.7519 C   0  0  0  0  0  0  0  0  0  0  0  0
    1.9355   -0.6464    3.4542 C   0  0  1  0  0  0  0  0  0  0  0  0
    2.6422   -1.9251    3.2493 N   0  0  0  0  0  0  0  0  0  0  0  0
    2.1236   -3.1935    3.3459 C   0  0  0  0  0  0  0  0  0  0  0  0
    0.9678   -3.3991    3.7231 O   0  0  0  0  0  0  0  0  0  0  0  0
    2.9338   -4.2365    2.9744 N   0  0  0  0  0  0  0  0  0  0  0  0
    2.4953   -5.5681    3.1876 C   0  0  0  0  0  0  0  0  0  0  0  0
    1.9092   -6.2953    2.1291 C   0  0  0  0  0  0  0  0  0  0  0  0
    1.4449   -7.6065    2.3493 C   0  0  0  0  0  0  0  0  0  0  0  0
    1.5698   -8.1929    3.6256 C   0  0  0  0  0  0  0  0  0  0  0  0
    2.1649   -7.4719    4.6809 C   0  0  0  0  0  0  0  0  0  0  0  0
    2.6338   -6.1631    4.4614 C   0  0  0  0  0  0  0  0  0  0  0  0
    9.3761   -5.2625    0.7552 H   0  0  0  0  0  0  0  0  0  0  0  0
    8.3864   -5.4836    2.1884 H   0  0  0  0  0  0  0  0  0  0  0  0
    8.8436   -3.8590    1.6751 H   0  0  0  0  0  0  0  0  0  0  0  0
    7.4951   -4.1632   -0.4402 H   0  0  0  0  0  0  0  0  0  0  0  0
    7.0456   -5.7680    0.0819 H   0  0  0  0  0  0  0  0  0  0  0  0
    4.8723   -3.9246    3.6309 H   0  0  0  0  0  0  0  0  0  0  0  0
    3.7762   -2.8366    0.9989 H   0  0  0  0  0  0  0  0  0  0  0  0
    5.9597   -1.0225    3.4707 H   0  0  0  0  0  0  0  0  0  0  0  0
    5.0462   -2.0390    4.5829 H   0  0  0  0  0  0  0  0  0  0  0  0
    4.6610   -0.3514    4.4223 H   0  0  0  0  0  0  0  0  0  0  0  0
    4.3597    0.5550    2.2792 H   0  0  0  0  0  0  0  0  0  0  0  0
    3.1749   -0.7048    0.0919 H   0  0  0  0  0  0  0  0  0  0  0  0
    1.6283   -0.2793    1.3739 H   0  0  0  0  0  0  0  0  0  0  0  0
    2.4960    1.9940    3.2255 H   0  0  0  0  0  0  0  0  0  0  0  0
    2.1870    2.1860    1.5082 H   0  0  0  0  0  0  0  0  0  0  0  0
    0.1899    2.8051    2.8647 H   0  0  0  0  0  0  0  0  0  0  0  0
   -0.1376    1.4919    1.7623 H   0  0  0  0  0  0  0  0  0  0  0  0
    0.3163    1.3142    4.7790 H   0  0  0  0  0  0  0  0  0  0  0  0
   -1.1463    0.9178    3.9092 H   0  0  0  0  0  0  0  0  0  0  0  0
    0.1893   -1.1006    4.6886 H   0  0  0  0  0  0  0  0  0  0  0  0
   -0.1464   -1.0915    2.9713 H   0  0  0  0  0  0  0  0  0  0  0  0
    2.4252   -0.1644    4.3020 H   0  0  0  0  0  0  0  0  0  0  0  0
    1.8231   -5.8468    1.1526 H   0  0  0  0  0  0  0  0  0  0  0  0
    0.9987   -8.1680    1.5420 H   0  0  0  0  0  0  0  0  0  0  0  0
    1.2132   -9.1996    3.7969 H   0  0  0  0  0  0  0  0  0  0  0  0
    2.2602   -7.9225    5.6578 H   0  0  0  0  0  0  0  0  0  0  0  0
    3.0830   -5.6101    5.2716 H   0  0  0  0  0  0  0  0  0  0  0  0
  1  2  1  0
  1 30  1  0
  1 31  1  0
  1 32  1  0
  2 33  1  0
  2 34  1  0
  2  3  1  0
  3  8  1  0
  3  4  1  0
  4  5  2  0
  4  6  1  0
  6 23  1  0
  6 35  1  1
  6  7  1  0
  7 10  1  0
  7 36  1  6
  7  8  1  0
  8  9  2  0
 10 20  1  0
 10 11  1  1
 10 12  1  0
 11 37  1  0
 11 38  1  0
 11 39  1  0
 12 13  1  0
 12 14  1  0
 12 40  1  1
 13 41  1  0
 14 19  1  0
 14 15  1  0
 14 42  1  6
 15 16  1  0
 15 43  1  0
 15 44  1  0
 16 17  1  0
 16 45  1  0
 16 46  1  0
 17 18  1  0
 17 47  1  0
 17 48  1  0
 18 19  1  0
 18 49  1  0
 18 50  1  0
 19 20  1  0
 19 51  1  1
 20 21  1  0
 21 22  2  0
 21 23  1  0
 23 24  1  0
 24 29  1  0
 24 25  2  0
 25 26  1  0
 25 52  1  0
 26 27  2  0
 26 53  1  0
 27 28  1  0
 27 54  1  0
 28 29  2  0
 28 55  1  0
 29 56  1  0
M  END
>  <i_m_ct_stereo_status>  (427) 
1

>  <s_m_source_file>  (427) 
/var/tmp/pbs.5076255.sched01/tmpm28zzdm2/1449lyhn0we.sdf

>  <i_m_source_file_index>  (427) 
47

>  <i_lp_mmshare_version>  (427) 
48012

>  <i_f3d_flags>  (427) 
0

>  <s_epik_input>  (427) 
W2NIXTFbY0hdW2NIXVtjSF1bY0hdYzFOKGMoYzJbQ0BAXTM0W0NIM10pYyhbT0hdKW4oW0NIMl1bQ0gzXSljMltPSF0pQyg9TylONFtDQEhdNVtDQEhdKFtDQEBIXTNbT0hdKVtDSDJdW0NIMl1bQ0gyXVtDSDJdNQ==

>  <s_epik_cmdline>  (427) 
J2VwaWtfcHl0aG9uJywgJy1waHQnLCAnMi4wJywgJy1waCcsICc3LjAnLCAnLXRuJywgJzgnLCAnLW1hJywgJzIwMCcsICctaW1hZScsICc8aW5maWxlLm1hZT4nLCAnLW9tYWUnLCAnPG91dGZpbGUubWFlPic=

>  <r_lp_tautomer_probability>  (427) 
1

>  <r_epik_Ionization_Penalty>  (427) 
2.18536e-05

>  <r_epik_Ionization_Penalty_Charging>  (427) 
0

>  <r_epik_Ionization_Penalty_Neutral>  (427) 
2.18536e-05

>  <r_epik_State_Penalty>  (427) 
-0

>  <r_epik_Charging_Adjusted_Penalty>  (427) 
0

>  <i_epik_Tot_Q>  (427) 
0

>  <i_epik_Tot_abs_Q>  (427) 
0

>  <s_lp_Force_Field>  (427) 
OPLS3e

>  <r_lp_Energy>  (427) 
58.6476

>  <b_lp_Chiralities_Consistent>  (427) 
1

>  <s_lp_Variant>  (427) 
117:0-3

>  <s_i_glide_gridfile>  (427) 
pfpi4k_grid

>  <i_i_glide_lignum>  (427) 
47

>  <i_i_glide_rotatable_bonds>  (427) 
3

>  <r_i_docking_score>  (427) 
-2.41285

>  <r_i_glide_ligand_efficiency>  (427) 
-0.0832019

>  <r_i_glide_ligand_efficiency_sa>  (427) 
-0.255623

>  <r_i_glide_ligand_efficiency_ln>  (427) 
-0.552483

>  <r_i_glide_gscore>  (427) 
-2.41285

>  <r_i_glide_lipo>  (427) 
-0.295934

>  <r_i_glide_hbond>  (427) 
0

>  <r_i_glide_metal>  (427) 
-0

>  <r_i_glide_rewards>  (427) 
-0.976921

>  <r_i_glide_evdw>  (427) 
-24.2416

>  <r_i_glide_ecoul>  (427) 
-0.332772

>  <r_i_glide_erotb>  (427) 
0.123908

>  <r_i_glide_esite>  (427) 
-0.00191138

>  <r_i_glide_emodel>  (427) 
-28.136

>  <r_i_glide_energy>  (427) 
-24.5744

>  <r_i_glide_einternal>  (427) 
1.93464

>  <r_i_glide_intrahb_reward>  (427) 
-0

>  <i_i_glide_confnum>  (427) 
2

>  <i_i_glide_posenum>  (427) 
1

>  <r_i_glide_eff_state_penalty>  (427) 
0

>  <ligand_id>  (427) 
117

>  <original_smiles>  (427) 
CCn1c(O)c2c(c1O)C1(C)C(O)C3CCCCC3N1C(=O)N2c1ccccc1

>  <smiles>  (427) 
[H]OC1([H])C2([H])C([H])([H])C([H])([H])C([H])([H])C([H])([H])C2([H])N2C(=O)N(c3c([H])c([H])c([H])c([H])c3[H])C3([H])C(=O)N(C([H])([H])C([H])([H])[H])C(=O)C3([H])C21C([H])([H])[H]

$$$$
117:2:2
     RDKit          3D

 56 60  0  0  1  0  0  0  0  0999 V2000
    6.6966   -4.6914    8.4198 C   0  0  0  0  0  0  0  0  0  0  0  0
    6.6926   -4.5950    6.8853 C   0  0  0  0  0  0  0  0  0  0  0  0
    5.5018   -3.8999    6.3789 N   0  0  0  0  0  0  0  0  0  0  0  0
    4.3454   -4.5078    6.0471 C   0  0  0  0  0  0  0  0  0  0  0  0
    4.1603   -5.7219    5.9889 O   0  0  0  0  0  0  0  0  0  0  0  0
    3.2564   -3.4424    5.8356 C   0  0  1  0  0  0  0  0  0  0  0  0
    4.1269   -2.2703    5.4409 C   0  0  2  0  0  0  0  0  0  0  0  0
    5.4186   -2.5681    6.2023 C   0  0  0  0  0  0  0  0  0  0  0  0
    6.2487   -1.7233    6.5412 O   0  0  0  0  0  0  0  0  0  0  0  0
    3.2953   -0.9768    5.5477 C   0  0  1  0  0  0  0  0  0  0  0  0
    2.9581   -0.6411    7.0304 C   0  0  0  0  0  0  0  0  0  0  0  0
    3.9246    0.2852    4.8759 C   0  0  1  0  0  0  0  0  0  0  0  0
    5.1737    0.0728    4.2440 O   0  0  0  0  0  0  0  0  0  0  0  0
    2.8804    0.7461    3.8562 C   0  0  2  0  0  0  0  0  0  0  0  0
    2.6739    2.2568    3.7179 C   0  0  0  0  0  0  0  0  0  0  0  0
    1.5927    2.5324    2.6596 C   0  0  0  0  0  0  0  0  0  0  0  0
    0.2711    1.7894    2.9619 C   0  0  0  0  0  0  0  0  0  0  0  0
    0.4706    0.2846    3.2744 C   0  0  0  0  0  0  0  0  0  0  0  0
    1.5850    0.1084    4.3383 C   0  0  1  0  0  0  0  0  0  0  0  0
    2.0309   -1.2225    4.7893 N   0  0  0  0  0  0  0  0  0  0  0  0
    1.5125   -2.4384    4.4158 C   0  0  0  0  0  0  0  0  0  0  0  0
    0.5133   -2.5217    3.7062 O   0  0  0  0  0  0  0  0  0  0  0  0
    2.1651   -3.5689    4.8553 N   0  0  0  0  0  0  0  0  0  0  0  0
    1.5845   -4.8471    4.6172 C   0  0  0  0  0  0  0  0  0  0  0  0
    1.4609   -5.3337    3.2972 C   0  0  0  0  0  0  0  0  0  0  0  0
    0.8679   -6.5852    3.0524 C   0  0  0  0  0  0  0  0  0  0  0  0
    0.4048   -7.3656    4.1303 C   0  0  0  0  0  0  0  0  0  0  0  0
    0.5408   -6.8952    5.4515 C   0  0  0  0  0  0  0  0  0  0  0  0
    1.1284   -5.6397    5.6959 C   0  0  0  0  0  0  0  0  0  0  0  0
    7.5954   -5.1991    8.7712 H   0  0  0  0  0  0  0  0  0  0  0  0
    5.8375   -5.2516    8.7904 H   0  0  0  0  0  0  0  0  0  0  0  0
    6.6746   -3.7048    8.8838 H   0  0  0  0  0  0  0  0  0  0  0  0
    7.5922   -4.0764    6.5512 H   0  0  0  0  0  0  0  0  0  0  0  0
    6.7591   -5.5978    6.4601 H   0  0  0  0  0  0  0  0  0  0  0  0
    2.7975   -3.3270    6.8185 H   0  0  0  0  0  0  0  0  0  0  0  0
    4.3973   -2.4000    4.3894 H   0  0  0  0  0  0  0  0  0  0  0  0
    3.8664   -0.5384    7.6255 H   0  0  0  0  0  0  0  0  0  0  0  0
    2.3298   -1.3866    7.5139 H   0  0  0  0  0  0  0  0  0  0  0  0
    2.4208    0.3034    7.1201 H   0  0  0  0  0  0  0  0  0  0  0  0
    4.0746    1.0712    5.6190 H   0  0  0  0  0  0  0  0  0  0  0  0
    5.0605   -0.5413    3.5321 H   0  0  0  0  0  0  0  0  0  0  0  0
    3.1211    0.3183    2.8795 H   0  0  0  0  0  0  0  0  0  0  0  0
    2.3644    2.6733    4.6780 H   0  0  0  0  0  0  0  0  0  0  0  0
    3.6055    2.7502    3.4476 H   0  0  0  0  0  0  0  0  0  0  0  0
    1.4100    3.6050    2.5961 H   0  0  0  0  0  0  0  0  0  0  0  0
    1.9610    2.2289    1.6795 H   0  0  0  0  0  0  0  0  0  0  0  0
   -0.2191    2.2693    3.8107 H   0  0  0  0  0  0  0  0  0  0  0  0
   -0.4082    1.9079    2.1147 H   0  0  0  0  0  0  0  0  0  0  0  0
   -0.4737   -0.1241    3.6381 H   0  0  0  0  0  0  0  0  0  0  0  0
    0.7096   -0.2521    2.3543 H   0  0  0  0  0  0  0  0  0  0  0  0
    1.2324    0.6253    5.2334 H   0  0  0  0  0  0  0  0  0  0  0  0
    1.8197   -4.7344    2.4747 H   0  0  0  0  0  0  0  0  0  0  0  0
    0.7755   -6.9488    2.0405 H   0  0  0  0  0  0  0  0  0  0  0  0
   -0.0446   -8.3321    3.9463 H   0  0  0  0  0  0  0  0  0  0  0  0
    0.2031   -7.5007    6.2799 H   0  0  0  0  0  0  0  0  0  0  0  0
    1.2316   -5.2889    6.7121 H   0  0  0  0  0  0  0  0  0  0  0  0
  1  2  1  0
  1 30  1  0
  1 31  1  0
  1 32  1  0
  2 33  1  0
  2 34  1  0
  2  3  1  0
  3  8  1  0
  3  4  1  0
  4  5  2  0
  4  6  1  0
  6 23  1  0
  6 35  1  1
  6  7  1  0
  7 10  1  0
  7 36  1  6
  7  8  1  0
  8  9  2  0
 10 20  1  0
 10 11  1  1
 10 12  1  0
 11 37  1  0
 11 38  1  0
 11 39  1  0
 12 13  1  0
 12 14  1  0
 12 40  1  1
 13 41  1  0
 14 19  1  0
 14 15  1  0
 14 42  1  6
 15 16  1  0
 15 43  1  0
 15 44  1  0
 16 17  1  0
 16 45  1  0
 16 46  1  0
 17 18  1  0
 17 47  1  0
 17 48  1  0
 18 19  1  0
 18 49  1  0
 18 50  1  0
 19 20  1  0
 19 51  1  1
 20 21  1  0
 21 22  2  0
 21 23  1  0
 23 24  1  0
 24 29  1  0
 24 25  2  0
 25 26  1  0
 25 52  1  0
 26 27  2  0
 26 53  1  0
 27 28  1  0
 27 54  1  0
 28 29  2  0
 28 55  1  0
 29 56  1  0
M  END
>  <i_m_ct_stereo_status>  (428) 
1

>  <s_m_source_file>  (428) 
/var/tmp/pbs.5076255.sched01/tmpm28zzdm2/1449lyhn0we.sdf

>  <i_m_source_file_index>  (428) 
47

>  <i_lp_mmshare_version>  (428) 
48012

>  <i_f3d_flags>  (428) 
0

>  <s_epik_input>  (428) 
W2NIXTFbY0hdW2NIXVtjSF1bY0hdYzFOKGMoYzJbQ0BAXTM0W0NIM10pYyhbT0hdKW4oW0NIMl1bQ0gzXSljMltPSF0pQyg9TylONFtDQEhdNVtDQEhdKFtDQEBIXTNbT0hdKVtDSDJdW0NIMl1bQ0gyXVtDSDJdNQ==

>  <s_epik_cmdline>  (428) 
J2VwaWtfcHl0aG9uJywgJy1waHQnLCAnMi4wJywgJy1waCcsICc3LjAnLCAnLXRuJywgJzgnLCAnLW1hJywgJzIwMCcsICctaW1hZScsICc8aW5maWxlLm1hZT4nLCAnLW9tYWUnLCAnPG91dGZpbGUubWFlPic=

>  <r_lp_tautomer_probability>  (428) 
1

>  <r_epik_Ionization_Penalty>  (428) 
2.18536e-05

>  <r_epik_Ionization_Penalty_Charging>  (428) 
0

>  <r_epik_Ionization_Penalty_Neutral>  (428) 
2.18536e-05

>  <r_epik_State_Penalty>  (428) 
-0

>  <r_epik_Charging_Adjusted_Penalty>  (428) 
0

>  <i_epik_Tot_Q>  (428) 
0

>  <i_epik_Tot_abs_Q>  (428) 
0

>  <s_lp_Force_Field>  (428) 
OPLS3e

>  <r_lp_Energy>  (428) 
58.6476

>  <b_lp_Chiralities_Consistent>  (428) 
1

>  <s_lp_Variant>  (428) 
117:0-3

>  <s_i_glide_gridfile>  (428) 
pfpi4k_grid

>  <i_i_glide_lignum>  (428) 
47

>  <i_i_glide_rotatable_bonds>  (428) 
3

>  <r_i_docking_score>  (428) 
-1.1555

>  <r_i_glide_ligand_efficiency>  (428) 
-0.0398447

>  <r_i_glide_ligand_efficiency_sa>  (428) 
-0.122416

>  <r_i_glide_ligand_efficiency_ln>  (428) 
-0.264579

>  <r_i_glide_gscore>  (428) 
-1.1555

>  <r_i_glide_lipo>  (428) 
-0.0134363

>  <r_i_glide_hbond>  (428) 
0

>  <r_i_glide_metal>  (428) 
-0

>  <r_i_glide_rewards>  (428) 
-0.727963

>  <r_i_glide_evdw>  (428) 
-17.3067

>  <r_i_glide_ecoul>  (428) 
2.18223

>  <r_i_glide_erotb>  (428) 
0.123908

>  <r_i_glide_esite>  (428) 
-6.39553e-06

>  <r_i_glide_emodel>  (428) 
-17.1977

>  <r_i_glide_energy>  (428) 
-15.1244

>  <r_i_glide_einternal>  (428) 
0.0681089

>  <r_i_glide_intrahb_reward>  (428) 
-0

>  <i_i_glide_confnum>  (428) 
2

>  <i_i_glide_posenum>  (428) 
31

>  <r_i_glide_eff_state_penalty>  (428) 
0

>  <ligand_id>  (428) 
117

>  <original_smiles>  (428) 
CCn1c(O)c2c(c1O)C1(C)C(O)C3CCCCC3N1C(=O)N2c1ccccc1

>  <smiles>  (428) 
[H]OC1([H])C2([H])C([H])([H])C([H])([H])C([H])([H])C([H])([H])C2([H])N2C(=O)N(c3c([H])c([H])c([H])c([H])c3[H])C3([H])C(=O)N(C([H])([H])C([H])([H])[H])C(=O)C3([H])C21C([H])([H])[H]

$$$$
117:3:0
     RDKit          3D

 56 60  0  0  1  0  0  0  0  0999 V2000
    9.0797   -6.6841    3.7118 C   0  0  0  0  0  0  0  0  0  0  0  0
    8.3546   -7.1573    2.4397 C   0  0  0  0  0  0  0  0  0  0  0  0
    6.9068   -6.8910    2.4771 N   0  0  0  0  0  0  0  0  0  0  0  0
    6.3313   -5.7795    1.9908 C   0  0  0  0  0  0  0  0  0  0  0  0
    6.9307   -4.8745    1.4113 O   0  0  0  0  0  0  0  0  0  0  0  0
    4.8226   -5.7493    2.3008 C   0  0  2  0  0  0  0  0  0  0  0  0
    4.5808   -7.1562    2.9280 C   0  0  2  0  0  0  0  0  0  0  0  0
    6.0143   -7.7184    3.0345 C   0  0  0  0  0  0  0  0  0  0  0  0
    6.2913   -8.7901    3.5849 O   0  0  0  0  0  0  0  0  0  0  0  0
    3.5762   -8.0131    2.0826 C   0  0  1  0  0  0  0  0  0  0  0  0
    4.2184   -8.6150    0.7948 C   0  0  0  0  0  0  0  0  0  0  0  0
    2.8382   -9.1837    2.8096 C   0  0  1  0  0  0  0  0  0  0  0  0
    3.4762   -9.6407    3.9759 O   0  0  0  0  0  0  0  0  0  0  0  0
    1.4835   -8.6115    3.1761 C   0  0  2  0  0  0  0  0  0  0  0  0
    0.2964   -9.5737    3.2961 C   0  0  0  0  0  0  0  0  0  0  0  0
   -0.9658   -8.7744    3.6722 C   0  0  0  0  0  0  0  0  0  0  0  0
   -1.2254   -7.5786    2.7270 C   0  0  0  0  0  0  0  0  0  0  0  0
    0.0350   -6.7182    2.4471 C   0  0  0  0  0  0  0  0  0  0  0  0
    1.2023   -7.6470    2.0400 C   0  0  1  0  0  0  0  0  0  0  0  0
    2.5044   -7.0686    1.7177 N   0  0  0  0  0  0  0  0  0  0  0  0
    2.7265   -5.9766    0.9600 C   0  0  0  0  0  0  0  0  0  0  0  0
    1.8513   -5.5224    0.2149 O   0  0  0  0  0  0  0  0  0  0  0  0
    3.9493   -5.3962    1.1407 N   0  0  0  0  0  0  0  0  0  0  0  0
    4.2447   -4.2113    0.4081 C   0  0  0  0  0  0  0  0  0  0  0  0
    4.6194   -4.2879   -0.9511 C   0  0  0  0  0  0  0  0  0  0  0  0
    4.9191   -3.1250   -1.6804 C   0  0  0  0  0  0  0  0  0  0  0  0
    4.8484   -1.8670   -1.0519 C   0  0  0  0  0  0  0  0  0  0  0  0
    4.4863   -1.7801    0.3088 C   0  0  0  0  0  0  0  0  0  0  0  0
    4.1926   -2.9486    1.0372 C   0  0  0  0  0  0  0  0  0  0  0  0
   10.1452   -6.9096    3.6538 H   0  0  0  0  0  0  0  0  0  0  0  0
    8.6941   -7.1752    4.6053 H   0  0  0  0  0  0  0  0  0  0  0  0
    8.9841   -5.6080    3.8552 H   0  0  0  0  0  0  0  0  0  0  0  0
    8.8139   -6.6798    1.5746 H   0  0  0  0  0  0  0  0  0  0  0  0
    8.5369   -8.2254    2.3073 H   0  0  0  0  0  0  0  0  0  0  0  0
    4.6726   -4.9807    3.0570 H   0  0  0  0  0  0  0  0  0  0  0  0
    4.1907   -7.0264    3.9414 H   0  0  0  0  0  0  0  0  0  0  0  0
    4.9300   -9.4101    1.0328 H   0  0  0  0  0  0  0  0  0  0  0  0
    4.7348   -7.8693    0.1854 H   0  0  0  0  0  0  0  0  0  0  0  0
    3.4553   -9.0795    0.1691 H   0  0  0  0  0  0  0  0  0  0  0  0
    2.6866  -10.0281    2.1252 H   0  0  0  0  0  0  0  0  0  0  0  0
    3.0731  -10.4561    4.2418 H   0  0  0  0  0  0  0  0  0  0  0  0
    1.5965   -8.0521    4.1058 H   0  0  0  0  0  0  0  0  0  0  0  0
    0.1409  -10.0713    2.3381 H   0  0  0  0  0  0  0  0  0  0  0  0
    0.4818  -10.3544    4.0346 H   0  0  0  0  0  0  0  0  0  0  0  0
   -1.8302   -9.4378    3.6592 H   0  0  0  0  0  0  0  0  0  0  0  0
   -0.8627   -8.4171    4.6976 H   0  0  0  0  0  0  0  0  0  0  0  0
   -1.5997   -7.9657    1.7781 H   0  0  0  0  0  0  0  0  0  0  0  0
   -2.0294   -6.9700    3.1448 H   0  0  0  0  0  0  0  0  0  0  0  0
   -0.1844   -6.0225    1.6438 H   0  0  0  0  0  0  0  0  0  0  0  0
    0.2823   -6.1180    3.3252 H   0  0  0  0  0  0  0  0  0  0  0  0
    0.9149   -8.2055    1.1489 H   0  0  0  0  0  0  0  0  0  0  0  0
    4.6720   -5.2499   -1.4306 H   0  0  0  0  0  0  0  0  0  0  0  0
    5.1940   -3.2086   -2.7216 H   0  0  0  0  0  0  0  0  0  0  0  0
    5.0591   -0.9668   -1.6156 H   0  0  0  0  0  0  0  0  0  0  0  0
    4.4235   -0.8146    0.7873 H   0  0  0  0  0  0  0  0  0  0  0  0
    3.9075   -2.8739    2.0748 H   0  0  0  0  0  0  0  0  0  0  0  0
  1  2  1  0
  1 30  1  0
  1 31  1  0
  1 32  1  0
  2 33  1  0
  2 34  1  0
  2  3  1  0
  3  8  1  0
  3  4  1  0
  4  5  2  0
  4  6  1  0
  6 23  1  0
  6 35  1  1
  6  7  1  0
  7 10  1  0
  7 36  1  1
  7  8  1  0
  8  9  2  0
 10 20  1  0
 10 11  1  6
 10 12  1  0
 11 37  1  0
 11 38  1  0
 11 39  1  0
 12 13  1  0
 12 14  1  0
 12 40  1  6
 13 41  1  0
 14 19  1  0
 14 15  1  0
 14 42  1  1
 15 16  1  0
 15 43  1  0
 15 44  1  0
 16 17  1  0
 16 45  1  0
 16 46  1  0
 17 18  1  0
 17 47  1  0
 17 48  1  0
 18 19  1  0
 18 49  1  0
 18 50  1  0
 19 20  1  0
 19 51  1  6
 20 21  1  0
 21 22  2  0
 21 23  1  0
 23 24  1  0
 24 29  1  0
 24 25  2  0
 25 26  1  0
 25 52  1  0
 26 27  2  0
 26 53  1  0
 27 28  1  0
 27 54  1  0
 28 29  2  0
 28 55  1  0
 29 56  1  0
M  END
>  <i_m_ct_stereo_status>  (429) 
1

>  <s_m_source_file>  (429) 
/var/tmp/pbs.5076255.sched01/tmpm28zzdm2/1449lyhn0we.sdf

>  <i_m_source_file_index>  (429) 
48

>  <i_lp_mmshare_version>  (429) 
48012

>  <i_f3d_flags>  (429) 
0

>  <s_epik_input>  (429) 
W2NIXTFbY0hdW2NIXVtjSF1bY0hdYzFOKGMoYzJbQ0BAXTM0W0NIM10pYyhbT0hdKW4oW0NIMl1bQ0gzXSljMltPSF0pQyg9TylONFtDQEhdNVtDQEhdKFtDQEBIXTNbT0hdKVtDSDJdW0NIMl1bQ0gyXVtDSDJdNQ==

>  <s_epik_cmdline>  (429) 
J2VwaWtfcHl0aG9uJywgJy1waHQnLCAnMi4wJywgJy1waCcsICc3LjAnLCAnLXRuJywgJzgnLCAnLW1hJywgJzIwMCcsICctaW1hZScsICc8aW5maWxlLm1hZT4nLCAnLW9tYWUnLCAnPG91dGZpbGUubWFlPic=

>  <r_lp_tautomer_probability>  (429) 
1

>  <r_epik_Ionization_Penalty>  (429) 
2.18536e-05

>  <r_epik_Ionization_Penalty_Charging>  (429) 
0

>  <r_epik_Ionization_Penalty_Neutral>  (429) 
2.18536e-05

>  <r_epik_State_Penalty>  (429) 
-0

>  <r_epik_Charging_Adjusted_Penalty>  (429) 
0

>  <i_epik_Tot_Q>  (429) 
0

>  <i_epik_Tot_abs_Q>  (429) 
0

>  <s_lp_Force_Field>  (429) 
OPLS3e

>  <r_lp_Energy>  (429) 
46.4618

>  <b_lp_Chiralities_Consistent>  (429) 
1

>  <s_lp_Variant>  (429) 
117:0-4

>  <s_i_glide_gridfile>  (429) 
pfpi4k_grid

>  <i_i_glide_lignum>  (429) 
48

>  <i_i_glide_rotatable_bonds>  (429) 
3

>  <r_i_docking_score>  (429) 
-2.72306

>  <r_i_glide_ligand_efficiency>  (429) 
-0.0938985

>  <r_i_glide_ligand_efficiency_sa>  (429) 
-0.288486

>  <r_i_glide_ligand_efficiency_ln>  (429) 
-0.623511

>  <r_i_glide_gscore>  (429) 
-2.72306

>  <r_i_glide_lipo>  (429) 
-0.0784412

>  <r_i_glide_hbond>  (429) 
-0.07319

>  <r_i_glide_metal>  (429) 
-0

>  <r_i_glide_rewards>  (429) 
-0.840917

>  <r_i_glide_evdw>  (429) 
-29.5976

>  <r_i_glide_ecoul>  (429) 
-2.35438

>  <r_i_glide_erotb>  (429) 
0.123908

>  <r_i_glide_esite>  (429) 
-0.021382

>  <r_i_glide_emodel>  (429) 
-36.3719

>  <r_i_glide_energy>  (429) 
-31.9519

>  <r_i_glide_einternal>  (429) 
1.27359

>  <r_i_glide_intrahb_reward>  (429) 
-0

>  <i_i_glide_confnum>  (429) 
1

>  <i_i_glide_posenum>  (429) 
35

>  <r_i_glide_eff_state_penalty>  (429) 
0

>  <ligand_id>  (429) 
117

>  <original_smiles>  (429) 
CCn1c(O)c2c(c1O)C1(C)C(O)C3CCCCC3N1C(=O)N2c1ccccc1

>  <smiles>  (429) 
[H]OC1([H])C2([H])C([H])([H])C([H])([H])C([H])([H])C([H])([H])C2([H])N2C(=O)N(c3c([H])c([H])c([H])c([H])c3[H])C3([H])C(=O)N(C([H])([H])C([H])([H])[H])C(=O)C3([H])C21C([H])([H])[H]

$$$$
117:3:1
     RDKit          3D

 56 60  0  0  1  0  0  0  0  0999 V2000
    9.5744   -6.2972    3.3018 C   0  0  0  0  0  0  0  0  0  0  0  0
    8.6974   -6.2246    2.0361 C   0  0  0  0  0  0  0  0  0  0  0  0
    7.2619   -6.3814    2.3211 N   0  0  0  0  0  0  0  0  0  0  0  0
    6.3479   -5.4246    2.1363 C   0  0  0  0  0  0  0  0  0  0  0  0
    6.5842   -4.3119    1.6546 O   0  0  0  0  0  0  0  0  0  0  0  0
    4.9638   -5.8496    2.6552 C   0  0  2  0  0  0  0  0  0  0  0  0
    5.1996   -7.3444    3.0246 C   0  0  2  0  0  0  0  0  0  0  0  0
    6.7155   -7.5070    2.8110 C   0  0  0  0  0  0  0  0  0  0  0  0
    7.3296   -8.5393    3.0866 O   0  0  0  0  0  0  0  0  0  0  0  0
    4.2998   -8.3077    2.1829 C   0  0  1  0  0  0  0  0  0  0  0  0
    4.8017   -8.5028    0.7213 C   0  0  0  0  0  0  0  0  0  0  0  0
    4.0434   -9.7310    2.7776 C   0  0  1  0  0  0  0  0  0  0  0  0
    5.0135  -10.2109    3.6887 O   0  0  0  0  0  0  0  0  0  0  0  0
    2.6757   -9.6151    3.4257 C   0  0  2  0  0  0  0  0  0  0  0  0
    1.8143  -10.8753    3.5160 C   0  0  0  0  0  0  0  0  0  0  0  0
    0.4856  -10.5256    4.2071 C   0  0  0  0  0  0  0  0  0  0  0  0
   -0.2408   -9.3215    3.5545 C   0  0  0  0  0  0  0  0  0  0  0  0
    0.6845   -8.1108    3.2728 C   0  0  0  0  0  0  0  0  0  0  0  0
    1.9499   -8.6145    2.5375 C   0  0  1  0  0  0  0  0  0  0  0  0
    2.9792   -7.6554    2.1568 N   0  0  0  0  0  0  0  0  0  0  0  0
    2.7818   -6.4452    1.5876 C   0  0  0  0  0  0  0  0  0  0  0  0
    1.7113   -6.1421    1.0432 O   0  0  0  0  0  0  0  0  0  0  0  0
    3.8284   -5.5830    1.7227 N   0  0  0  0  0  0  0  0  0  0  0  0
    3.6925   -4.2643    1.1955 C   0  0  0  0  0  0  0  0  0  0  0  0
    3.6263   -4.0638   -0.2000 C   0  0  0  0  0  0  0  0  0  0  0  0
    3.4818   -2.7683   -0.7271 C   0  0  0  0  0  0  0  0  0  0  0  0
    3.4258   -1.6611    0.1400 C   0  0  0  0  0  0  0  0  0  0  0  0
    3.5030   -1.8508    1.5333 C   0  0  0  0  0  0  0  0  0  0  0  0
    3.6392   -3.1499    2.0602 C   0  0  0  0  0  0  0  0  0  0  0  0
   10.6322   -6.1930    3.0561 H   0  0  0  0  0  0  0  0  0  0  0  0
    9.4771   -7.2506    3.8208 H   0  0  0  0  0  0  0  0  0  0  0  0
    9.3106   -5.5153    4.0135 H   0  0  0  0  0  0  0  0  0  0  0  0
    8.9240   -5.2862    1.5267 H   0  0  0  0  0  0  0  0  0  0  0  0
    8.9840   -7.0053    1.3365 H   0  0  0  0  0  0  0  0  0  0  0  0
    4.7798   -5.2817    3.5653 H   0  0  0  0  0  0  0  0  0  0  0  0
    4.9901   -7.4761    4.0917 H   0  0  0  0  0  0  0  0  0  0  0  0
    5.7198   -9.0979    0.6911 H   0  0  0  0  0  0  0  0  0  0  0  0
    5.0000   -7.5573    0.2111 H   0  0  0  0  0  0  0  0  0  0  0  0
    4.0612   -9.0407    0.1233 H   0  0  0  0  0  0  0  0  0  0  0  0
    3.9645  -10.4639    1.9712 H   0  0  0  0  0  0  0  0  0  0  0  0
    5.0446   -9.6483    4.4472 H   0  0  0  0  0  0  0  0  0  0  0  0
    2.8104   -9.1893    4.4206 H   0  0  0  0  0  0  0  0  0  0  0  0
    1.6089  -11.2405    2.5099 H   0  0  0  0  0  0  0  0  0  0  0  0
    2.3210  -11.6779    4.0513 H   0  0  0  0  0  0  0  0  0  0  0  0
   -0.1678  -11.3976    4.1824 H   0  0  0  0  0  0  0  0  0  0  0  0
    0.6745  -10.3122    5.2581 H   0  0  0  0  0  0  0  0  0  0  0  0
   -0.6897   -9.6488    2.6121 H   0  0  0  0  0  0  0  0  0  0  0  0
   -1.0766   -9.0239    4.1917 H   0  0  0  0  0  0  0  0  0  0  0  0
    0.1378   -7.3864    2.6731 H   0  0  0  0  0  0  0  0  0  0  0  0
    0.9338   -7.6093    4.2081 H   0  0  0  0  0  0  0  0  0  0  0  0
    1.6496   -9.0932    1.6024 H   0  0  0  0  0  0  0  0  0  0  0  0
    3.6793   -4.9126   -0.8580 H   0  0  0  0  0  0  0  0  0  0  0  0
    3.4088   -2.6274   -1.7947 H   0  0  0  0  0  0  0  0  0  0  0  0
    3.2995   -0.6675   -0.2664 H   0  0  0  0  0  0  0  0  0  0  0  0
    3.4489   -1.0009    2.1965 H   0  0  0  0  0  0  0  0  0  0  0  0
    3.6869   -3.2819    3.1293 H   0  0  0  0  0  0  0  0  0  0  0  0
  1  2  1  0
  1 30  1  0
  1 31  1  0
  1 32  1  0
  2 33  1  0
  2 34  1  0
  2  3  1  0
  3  8  1  0
  3  4  1  0
  4  5  2  0
  4  6  1  0
  6 23  1  0
  6 35  1  1
  6  7  1  0
  7 10  1  0
  7 36  1  1
  7  8  1  0
  8  9  2  0
 10 20  1  0
 10 11  1  6
 10 12  1  0
 11 37  1  0
 11 38  1  0
 11 39  1  0
 12 13  1  0
 12 14  1  0
 12 40  1  6
 13 41  1  0
 14 19  1  0
 14 15  1  0
 14 42  1  1
 15 16  1  0
 15 43  1  0
 15 44  1  0
 16 17  1  0
 16 45  1  0
 16 46  1  0
 17 18  1  0
 17 47  1  0
 17 48  1  0
 18 19  1  0
 18 49  1  0
 18 50  1  0
 19 20  1  0
 19 51  1  6
 20 21  1  0
 21 22  2  0
 21 23  1  0
 23 24  1  0
 24 29  1  0
 24 25  2  0
 25 26  1  0
 25 52  1  0
 26 27  2  0
 26 53  1  0
 27 28  1  0
 27 54  1  0
 28 29  2  0
 28 55  1  0
 29 56  1  0
M  END
>  <i_m_ct_stereo_status>  (430) 
1

>  <s_m_source_file>  (430) 
/var/tmp/pbs.5076255.sched01/tmpm28zzdm2/1449lyhn0we.sdf

>  <i_m_source_file_index>  (430) 
48

>  <i_lp_mmshare_version>  (430) 
48012

>  <i_f3d_flags>  (430) 
0

>  <s_epik_input>  (430) 
W2NIXTFbY0hdW2NIXVtjSF1bY0hdYzFOKGMoYzJbQ0BAXTM0W0NIM10pYyhbT0hdKW4oW0NIMl1bQ0gzXSljMltPSF0pQyg9TylONFtDQEhdNVtDQEhdKFtDQEBIXTNbT0hdKVtDSDJdW0NIMl1bQ0gyXVtDSDJdNQ==

>  <s_epik_cmdline>  (430) 
J2VwaWtfcHl0aG9uJywgJy1waHQnLCAnMi4wJywgJy1waCcsICc3LjAnLCAnLXRuJywgJzgnLCAnLW1hJywgJzIwMCcsICctaW1hZScsICc8aW5maWxlLm1hZT4nLCAnLW9tYWUnLCAnPG91dGZpbGUubWFlPic=

>  <r_lp_tautomer_probability>  (430) 
1

>  <r_epik_Ionization_Penalty>  (430) 
2.18536e-05

>  <r_epik_Ionization_Penalty_Charging>  (430) 
0

>  <r_epik_Ionization_Penalty_Neutral>  (430) 
2.18536e-05

>  <r_epik_State_Penalty>  (430) 
-0

>  <r_epik_Charging_Adjusted_Penalty>  (430) 
0

>  <i_epik_Tot_Q>  (430) 
0

>  <i_epik_Tot_abs_Q>  (430) 
0

>  <s_lp_Force_Field>  (430) 
OPLS3e

>  <r_lp_Energy>  (430) 
46.4618

>  <b_lp_Chiralities_Consistent>  (430) 
1

>  <s_lp_Variant>  (430) 
117:0-4

>  <s_i_glide_gridfile>  (430) 
pfpi4k_grid

>  <i_i_glide_lignum>  (430) 
48

>  <i_i_glide_rotatable_bonds>  (430) 
3

>  <r_i_docking_score>  (430) 
-2.54408

>  <r_i_glide_ligand_efficiency>  (430) 
-0.0877268

>  <r_i_glide_ligand_efficiency_sa>  (430) 
-0.269525

>  <r_i_glide_ligand_efficiency_ln>  (430) 
-0.582529

>  <r_i_glide_gscore>  (430) 
-2.54408

>  <r_i_glide_lipo>  (430) 
-0.108313

>  <r_i_glide_hbond>  (430) 
-0.0326488

>  <r_i_glide_metal>  (430) 
-0

>  <r_i_glide_rewards>  (430) 
-0.833848

>  <r_i_glide_evdw>  (430) 
-25.7172

>  <r_i_glide_ecoul>  (430) 
-2.70463

>  <r_i_glide_erotb>  (430) 
0.123908

>  <r_i_glide_esite>  (430) 
-0.001618

>  <r_i_glide_emodel>  (430) 
-32.5922

>  <r_i_glide_energy>  (430) 
-28.4219

>  <r_i_glide_einternal>  (430) 
1.015

>  <r_i_glide_intrahb_reward>  (430) 
-0

>  <i_i_glide_confnum>  (430) 
3

>  <i_i_glide_posenum>  (430) 
34

>  <r_i_glide_eff_state_penalty>  (430) 
0

>  <ligand_id>  (430) 
117

>  <original_smiles>  (430) 
CCn1c(O)c2c(c1O)C1(C)C(O)C3CCCCC3N1C(=O)N2c1ccccc1

>  <smiles>  (430) 
[H]OC1([H])C2([H])C([H])([H])C([H])([H])C([H])([H])C([H])([H])C2([H])N2C(=O)N(c3c([H])c([H])c([H])c([H])c3[H])C3([H])C(=O)N(C([H])([H])C([H])([H])[H])C(=O)C3([H])C21C([H])([H])[H]

$$$$
117:3:2
     RDKit          3D

 56 60  0  0  1  0  0  0  0  0999 V2000
    8.3997   -9.6692    3.8974 C   0  0  0  0  0  0  0  0  0  0  0  0
    8.1424   -8.1776    4.1605 C   0  0  0  0  0  0  0  0  0  0  0  0
    6.7389   -7.7671    3.9293 N   0  0  0  0  0  0  0  0  0  0  0  0
    6.3997   -6.6388    3.2733 C   0  0  0  0  0  0  0  0  0  0  0  0
    7.1975   -5.8846    2.7434 O   0  0  0  0  0  0  0  0  0  0  0  0
    4.8751   -6.3574    3.3572 C   0  0  2  0  0  0  0  0  0  0  0  0
    4.3514   -7.6383    4.0676 C   0  0  2  0  0  0  0  0  0  0  0  0
    5.6541   -8.3557    4.4580 C   0  0  0  0  0  0  0  0  0  0  0  0
    5.6426   -9.3072    5.2239 O   0  0  0  0  0  0  0  0  0  0  0  0
    3.3830   -8.4530    3.1565 C   0  0  1  0  0  0  0  0  0  0  0  0
    4.1121   -9.2407    2.0206 C   0  0  0  0  0  0  0  0  0  0  0  0
    2.4222   -9.4673    3.8566 C   0  0  1  0  0  0  0  0  0  0  0  0
    2.8301   -9.9392    5.1190 O   0  0  0  0  0  0  0  0  0  0  0  0
    1.1210   -8.6942    3.9648 C   0  0  2  0  0  0  0  0  0  0  0  0
   -0.1770   -9.4864    3.9828 C   0  0  0  0  0  0  0  0  0  0  0  0
   -1.3683   -8.5117    4.0970 C   0  0  0  0  0  0  0  0  0  0  0  0
   -1.3432   -7.4006    3.0276 C   0  0  0  0  0  0  0  0  0  0  0  0
    0.0445   -6.7277    2.8710 C   0  0  0  0  0  0  0  0  0  0  0  0
    1.1214   -7.8339    2.7147 C   0  0  1  0  0  0  0  0  0  0  0  0
    2.5097   -7.4416    2.5600 N   0  0  0  0  0  0  0  0  0  0  0  0
    2.9711   -6.4599    1.7491 C   0  0  0  0  0  0  0  0  0  0  0  0
    2.2501   -5.9777    0.8866 O   0  0  0  0  0  0  0  0  0  0  0  0
    4.2176   -6.0078    2.0600 N   0  0  0  0  0  0  0  0  0  0  0  0
    4.7790   -4.9445    1.2756 C   0  0  0  0  0  0  0  0  0  0  0  0
    4.8897   -5.0664   -0.1336 C   0  0  0  0  0  0  0  0  0  0  0  0
    5.4243   -4.0139   -0.9062 C   0  0  0  0  0  0  0  0  0  0  0  0
    5.8960   -2.8466   -0.2814 C   0  0  0  0  0  0  0  0  0  0  0  0
    5.8153   -2.7154    1.1196 C   0  0  0  0  0  0  0  0  0  0  0  0
    5.2474   -3.7534    1.8903 C   0  0  0  0  0  0  0  0  0  0  0  0
    9.4526   -9.9314    3.9857 H   0  0  0  0  0  0  0  0  0  0  0  0
    8.0481   -9.9234    2.8957 H   0  0  0  0  0  0  0  0  0  0  0  0
    7.8716  -10.3314    4.5727 H   0  0  0  0  0  0  0  0  0  0  0  0
    8.4335   -7.9180    5.1749 H   0  0  0  0  0  0  0  0  0  0  0  0
    8.8378   -7.6283    3.5259 H   0  0  0  0  0  0  0  0  0  0  0  0
    4.7338   -5.5167    4.0354 H   0  0  0  0  0  0  0  0  0  0  0  0
    3.8451   -7.3545    4.9914 H   0  0  0  0  0  0  0  0  0  0  0  0
    4.6589  -10.1058    2.4128 H   0  0  0  0  0  0  0  0  0  0  0  0
    4.8247   -8.6340    1.4519 H   0  0  0  0  0  0  0  0  0  0  0  0
    3.3890   -9.6390    1.2983 H   0  0  0  0  0  0  0  0  0  0  0  0
    2.2512  -10.3332    3.2119 H   0  0  0  0  0  0  0  0  0  0  0  0
    2.7916   -9.2464    5.7633 H   0  0  0  0  0  0  0  0  0  0  0  0
    1.1812   -8.0523    4.8466 H   0  0  0  0  0  0  0  0  0  0  0  0
   -0.2718  -10.0555    3.0555 H   0  0  0  0  0  0  0  0  0  0  0  0
   -0.1430  -10.2028    4.8027 H   0  0  0  0  0  0  0  0  0  0  0  0
   -2.3126   -9.0516    4.0109 H   0  0  0  0  0  0  0  0  0  0  0  0
   -1.3528   -8.0641    5.0899 H   0  0  0  0  0  0  0  0  0  0  0  0
   -1.6348   -7.8325    2.0695 H   0  0  0  0  0  0  0  0  0  0  0  0
   -2.1130   -6.6749    3.2838 H   0  0  0  0  0  0  0  0  0  0  0  0
    0.0280   -6.0827    1.9936 H   0  0  0  0  0  0  0  0  0  0  0  0
    0.2479   -6.0779    3.7268 H   0  0  0  0  0  0  0  0  0  0  0  0
    0.8926   -8.4377    1.8344 H   0  0  0  0  0  0  0  0  0  0  0  0
    4.5600   -5.9631   -0.6301 H   0  0  0  0  0  0  0  0  0  0  0  0
    5.4740   -4.1359   -1.9762 H   0  0  0  0  0  0  0  0  0  0  0  0
    6.3198   -2.0508   -0.8781 H   0  0  0  0  0  0  0  0  0  0  0  0
    6.1811   -1.8294    1.6134 H   0  0  0  0  0  0  0  0  0  0  0  0
    5.1951   -3.6211    2.9592 H   0  0  0  0  0  0  0  0  0  0  0  0
  1  2  1  0
  1 30  1  0
  1 31  1  0
  1 32  1  0
  2 33  1  0
  2 34  1  0
  2  3  1  0
  3  8  1  0
  3  4  1  0
  4  5  2  0
  4  6  1  0
  6 23  1  0
  6 35  1  1
  6  7  1  0
  7 10  1  0
  7 36  1  1
  7  8  1  0
  8  9  2  0
 10 20  1  0
 10 11  1  6
 10 12  1  0
 11 37  1  0
 11 38  1  0
 11 39  1  0
 12 13  1  0
 12 14  1  0
 12 40  1  6
 13 41  1  0
 14 19  1  0
 14 15  1  0
 14 42  1  1
 15 16  1  0
 15 43  1  0
 15 44  1  0
 16 17  1  0
 16 45  1  0
 16 46  1  0
 17 18  1  0
 17 47  1  0
 17 48  1  0
 18 19  1  0
 18 49  1  0
 18 50  1  0
 19 20  1  0
 19 51  1  6
 20 21  1  0
 21 22  2  0
 21 23  1  0
 23 24  1  0
 24 29  1  0
 24 25  2  0
 25 26  1  0
 25 52  1  0
 26 27  2  0
 26 53  1  0
 27 28  1  0
 27 54  1  0
 28 29  2  0
 28 55  1  0
 29 56  1  0
M  END
>  <i_m_ct_stereo_status>  (431) 
1

>  <s_m_source_file>  (431) 
/var/tmp/pbs.5076255.sched01/tmpm28zzdm2/1449lyhn0we.sdf

>  <i_m_source_file_index>  (431) 
48

>  <i_lp_mmshare_version>  (431) 
48012

>  <i_f3d_flags>  (431) 
0

>  <s_epik_input>  (431) 
W2NIXTFbY0hdW2NIXVtjSF1bY0hdYzFOKGMoYzJbQ0BAXTM0W0NIM10pYyhbT0hdKW4oW0NIMl1bQ0gzXSljMltPSF0pQyg9TylONFtDQEhdNVtDQEhdKFtDQEBIXTNbT0hdKVtDSDJdW0NIMl1bQ0gyXVtDSDJdNQ==

>  <s_epik_cmdline>  (431) 
J2VwaWtfcHl0aG9uJywgJy1waHQnLCAnMi4wJywgJy1waCcsICc3LjAnLCAnLXRuJywgJzgnLCAnLW1hJywgJzIwMCcsICctaW1hZScsICc8aW5maWxlLm1hZT4nLCAnLW9tYWUnLCAnPG91dGZpbGUubWFlPic=

>  <r_lp_tautomer_probability>  (431) 
1

>  <r_epik_Ionization_Penalty>  (431) 
2.18536e-05

>  <r_epik_Ionization_Penalty_Charging>  (431) 
0

>  <r_epik_Ionization_Penalty_Neutral>  (431) 
2.18536e-05

>  <r_epik_State_Penalty>  (431) 
-0

>  <r_epik_Charging_Adjusted_Penalty>  (431) 
0

>  <i_epik_Tot_Q>  (431) 
0

>  <i_epik_Tot_abs_Q>  (431) 
0

>  <s_lp_Force_Field>  (431) 
OPLS3e

>  <r_lp_Energy>  (431) 
46.4618

>  <b_lp_Chiralities_Consistent>  (431) 
1

>  <s_lp_Variant>  (431) 
117:0-4

>  <s_i_glide_gridfile>  (431) 
pfpi4k_grid

>  <i_i_glide_lignum>  (431) 
48

>  <i_i_glide_rotatable_bonds>  (431) 
3

>  <r_i_docking_score>  (431) 
-2.0641

>  <r_i_glide_ligand_efficiency>  (431) 
-0.0711758

>  <r_i_glide_ligand_efficiency_sa>  (431) 
-0.218674

>  <r_i_glide_ligand_efficiency_ln>  (431) 
-0.472626

>  <r_i_glide_gscore>  (431) 
-2.0641

>  <r_i_glide_lipo>  (431) 
-0.227732

>  <r_i_glide_hbond>  (431) 
0

>  <r_i_glide_metal>  (431) 
-0

>  <r_i_glide_rewards>  (431) 
-0.759299

>  <r_i_glide_evdw>  (431) 
-24.6876

>  <r_i_glide_ecoul>  (431) 
0.263593

>  <r_i_glide_erotb>  (431) 
0.123908

>  <r_i_glide_esite>  (431) 
-0.00613083

>  <r_i_glide_emodel>  (431) 
-26.4458

>  <r_i_glide_energy>  (431) 
-24.424

>  <r_i_glide_einternal>  (431) 
3.2547

>  <r_i_glide_intrahb_reward>  (431) 
-0

>  <i_i_glide_confnum>  (431) 
1

>  <i_i_glide_posenum>  (431) 
30

>  <r_i_glide_eff_state_penalty>  (431) 
0

>  <ligand_id>  (431) 
117

>  <original_smiles>  (431) 
CCn1c(O)c2c(c1O)C1(C)C(O)C3CCCCC3N1C(=O)N2c1ccccc1

>  <smiles>  (431) 
[H]OC1([H])C2([H])C([H])([H])C([H])([H])C([H])([H])C([H])([H])C2([H])N2C(=O)N(c3c([H])c([H])c([H])c([H])c3[H])C3([H])C(=O)N(C([H])([H])C([H])([H])[H])C(=O)C3([H])C21C([H])([H])[H]

$$$$
