0:0:0
     RDKit          3D

 94101  0  0  1  0  0  0  0  0999 V2000
   -1.7419    3.5368    8.3586 C   0  0  0  0  0  0  0  0  0  0  0  0
   -2.1378    2.7598    7.1011 C   0  0  2  0  0  0  0  0  0  0  0  0
   -2.1839    1.1764    7.2653 C   0  0  0  0  0  0  0  0  0  0  0  0
   -0.9472    0.2524    6.9226 C   0  0  0  0  0  0  0  0  0  0  0  0
   -0.1989    0.6061    5.5689 C   0  0  2  0  0  0  0  0  0  0  0  0
   -1.0596   -0.0978    4.6398 O   0  0  0  0  0  0  0  0  0  0  0  0
    1.4289    0.6920    5.0639 C   0  0  2  0  0  0  0  0  0  0  0  0
    1.4446    0.4129    3.4906 C   0  0  2  0  0  0  0  0  0  0  0  0
    1.4609   -1.0987    3.0605 C   0  0  0  0  0  0  0  0  0  0  0  0
    2.3250   -2.1192    3.8428 C   0  0  1  0  0  0  0  0  0  0  0  0
    3.5133   -2.7448    3.0476 C   0  0  0  0  0  0  0  0  0  0  0  0
    3.0973   -3.4828    1.7809 C   0  0  0  0  0  0  0  0  0  0  0  0
    3.3220   -3.0511    0.5306 C   0  0  0  0  0  0  0  0  0  0  0  0
    3.9924   -1.7402    0.1503 C   0  0  0  0  0  0  0  0  0  0  0  0
    4.2204   -1.8046   -1.3544 C   0  0  0  0  0  0  0  0  0  0  0  0
    3.1894   -2.8182   -1.8711 C   0  0  1  0  0  0  0  0  0  0  0  0
    3.6397   -3.4599   -3.0557 O   0  0  0  0  0  0  0  0  0  0  0  0
    2.9858   -3.8181   -0.7242 C   0  0  0  0  0  0  0  0  0  0  0  0
    2.6284   -1.6684    5.3084 C   0  0  0  0  0  0  0  0  0  0  0  0
    1.4760   -2.1747    6.1885 C   0  0  0  0  0  0  0  0  0  0  0  0
    3.8872   -2.3256    5.9222 C   0  0  0  0  0  0  0  0  0  0  0  0
    2.7174   -0.1131    5.4245 C   0  0  1  0  0  0  0  0  0  0  0  0
    3.9575    0.4470    4.5573 C   0  0  2  0  0  0  0  0  0  0  0  0
    4.9533    1.0782    5.3180 O   0  0  0  0  0  0  0  0  0  0  0  0
    4.7347    2.3498    5.9325 C   0  0  0  0  0  0  0  0  0  0  0  0
    3.9760    3.3428    5.0759 C   0  0  0  0  0  0  0  0  0  0  0  0
    2.6453    3.2214    4.8754 C   0  0  0  0  0  0  0  0  0  0  0  0
    1.9659    2.1120    5.6797 C   0  0  2  0  0  0  0  0  0  0  0  0
    0.9587    2.5009    6.6762 C   0  0  0  0  0  0  0  0  0  0  0  0
    1.3621    1.6292    7.9101 C   0  0  0  0  0  0  0  0  0  0  0  0
    1.2567    3.9250    7.3551 C   0  0  0  0  0  0  0  0  0  0  0  0
   -0.3210    2.1270    5.6183 C   0  0  1  0  0  0  0  0  0  0  0  0
   -0.3421    2.2060    4.2024 O   0  0  0  0  0  0  0  0  0  0  0  0
   -1.4526    3.0941    5.7331 C   0  0  1  0  0  0  0  0  0  0  0  0
   -2.5047    2.9921    4.7800 O   0  0  0  0  0  0  0  0  0  0  0  0
   -0.7056    4.3533    5.5000 O   0  0  0  0  0  0  0  0  0  0  0  0
    0.2994    4.6803    4.3416 C   0  0  0  0  0  0  0  0  0  0  0  0
    1.8025    4.0195    3.7983 C   0  0  1  0  0  0  0  0  0  0  0  0
    2.5889    5.2446    3.2752 C   0  0  0  0  0  0  0  0  0  0  0  0
    1.8338    2.9228    2.6330 C   0  0  0  0  0  0  0  0  0  0  0  0
    2.3848    1.3946    2.8081 C   0  0  1  0  0  0  0  0  0  0  0  0
    3.6948    1.1632    3.3353 O   0  0  0  0  0  0  0  0  0  0  0  0
   -0.9805    3.0403    8.9536 H   0  0  0  0  0  0  0  0  0  0  0  0
   -2.6037    3.6079    9.0262 H   0  0  0  0  0  0  0  0  0  0  0  0
   -1.4437    4.5580    8.1264 H   0  0  0  0  0  0  0  0  0  0  0  0
   -3.1825    3.0688    6.9844 H   0  0  0  0  0  0  0  0  0  0  0  0
   -2.5358    0.9647    8.2776 H   0  0  0  0  0  0  0  0  0  0  0  0
   -2.9504    0.8212    6.5837 H   0  0  0  0  0  0  0  0  0  0  0  0
   -0.3891    0.0549    7.8186 H   0  0  0  0  0  0  0  0  0  0  0  0
   -1.3303   -0.7432    6.7665 H   0  0  0  0  0  0  0  0  0  0  0  0
   -0.8500    0.2069    3.7512 H   0  0  0  0  0  0  0  0  0  0  0  0
    0.5586    0.6553    2.9078 H   0  0  0  0  0  0  0  0  0  0  0  0
    0.4326   -1.4878    2.9889 H   0  0  0  0  0  0  0  0  0  0  0  0
    1.8309   -1.0834    2.0407 H   0  0  0  0  0  0  0  0  0  0  0  0
    1.6790   -2.9913    3.9444 H   0  0  0  0  0  0  0  0  0  0  0  0
    4.2919   -2.0169    2.8291 H   0  0  0  0  0  0  0  0  0  0  0  0
    4.0021   -3.5310    3.6234 H   0  0  0  0  0  0  0  0  0  0  0  0
    2.6213   -4.4423    1.9532 H   0  0  0  0  0  0  0  0  0  0  0  0
    3.3114   -0.9142    0.3479 H   0  0  0  0  0  0  0  0  0  0  0  0
    4.9299   -1.5831    0.6840 H   0  0  0  0  0  0  0  0  0  0  0  0
    4.1039   -0.8205   -1.8137 H   0  0  0  0  0  0  0  0  0  0  0  0
    5.2373   -2.1515   -1.5465 H   0  0  0  0  0  0  0  0  0  0  0  0
    2.2401   -2.3076   -2.0602 H   0  0  0  0  0  0  0  0  0  0  0  0
    3.2950   -4.3369   -3.0753 H   0  0  0  0  0  0  0  0  0  0  0  0
    3.6956   -4.6475   -0.7814 H   0  0  0  0  0  0  0  0  0  0  0  0
    1.9672   -4.2124   -0.7020 H   0  0  0  0  0  0  0  0  0  0  0  0
    1.5363   -1.7374    7.1861 H   0  0  0  0  0  0  0  0  0  0  0  0
    1.5233   -3.2612    6.3012 H   0  0  0  0  0  0  0  0  0  0  0  0
    0.5061   -1.9423    5.7553 H   0  0  0  0  0  0  0  0  0  0  0  0
    4.0387   -1.9885    6.9491 H   0  0  0  0  0  0  0  0  0  0  0  0
    4.8052   -2.1072    5.3783 H   0  0  0  0  0  0  0  0  0  0  0  0
    3.7934   -3.4128    5.9475 H   0  0  0  0  0  0  0  0  0  0  0  0
    3.0108    0.0698    6.4597 H   0  0  0  0  0  0  0  0  0  0  0  0
    4.4977   -0.4020    4.1762 H   0  0  0  0  0  0  0  0  0  0  0  0
    4.2298    2.2022    6.8818 H   0  0  0  0  0  0  0  0  0  0  0  0
    5.7098    2.7834    6.1623 H   0  0  0  0  0  0  0  0  0  0  0  0
    4.5723    4.0638    4.5454 H   0  0  0  0  0  0  0  0  0  0  0  0
    1.4961    2.9575    5.4521 H   0  0  0  0  0  0  0  0  0  0  0  0
    0.6610    1.7070    8.7332 H   0  0  0  0  0  0  0  0  0  0  0  0
    2.3304    1.9357    8.3090 H   0  0  0  0  0  0  0  0  0  0  0  0
    1.5202    0.5804    7.7009 H   0  0  0  0  0  0  0  0  0  0  0  0
    0.7415    4.0450    8.2976 H   0  0  0  0  0  0  0  0  0  0  0  0
    1.1019    4.8329    6.7811 H   0  0  0  0  0  0  0  0  0  0  0  0
    2.3150    3.9766    7.6261 H   0  0  0  0  0  0  0  0  0  0  0  0
   -1.1708    1.7972    3.9577 H   0  0  0  0  0  0  0  0  0  0  0  0
   -2.1023    3.1664    3.9264 H   0  0  0  0  0  0  0  0  0  0  0  0
   -0.3202    4.7830    3.4477 H   0  0  0  0  0  0  0  0  0  0  0  0
    0.5599    5.7089    4.6072 H   0  0  0  0  0  0  0  0  0  0  0  0
    1.9926    5.7404    2.5100 H   0  0  0  0  0  0  0  0  0  0  0  0
    3.5334    4.9624    2.8094 H   0  0  0  0  0  0  0  0  0  0  0  0
    2.8059    5.9524    4.0727 H   0  0  0  0  0  0  0  0  0  0  0  0
    0.8598    2.8754    2.1685 H   0  0  0  0  0  0  0  0  0  0  0  0
    2.4439    3.3636    1.8523 H   0  0  0  0  0  0  0  0  0  0  0  0
    2.4668    1.0625    1.7693 H   0  0  0  0  0  0  0  0  0  0  0  0
  1  2  1  0
  1 43  1  0
  1 44  1  0
  1 45  1  0
  2 34  1  0
  2  3  1  0
  2 46  1  6
  3  4  1  0
  3 47  1  0
  3 48  1  0
  4  5  1  0
  4 49  1  0
  4 50  1  0
  5 32  1  0
  5  6  1  6
  7  5  1  1
  6 51  1  0
  7 22  1  0
  7 28  1  0
  7  8  1  0
  8 41  1  0
  8  9  1  0
  8 52  1  6
  9 10  1  0
  9 53  1  0
  9 54  1  0
 10 11  1  0
 10 19  1  0
 10 55  1  1
 11 12  1  0
 11 56  1  0
 11 57  1  0
 12 13  2  3
 12 58  1  0
 13 18  1  0
 13 14  1  0
 14 15  1  0
 14 59  1  0
 14 60  1  0
 15 16  1  0
 15 61  1  0
 15 62  1  0
 16 17  1  0
 16 18  1  0
 16 63  1  6
 17 64  1  0
 18 65  1  0
 18 66  1  0
 19 20  1  0
 19 21  1  0
 19 22  1  0
 20 67  1  0
 20 68  1  0
 20 69  1  0
 21 70  1  0
 21 71  1  0
 21 72  1  0
 22 23  1  0
 22 73  1  1
 23 42  1  0
 23 24  1  0
 23 74  1  6
 24 25  1  0
 25 26  1  0
 25 75  1  0
 25 76  1  0
 26 27  2  3
 26 77  1  0
 27 38  1  0
 27 28  1  0
 28 29  1  0
 28 78  1  1
 29 30  1  0
 29 31  1  0
 29 32  1  0
 30 79  1  0
 30 80  1  0
 30 81  1  0
 31 82  1  0
 31 83  1  0
 31 84  1  0
 32 33  1  6
 32 34  1  0
 33 85  1  0
 34 35  1  6
 34 36  1  0
 35 86  1  0
 36 37  1  0
 37 38  1  0
 37 87  1  0
 37 88  1  0
 38 39  1  6
 38 40  1  0
 39 89  1  0
 39 90  1  0
 39 91  1  0
 40 41  1  0
 40 92  1  0
 40 93  1  0
 41 42  1  0
 41 94  1  6
M  END
>  <i_m_ct_stereo_status>  (1) 
1

>  <s_m_source_file>  (1) 
/var/tmp/pbs.5076255.sched01/tmp7dv9smms/08akalw19.sdf

>  <i_m_source_file_index>  (1) 
1

>  <i_lp_mmshare_version>  (1) 
48012

>  <i_f3d_flags>  (1) 
0

>  <s_epik_input>  (1) 
W0NIMl0xW0NIMl1bQ0BASF0oW0NIM10pW0NAXShbT0hdKShbQ0BdMihbT0hdKVtDQF0xKFtDQF0zNDUpW09IXSlPW0NIMl1bQ0BAXTYoW0NIM10pQyhcW0NAQEhdNUMyKFtDSDNdKVtDSDNdKT1bQ0hdXFtDSDJdT1tDQEhdN1tDQEBIXTRDKFtDSDNdKShbQ0gzXSlbQ0BASF0oW0NIMl1bQ0BASF0zW0NASF0oTzcpW0NIMl02KVtDSDJdL1tDSF09QzhcW0NIMl1bQ0gyXVtDQEBIXShbT0hdKVtDSDJdOA==

>  <s_epik_cmdline>  (1) 
J2VwaWtfcHl0aG9uJywgJy1waHQnLCAnMi4wJywgJy1waCcsICc3LjAnLCAnLXRuJywgJzgnLCAnLW1hJywgJzIwMCcsICctaW1hZScsICc8aW5maWxlLm1hZT4nLCAnLW9tYWUnLCAnPG91dGZpbGUubWFlPic=

>  <r_lp_tautomer_probability>  (1) 
1

>  <r_epik_Ionization_Penalty>  (1) 
7.37587e-07

>  <r_epik_Ionization_Penalty_Charging>  (1) 
0

>  <r_epik_Ionization_Penalty_Neutral>  (1) 
7.37587e-07

>  <r_epik_State_Penalty>  (1) 
-0

>  <r_epik_Charging_Adjusted_Penalty>  (1) 
0

>  <i_epik_Tot_Q>  (1) 
0

>  <i_epik_Tot_abs_Q>  (1) 
0

>  <s_epik_Chemistry_Notes>  (1) 
This compound contains an acetal/aminal-like group ( X-CH(R)-Y where X, Y are N, S, or O) that may be acid/base labile, releasing an aldehyde.

>  <s_lp_Force_Field>  (1) 
OPLS3e

>  <r_lp_Energy>  (1) 
448.554

>  <b_lp_Chiralities_Consistent>  (1) 
1

>  <s_lp_Variant>  (1) 
0:0-1

>  <s_i_glide_gridfile>  (1) 
pfpi4k_grid

>  <i_i_glide_lignum>  (1) 
1

>  <i_i_glide_rotatable_bonds>  (1) 
6

>  <r_i_docking_score>  (1) 
-2.53963

>  <r_i_glide_ligand_efficiency>  (1) 
-0.0604674

>  <r_i_glide_ligand_efficiency_sa>  (1) 
-0.210186

>  <r_i_glide_ligand_efficiency_ln>  (1) 
-0.536051

>  <r_i_glide_gscore>  (1) 
-2.53963

>  <r_i_glide_lipo>  (1) 
-0.0956037

>  <r_i_glide_hbond>  (1) 
-0.32

>  <r_i_glide_metal>  (1) 
-0

>  <r_i_glide_rewards>  (1) 
-0.0154927

>  <r_i_glide_evdw>  (1) 
-26.3681

>  <r_i_glide_ecoul>  (1) 
-5.39165

>  <r_i_glide_erotb>  (1) 
0.0186197

>  <r_i_glide_esite>  (1) 
0

>  <r_i_glide_emodel>  (1) 
-35.3941

>  <r_i_glide_energy>  (1) 
-31.7598

>  <r_i_glide_einternal>  (1) 
1.35486

>  <r_i_glide_intrahb_reward>  (1) 
-0

>  <i_i_glide_confnum>  (1) 
3

>  <i_i_glide_posenum>  (1) 
33

>  <r_i_glide_eff_state_penalty>  (1) 
0

>  <ligand_id>  (1) 
0

>  <original_smiles>  (1) 
CC1CCC2(O)C34C5CC(CC=C6CCC(O)C6)C(C)(C)C3C3OCC=C6C4C(C)(C)C2(O)C1(O)OCC6(C)CC5O3

>  <smiles>  (1) 
[H]OC1([H])C([H])([H])C(=C([H])C([H])([H])C2([H])C([H])([H])C3([H])C4([H])OC5([H])OC([H])([H])C([H])=C6C7([H])C(C([H])([H])[H])(C([H])([H])[H])C8(O[H])C(O[H])(OC([H])([H])C6(C([H])([H])[H])C4([H])[H])C([H])(C([H])([H])[H])C([H])([H])C([H])([H])C8(O[H])C73C5([H])C2(C([H])([H])[H])C([H])([H])[H])C([H])([H])C1([H])[H]

$$$$
0:0:1
     RDKit          3D

 94101  0  0  1  0  0  0  0  0999 V2000
   -1.9941    4.1834    8.4140 C   0  0  0  0  0  0  0  0  0  0  0  0
   -2.1659    3.3914    7.1182 C   0  0  2  0  0  0  0  0  0  0  0  0
   -2.2595    1.8153    7.2652 C   0  0  0  0  0  0  0  0  0  0  0  0
   -0.9813    0.8804    7.1677 C   0  0  0  0  0  0  0  0  0  0  0  0
    0.0028    1.2404    5.9723 C   0  0  2  0  0  0  0  0  0  0  0  0
   -0.5912    0.4847    4.9072 O   0  0  0  0  0  0  0  0  0  0  0  0
    1.7050    1.3200    5.7574 C   0  0  2  0  0  0  0  0  0  0  0  0
    2.0334    1.0390    4.2226 C   0  0  2  0  0  0  0  0  0  0  0  0
    2.1397   -0.4518    3.7827 C   0  0  0  0  0  0  0  0  0  0  0  0
    2.8468   -1.4793    4.7074 C   0  0  1  0  0  0  0  0  0  0  0  0
    4.1431   -2.1601    4.1738 C   0  0  0  0  0  0  0  0  0  0  0  0
    4.1179   -2.4918    2.6950 C   0  0  0  0  0  0  0  0  0  0  0  0
    3.9232   -3.7144    2.1483 C   0  0  0  0  0  0  0  0  0  0  0  0
    3.7085   -4.9973    2.9019 C   0  0  0  0  0  0  0  0  0  0  0  0
    3.7511   -6.1052    1.8507 C   0  0  0  0  0  0  0  0  0  0  0  0
    3.3869   -5.4318    0.5189 C   0  0  1  0  0  0  0  0  0  0  0  0
    1.9842   -5.4605    0.3192 O   0  0  0  0  0  0  0  0  0  0  0  0
    3.8569   -3.9755    0.6672 C   0  0  0  0  0  0  0  0  0  0  0  0
    2.8459   -1.0534    6.2048 C   0  0  0  0  0  0  0  0  0  0  0  0
    1.5466   -1.5564    6.8802 C   0  0  0  0  0  0  0  0  0  0  0  0
    3.9686   -1.7247    7.0443 C   0  0  0  0  0  0  0  0  0  0  0  0
    2.9134    0.4998    6.3440 C   0  0  1  0  0  0  0  0  0  0  0  0
    4.2999    1.0681    5.7076 C   0  0  2  0  0  0  0  0  0  0  0  0
    5.1437    1.6896    6.6429 O   0  0  0  0  0  0  0  0  0  0  0  0
    4.8314    2.9702    7.1970 C   0  0  0  0  0  0  0  0  0  0  0  0
    4.2352    3.9573    6.1979 C   0  0  0  0  0  0  0  0  0  0  0  0
    2.9803    3.8448    5.7809 C   0  0  0  0  0  0  0  0  0  0  0  0
    2.1246    2.7335    6.4441 C   0  0  2  0  0  0  0  0  0  0  0  0
    0.9569    3.1313    7.2432 C   0  0  0  0  0  0  0  0  0  0  0  0
    1.1318    2.2492    8.5356 C   0  0  0  0  0  0  0  0  0  0  0  0
    1.1316    4.5417    7.9748 C   0  0  0  0  0  0  0  0  0  0  0  0
   -0.1155    2.7620    5.9649 C   0  0  1  0  0  0  0  0  0  0  0  0
    0.1340    2.7920    4.5611 O   0  0  0  0  0  0  0  0  0  0  0  0
   -1.2284    3.7422    5.9177 C   0  0  1  0  0  0  0  0  0  0  0  0
   -2.0601    3.6420    4.7511 O   0  0  0  0  0  0  0  0  0  0  0  0
   -0.4270    4.9732    5.8105 O   0  0  0  0  0  0  0  0  0  0  0  0
    0.7536    5.2947    4.8262 C   0  0  0  0  0  0  0  0  0  0  0  0
    2.3154    4.6281    4.5656 C   0  0  1  0  0  0  0  0  0  0  0  0
    3.1947    5.8610    4.1881 C   0  0  0  0  0  0  0  0  0  0  0  0
    2.5616    3.5431    3.4083 C   0  0  0  0  0  0  0  0  0  0  0  0
    3.0614    2.0245    3.7060 C   0  0  1  0  0  0  0  0  0  0  0  0
    4.2364    1.8036    4.4833 O   0  0  0  0  0  0  0  0  0  0  0  0
   -1.3567    3.6816    9.1342 H   0  0  0  0  0  0  0  0  0  0  0  0
   -2.9645    4.2584    8.9115 H   0  0  0  0  0  0  0  0  0  0  0  0
   -1.6566    5.2026    8.2363 H   0  0  0  0  0  0  0  0  0  0  0  0
   -3.1516    3.7218    6.7945 H   0  0  0  0  0  0  0  0  0  0  0  0
   -2.7997    1.6009    8.1889 H   0  0  0  0  0  0  0  0  0  0  0  0
   -2.9237    1.4814    6.4790 H   0  0  0  0  0  0  0  0  0  0  0  0
   -0.6040    0.7033    8.1592 H   0  0  0  0  0  0  0  0  0  0  0  0
   -1.3350   -0.1189    6.9489 H   0  0  0  0  0  0  0  0  0  0  0  0
   -0.5067    1.0242    4.1347 H   0  0  0  0  0  0  0  0  0  0  0  0
    1.2519    1.2391    3.4911 H   0  0  0  0  0  0  0  0  0  0  0  0
    1.1545   -0.8416    3.5346 H   0  0  0  0  0  0  0  0  0  0  0  0
    2.6453   -0.3982    2.8223 H   0  0  0  0  0  0  0  0  0  0  0  0
    2.1570   -2.3288    4.6582 H   0  0  0  0  0  0  0  0  0  0  0  0
    5.0377   -1.5650    4.3278 H   0  0  0  0  0  0  0  0  0  0  0  0
    4.3000   -3.0706    4.7545 H   0  0  0  0  0  0  0  0  0  0  0  0
    4.2571   -1.6617    2.0238 H   0  0  0  0  0  0  0  0  0  0  0  0
    4.4753   -5.1494    3.6633 H   0  0  0  0  0  0  0  0  0  0  0  0
    2.7313   -4.9630    3.3855 H   0  0  0  0  0  0  0  0  0  0  0  0
    4.7776   -6.4699    1.7828 H   0  0  0  0  0  0  0  0  0  0  0  0
    3.1194   -6.9581    2.1048 H   0  0  0  0  0  0  0  0  0  0  0  0
    3.8765   -5.9296   -0.3185 H   0  0  0  0  0  0  0  0  0  0  0  0
    1.8500   -5.2101   -0.5810 H   0  0  0  0  0  0  0  0  0  0  0  0
    3.2028   -3.2596    0.1583 H   0  0  0  0  0  0  0  0  0  0  0  0
    4.8584   -3.8567    0.2498 H   0  0  0  0  0  0  0  0  0  0  0  0
    1.4122   -1.1135    7.8689 H   0  0  0  0  0  0  0  0  0  0  0  0
    1.5479   -2.6399    7.0173 H   0  0  0  0  0  0  0  0  0  0  0  0
    0.6638   -1.3280    6.2868 H   0  0  0  0  0  0  0  0  0  0  0  0
    3.9430   -1.3892    8.0812 H   0  0  0  0  0  0  0  0  0  0  0  0
    4.9714   -1.5039    6.6812 H   0  0  0  0  0  0  0  0  0  0  0  0
    3.8823   -2.8118    7.0559 H   0  0  0  0  0  0  0  0  0  0  0  0
    3.0273    0.6752    7.4121 H   0  0  0  0  0  0  0  0  0  0  0  0
    4.9154    0.2266    5.4262 H   0  0  0  0  0  0  0  0  0  0  0  0
    4.1615    2.8351    8.0415 H   0  0  0  0  0  0  0  0  0  0  0  0
    5.7475    3.3947    7.6064 H   0  0  0  0  0  0  0  0  0  0  0  0
    4.9470    4.6431    5.7390 H   0  0  0  0  0  0  0  0  0  0  0  0
    1.6920    3.5943    6.1349 H   0  0  0  0  0  0  0  0  0  0  0  0
    0.3004    2.3326    9.2304 H   0  0  0  0  0  0  0  0  0  0  0  0
    2.0067    2.5468    9.1164 H   0  0  0  0  0  0  0  0  0  0  0  0
    1.3177    1.1939    8.3812 H   0  0  0  0  0  0  0  0  0  0  0  0
    0.4602    4.6749    8.8157 H   0  0  0  0  0  0  0  0  0  0  0  0
    1.0833    5.4506    7.3895 H   0  0  0  0  0  0  0  0  0  0  0  0
    2.1167    4.6024    8.4390 H   0  0  0  0  0  0  0  0  0  0  0  0
    1.0329    2.5532    4.4543 H   0  0  0  0  0  0  0  0  0  0  0  0
   -1.4444    3.3391    4.0966 H   0  0  0  0  0  0  0  0  0  0  0  0
    0.3054    5.4201    3.8391 H   0  0  0  0  0  0  0  0  0  0  0  0
    0.9617    6.3228    5.1289 H   0  0  0  0  0  0  0  0  0  0  0  0
    2.7695    6.3882    3.3320 H   0  0  0  0  0  0  0  0  0  0  0  0
    4.2082    5.5894    3.9019 H   0  0  0  0  0  0  0  0  0  0  0  0
    3.2756    6.5740    5.0074 H   0  0  0  0  0  0  0  0  0  0  0  0
    1.6937    3.5247    2.7537 H   0  0  0  0  0  0  0  0  0  0  0  0
    3.3333    3.9456    2.7545 H   0  0  0  0  0  0  0  0  0  0  0  0
    3.3471    1.6699    2.7140 H   0  0  0  0  0  0  0  0  0  0  0  0
  1  2  1  0
  1 43  1  0
  1 44  1  0
  1 45  1  0
  2 34  1  0
  2  3  1  0
  2 46  1  6
  3  4  1  0
  3 47  1  0
  3 48  1  0
  4  5  1  0
  4 49  1  0
  4 50  1  0
  5 32  1  0
  5  6  1  6
  7  5  1  1
  6 51  1  0
  7 22  1  0
  7 28  1  0
  7  8  1  0
  8 41  1  0
  8  9  1  0
  8 52  1  6
  9 10  1  0
  9 53  1  0
  9 54  1  0
 10 11  1  0
 10 19  1  0
 10 55  1  1
 11 12  1  0
 11 56  1  0
 11 57  1  0
 12 13  2  3
 12 58  1  0
 13 18  1  0
 13 14  1  0
 14 15  1  0
 14 59  1  0
 14 60  1  0
 15 16  1  0
 15 61  1  0
 15 62  1  0
 16 17  1  0
 16 18  1  0
 16 63  1  6
 17 64  1  0
 18 65  1  0
 18 66  1  0
 19 20  1  0
 19 21  1  0
 19 22  1  0
 20 67  1  0
 20 68  1  0
 20 69  1  0
 21 70  1  0
 21 71  1  0
 21 72  1  0
 22 23  1  0
 22 73  1  1
 23 42  1  0
 23 24  1  0
 23 74  1  6
 24 25  1  0
 25 26  1  0
 25 75  1  0
 25 76  1  0
 26 27  2  3
 26 77  1  0
 27 38  1  0
 27 28  1  0
 28 29  1  0
 28 78  1  1
 29 30  1  0
 29 31  1  0
 29 32  1  0
 30 79  1  0
 30 80  1  0
 30 81  1  0
 31 82  1  0
 31 83  1  0
 31 84  1  0
 32 33  1  6
 32 34  1  0
 33 85  1  0
 34 35  1  6
 34 36  1  0
 35 86  1  0
 36 37  1  0
 37 38  1  0
 37 87  1  0
 37 88  1  0
 38 39  1  6
 38 40  1  0
 39 89  1  0
 39 90  1  0
 39 91  1  0
 40 41  1  0
 40 92  1  0
 40 93  1  0
 41 42  1  0
 41 94  1  6
M  END
>  <i_m_ct_stereo_status>  (2) 
1

>  <s_m_source_file>  (2) 
/var/tmp/pbs.5076255.sched01/tmp7dv9smms/08akalw19.sdf

>  <i_m_source_file_index>  (2) 
1

>  <i_lp_mmshare_version>  (2) 
48012

>  <i_f3d_flags>  (2) 
0

>  <s_epik_input>  (2) 
W0NIMl0xW0NIMl1bQ0BASF0oW0NIM10pW0NAXShbT0hdKShbQ0BdMihbT0hdKVtDQF0xKFtDQF0zNDUpW09IXSlPW0NIMl1bQ0BAXTYoW0NIM10pQyhcW0NAQEhdNUMyKFtDSDNdKVtDSDNdKT1bQ0hdXFtDSDJdT1tDQEhdN1tDQEBIXTRDKFtDSDNdKShbQ0gzXSlbQ0BASF0oW0NIMl1bQ0BASF0zW0NASF0oTzcpW0NIMl02KVtDSDJdL1tDSF09QzhcW0NIMl1bQ0gyXVtDQEBIXShbT0hdKVtDSDJdOA==

>  <s_epik_cmdline>  (2) 
J2VwaWtfcHl0aG9uJywgJy1waHQnLCAnMi4wJywgJy1waCcsICc3LjAnLCAnLXRuJywgJzgnLCAnLW1hJywgJzIwMCcsICctaW1hZScsICc8aW5maWxlLm1hZT4nLCAnLW9tYWUnLCAnPG91dGZpbGUubWFlPic=

>  <r_lp_tautomer_probability>  (2) 
1

>  <r_epik_Ionization_Penalty>  (2) 
7.37587e-07

>  <r_epik_Ionization_Penalty_Charging>  (2) 
0

>  <r_epik_Ionization_Penalty_Neutral>  (2) 
7.37587e-07

>  <r_epik_State_Penalty>  (2) 
-0

>  <r_epik_Charging_Adjusted_Penalty>  (2) 
0

>  <i_epik_Tot_Q>  (2) 
0

>  <i_epik_Tot_abs_Q>  (2) 
0

>  <s_epik_Chemistry_Notes>  (2) 
This compound contains an acetal/aminal-like group ( X-CH(R)-Y where X, Y are N, S, or O) that may be acid/base labile, releasing an aldehyde.

>  <s_lp_Force_Field>  (2) 
OPLS3e

>  <r_lp_Energy>  (2) 
448.554

>  <b_lp_Chiralities_Consistent>  (2) 
1

>  <s_lp_Variant>  (2) 
0:0-1

>  <s_i_glide_gridfile>  (2) 
pfpi4k_grid

>  <i_i_glide_lignum>  (2) 
1

>  <i_i_glide_rotatable_bonds>  (2) 
6

>  <r_i_docking_score>  (2) 
-2.41709

>  <r_i_glide_ligand_efficiency>  (2) 
-0.0575498

>  <r_i_glide_ligand_efficiency_sa>  (2) 
-0.200045

>  <r_i_glide_ligand_efficiency_ln>  (2) 
-0.510185

>  <r_i_glide_gscore>  (2) 
-2.41709

>  <r_i_glide_lipo>  (2) 
-0.135488

>  <r_i_glide_hbond>  (2) 
-0.049484

>  <r_i_glide_metal>  (2) 
-0

>  <r_i_glide_rewards>  (2) 
-0.505119

>  <r_i_glide_evdw>  (2) 
-21.631

>  <r_i_glide_ecoul>  (2) 
-4.39257

>  <r_i_glide_erotb>  (2) 
0.0186197

>  <r_i_glide_esite>  (2) 
-0.00518399

>  <r_i_glide_emodel>  (2) 
-33.2738

>  <r_i_glide_energy>  (2) 
-26.0235

>  <r_i_glide_einternal>  (2) 
2.45072

>  <r_i_glide_intrahb_reward>  (2) 
-0.5

>  <i_i_glide_confnum>  (2) 
4

>  <i_i_glide_posenum>  (2) 
29

>  <r_i_glide_eff_state_penalty>  (2) 
0

>  <ligand_id>  (2) 
0

>  <original_smiles>  (2) 
CC1CCC2(O)C34C5CC(CC=C6CCC(O)C6)C(C)(C)C3C3OCC=C6C4C(C)(C)C2(O)C1(O)OCC6(C)CC5O3

>  <smiles>  (2) 
[H]OC1([H])C([H])([H])C(=C([H])C([H])([H])C2([H])C([H])([H])C3([H])C4([H])OC5([H])OC([H])([H])C([H])=C6C7([H])C(C([H])([H])[H])(C([H])([H])[H])C8(O[H])C(O[H])(OC([H])([H])C6(C([H])([H])[H])C4([H])[H])C([H])(C([H])([H])[H])C([H])([H])C([H])([H])C8(O[H])C73C5([H])C2(C([H])([H])[H])C([H])([H])[H])C([H])([H])C1([H])[H]

$$$$
0:0:2
     RDKit          3D

 94101  0  0  1  0  0  0  0  0999 V2000
   -1.7929    4.0322    8.1368 C   0  0  0  0  0  0  0  0  0  0  0  0
   -2.1855    3.1768    6.9431 C   0  0  2  0  0  0  0  0  0  0  0  0
   -2.3018    1.6148    7.1964 C   0  0  0  0  0  0  0  0  0  0  0  0
   -1.0949    0.6210    6.9541 C   0  0  0  0  0  0  0  0  0  0  0  0
   -0.3111    0.8759    5.6082 C   0  0  2  0  0  0  0  0  0  0  0  0
   -1.0950    0.1150    4.6765 O   0  0  0  0  0  0  0  0  0  0  0  0
    1.3476    0.8282    5.1514 C   0  0  2  0  0  0  0  0  0  0  0  0
    1.4536    0.4425    3.6104 C   0  0  2  0  0  0  0  0  0  0  0  0
    1.4437   -1.0861    3.2550 C   0  0  0  0  0  0  0  0  0  0  0  0
    2.2058   -2.0925    4.1529 C   0  0  1  0  0  0  0  0  0  0  0  0
    3.3743   -2.8519    3.4660 C   0  0  0  0  0  0  0  0  0  0  0  0
    2.9535   -3.6290    2.2349 C   0  0  0  0  0  0  0  0  0  0  0  0
    2.4643   -4.8916    2.2353 C   0  0  0  0  0  0  0  0  0  0  0  0
    2.1937   -5.7456    3.4521 C   0  0  0  0  0  0  0  0  0  0  0  0
    1.8132   -7.1330    2.9255 C   0  0  0  0  0  0  0  0  0  0  0  0
    1.3048   -6.9080    1.4956 C   0  0  1  0  0  0  0  0  0  0  0  0
   -0.0917   -6.6486    1.5170 O   0  0  0  0  0  0  0  0  0  0  0  0
    2.0599   -5.6603    0.9992 C   0  0  0  0  0  0  0  0  0  0  0  0
    2.4484   -1.5630    5.5949 C   0  0  0  0  0  0  0  0  0  0  0  0
    1.2397   -1.9573    6.4822 C   0  0  0  0  0  0  0  0  0  0  0  0
    3.6477   -2.2325    6.3185 C   0  0  0  0  0  0  0  0  0  0  0  0
    2.5995   -0.0115    5.6169 C   0  0  1  0  0  0  0  0  0  0  0  0
    3.9097    0.4402    4.7571 C   0  0  2  0  0  0  0  0  0  0  0  0
    4.9060    1.0781    5.5251 O   0  0  0  0  0  0  0  0  0  0  0  0
    4.7130    2.3944    6.0538 C   0  0  0  0  0  0  0  0  0  0  0  0
    4.0175    3.3704    5.1280 C   0  0  0  0  0  0  0  0  0  0  0  0
    2.7083    3.2709    4.8612 C   0  0  0  0  0  0  0  0  0  0  0  0
    1.9259    2.2510    5.6934 C   0  0  2  0  0  0  0  0  0  0  0  0
    0.9111    2.7612    6.6280 C   0  0  0  0  0  0  0  0  0  0  0  0
    1.2345    1.9475    7.9393 C   0  0  0  0  0  0  0  0  0  0  0  0
    1.2476    4.2023    7.2364 C   0  0  0  0  0  0  0  0  0  0  0  0
   -0.3423    2.3934    5.5474 C   0  0  1  0  0  0  0  0  0  0  0  0
   -0.2935    2.3467    4.1336 O   0  0  0  0  0  0  0  0  0  0  0  0
   -1.4193    3.4075    5.5938 C   0  0  1  0  0  0  0  0  0  0  0  0
   -2.4159    3.2944    4.5734 O   0  0  0  0  0  0  0  0  0  0  0  0
   -0.5836    4.5950    5.2850 O   0  0  0  0  0  0  0  0  0  0  0  0
    0.4588    4.8174    4.1373 C   0  0  0  0  0  0  0  0  0  0  0  0
    1.9319    4.0376    3.7074 C   0  0  1  0  0  0  0  0  0  0  0  0
    2.8021    5.1874    3.1215 C   0  0  0  0  0  0  0  0  0  0  0  0
    1.9535    2.8732    2.6066 C   0  0  0  0  0  0  0  0  0  0  0  0
    2.4378    1.3533    2.9032 C   0  0  1  0  0  0  0  0  0  0  0  0
    3.7042    1.0960    3.5069 O   0  0  0  0  0  0  0  0  0  0  0  0
   -1.0812    3.5380    8.7858 H   0  0  0  0  0  0  0  0  0  0  0  0
   -2.6743    4.1827    8.7597 H   0  0  0  0  0  0  0  0  0  0  0  0
   -1.4386    5.0237    7.8497 H   0  0  0  0  0  0  0  0  0  0  0  0
   -3.1969    3.5351    6.7315 H   0  0  0  0  0  0  0  0  0  0  0  0
   -2.7088    1.4802    8.1934 H   0  0  0  0  0  0  0  0  0  0  0  0
   -3.0655    1.2682    6.5276 H   0  0  0  0  0  0  0  0  0  0  0  0
   -0.5898    0.4535    7.8944 H   0  0  0  0  0  0  0  0  0  0  0  0
   -1.5114   -0.3629    6.8076 H   0  0  0  0  0  0  0  0  0  0  0  0
   -1.0603    0.6468    3.8960 H   0  0  0  0  0  0  0  0  0  0  0  0
    0.5766    0.6637    3.0087 H   0  0  0  0  0  0  0  0  0  0  0  0
    0.4198   -1.4254    3.1638 H   0  0  0  0  0  0  0  0  0  0  0  0
    1.8494   -1.1725    2.2441 H   0  0  0  0  0  0  0  0  0  0  0  0
    1.4726   -2.8944    4.2813 H   0  0  0  0  0  0  0  0  0  0  0  0
    4.1824   -2.1853    3.1875 H   0  0  0  0  0  0  0  0  0  0  0  0
    3.8056   -3.5838    4.1440 H   0  0  0  0  0  0  0  0  0  0  0  0
    3.0697   -3.1152    1.2942 H   0  0  0  0  0  0  0  0  0  0  0  0
    3.0552   -5.8017    4.1183 H   0  0  0  0  0  0  0  0  0  0  0  0
    1.3578   -5.3212    4.0087 H   0  0  0  0  0  0  0  0  0  0  0  0
    2.7156   -7.7457    2.8820 H   0  0  0  0  0  0  0  0  0  0  0  0
    1.1047   -7.6584    3.5699 H   0  0  0  0  0  0  0  0  0  0  0  0
    1.5012   -7.7861    0.8771 H   0  0  0  0  0  0  0  0  0  0  0  0
   -0.5075   -7.4771    1.6978 H   0  0  0  0  0  0  0  0  0  0  0  0
    1.4728   -5.0586    0.3026 H   0  0  0  0  0  0  0  0  0  0  0  0
    2.9648   -5.9564    0.4623 H   0  0  0  0  0  0  0  0  0  0  0  0
    1.2668   -1.4532    7.4531 H   0  0  0  0  0  0  0  0  0  0  0  0
    1.2145   -3.0313    6.6851 H   0  0  0  0  0  0  0  0  0  0  0  0
    0.2899   -1.7197    6.0060 H   0  0  0  0  0  0  0  0  0  0  0  0
    3.7933   -1.8335    7.3237 H   0  0  0  0  0  0  0  0  0  0  0  0
    4.5933   -2.0883    5.7957 H   0  0  0  0  0  0  0  0  0  0  0  0
    3.5190   -3.3123    6.4191 H   0  0  0  0  0  0  0  0  0  0  0  0
    2.8771    0.2214    6.6446 H   0  0  0  0  0  0  0  0  0  0  0  0
    4.4345   -0.4591    4.4450 H   0  0  0  0  0  0  0  0  0  0  0  0
    4.1831    2.3319    6.9986 H   0  0  0  0  0  0  0  0  0  0  0  0
    5.6989    2.7988    6.2839 H   0  0  0  0  0  0  0  0  0  0  0  0
    4.6289    4.0671    4.6032 H   0  0  0  0  0  0  0  0  0  0  0  0
    1.4966    3.1202    5.4025 H   0  0  0  0  0  0  0  0  0  0  0  0
    0.5134    2.1105    8.7395 H   0  0  0  0  0  0  0  0  0  0  0  0
    2.1999    2.2330    8.3680 H   0  0  0  0  0  0  0  0  0  0  0  0
    1.3510    0.8739    7.8235 H   0  0  0  0  0  0  0  0  0  0  0  0
    0.7125    4.4198    8.1541 H   0  0  0  0  0  0  0  0  0  0  0  0
    1.1508    5.0739    6.6060 H   0  0  0  0  0  0  0  0  0  0  0  0
    2.2909    4.2409    7.5476 H   0  0  0  0  0  0  0  0  0  0  0  0
   -0.0218    3.2036    3.8670 H   0  0  0  0  0  0  0  0  0  0  0  0
   -1.9719    2.9218    3.8198 H   0  0  0  0  0  0  0  0  0  0  0  0
   -0.1180    4.9094    3.2136 H   0  0  0  0  0  0  0  0  0  0  0  0
    0.7517    5.8530    4.3346 H   0  0  0  0  0  0  0  0  0  0  0  0
    2.2764    5.6858    2.3037 H   0  0  0  0  0  0  0  0  0  0  0  0
    3.7545    4.8525    2.6990 H   0  0  0  0  0  0  0  0  0  0  0  0
    3.0345    5.9548    3.8609 H   0  0  0  0  0  0  0  0  0  0  0  0
    0.9938    2.8364    2.1073 H   0  0  0  0  0  0  0  0  0  0  0  0
    2.5978    3.2201    1.8115 H   0  0  0  0  0  0  0  0  0  0  0  0
    2.5447    0.9360    1.9012 H   0  0  0  0  0  0  0  0  0  0  0  0
  1  2  1  0
  1 43  1  0
  1 44  1  0
  1 45  1  0
  2 34  1  0
  2  3  1  0
  2 46  1  6
  3  4  1  0
  3 47  1  0
  3 48  1  0
  4  5  1  0
  4 49  1  0
  4 50  1  0
  5 32  1  0
  5  6  1  6
  7  5  1  1
  6 51  1  0
  7 22  1  0
  7 28  1  0
  7  8  1  0
  8 41  1  0
  8  9  1  0
  8 52  1  6
  9 10  1  0
  9 53  1  0
  9 54  1  0
 10 11  1  0
 10 19  1  0
 10 55  1  1
 11 12  1  0
 11 56  1  0
 11 57  1  0
 12 13  2  3
 12 58  1  0
 13 18  1  0
 13 14  1  0
 14 15  1  0
 14 59  1  0
 14 60  1  0
 15 16  1  0
 15 61  1  0
 15 62  1  0
 16 17  1  0
 16 18  1  0
 16 63  1  6
 17 64  1  0
 18 65  1  0
 18 66  1  0
 19 20  1  0
 19 21  1  0
 19 22  1  0
 20 67  1  0
 20 68  1  0
 20 69  1  0
 21 70  1  0
 21 71  1  0
 21 72  1  0
 22 23  1  0
 22 73  1  1
 23 42  1  0
 23 24  1  0
 23 74  1  6
 24 25  1  0
 25 26  1  0
 25 75  1  0
 25 76  1  0
 26 27  2  3
 26 77  1  0
 27 38  1  0
 27 28  1  0
 28 29  1  0
 28 78  1  1
 29 30  1  0
 29 31  1  0
 29 32  1  0
 30 79  1  0
 30 80  1  0
 30 81  1  0
 31 82  1  0
 31 83  1  0
 31 84  1  0
 32 33  1  6
 32 34  1  0
 33 85  1  0
 34 35  1  6
 34 36  1  0
 35 86  1  0
 36 37  1  0
 37 38  1  0
 37 87  1  0
 37 88  1  0
 38 39  1  6
 38 40  1  0
 39 89  1  0
 39 90  1  0
 39 91  1  0
 40 41  1  0
 40 92  1  0
 40 93  1  0
 41 42  1  0
 41 94  1  6
M  END
>  <i_m_ct_stereo_status>  (3) 
1

>  <s_m_source_file>  (3) 
/var/tmp/pbs.5076255.sched01/tmp7dv9smms/08akalw19.sdf

>  <i_m_source_file_index>  (3) 
1

>  <i_lp_mmshare_version>  (3) 
48012

>  <i_f3d_flags>  (3) 
0

>  <s_epik_input>  (3) 
W0NIMl0xW0NIMl1bQ0BASF0oW0NIM10pW0NAXShbT0hdKShbQ0BdMihbT0hdKVtDQF0xKFtDQF0zNDUpW09IXSlPW0NIMl1bQ0BAXTYoW0NIM10pQyhcW0NAQEhdNUMyKFtDSDNdKVtDSDNdKT1bQ0hdXFtDSDJdT1tDQEhdN1tDQEBIXTRDKFtDSDNdKShbQ0gzXSlbQ0BASF0oW0NIMl1bQ0BASF0zW0NASF0oTzcpW0NIMl02KVtDSDJdL1tDSF09QzhcW0NIMl1bQ0gyXVtDQEBIXShbT0hdKVtDSDJdOA==

>  <s_epik_cmdline>  (3) 
J2VwaWtfcHl0aG9uJywgJy1waHQnLCAnMi4wJywgJy1waCcsICc3LjAnLCAnLXRuJywgJzgnLCAnLW1hJywgJzIwMCcsICctaW1hZScsICc8aW5maWxlLm1hZT4nLCAnLW9tYWUnLCAnPG91dGZpbGUubWFlPic=

>  <r_lp_tautomer_probability>  (3) 
1

>  <r_epik_Ionization_Penalty>  (3) 
7.37587e-07

>  <r_epik_Ionization_Penalty_Charging>  (3) 
0

>  <r_epik_Ionization_Penalty_Neutral>  (3) 
7.37587e-07

>  <r_epik_State_Penalty>  (3) 
-0

>  <r_epik_Charging_Adjusted_Penalty>  (3) 
0

>  <i_epik_Tot_Q>  (3) 
0

>  <i_epik_Tot_abs_Q>  (3) 
0

>  <s_epik_Chemistry_Notes>  (3) 
This compound contains an acetal/aminal-like group ( X-CH(R)-Y where X, Y are N, S, or O) that may be acid/base labile, releasing an aldehyde.

>  <s_lp_Force_Field>  (3) 
OPLS3e

>  <r_lp_Energy>  (3) 
448.554

>  <b_lp_Chiralities_Consistent>  (3) 
1

>  <s_lp_Variant>  (3) 
0:0-1

>  <s_i_glide_gridfile>  (3) 
pfpi4k_grid

>  <i_i_glide_lignum>  (3) 
1

>  <i_i_glide_rotatable_bonds>  (3) 
6

>  <r_i_docking_score>  (3) 
-2.34099

>  <r_i_glide_ligand_efficiency>  (3) 
-0.0557379

>  <r_i_glide_ligand_efficiency_sa>  (3) 
-0.193746

>  <r_i_glide_ligand_efficiency_ln>  (3) 
-0.494123

>  <r_i_glide_gscore>  (3) 
-2.34099

>  <r_i_glide_lipo>  (3) 
-0.117083

>  <r_i_glide_hbond>  (3) 
-0.216638

>  <r_i_glide_metal>  (3) 
-0

>  <r_i_glide_rewards>  (3) 
-0.00484177

>  <r_i_glide_evdw>  (3) 
-24.8394

>  <r_i_glide_ecoul>  (3) 
-5.14875

>  <r_i_glide_erotb>  (3) 
0.0186197

>  <r_i_glide_esite>  (3) 
-0.00676404

>  <r_i_glide_emodel>  (3) 
-32.8009

>  <r_i_glide_energy>  (3) 
-29.9882

>  <r_i_glide_einternal>  (3) 
2.40865

>  <r_i_glide_intrahb_reward>  (3) 
-0

>  <i_i_glide_confnum>  (3) 
4

>  <i_i_glide_posenum>  (3) 
1

>  <r_i_glide_eff_state_penalty>  (3) 
0

>  <ligand_id>  (3) 
0

>  <original_smiles>  (3) 
CC1CCC2(O)C34C5CC(CC=C6CCC(O)C6)C(C)(C)C3C3OCC=C6C4C(C)(C)C2(O)C1(O)OCC6(C)CC5O3

>  <smiles>  (3) 
[H]OC1([H])C([H])([H])C(=C([H])C([H])([H])C2([H])C([H])([H])C3([H])C4([H])OC5([H])OC([H])([H])C([H])=C6C7([H])C(C([H])([H])[H])(C([H])([H])[H])C8(O[H])C(O[H])(OC([H])([H])C6(C([H])([H])[H])C4([H])[H])C([H])(C([H])([H])[H])C([H])([H])C([H])([H])C8(O[H])C73C5([H])C2(C([H])([H])[H])C([H])([H])[H])C([H])([H])C1([H])[H]

$$$$
0:1:0
     RDKit          3D

 94101  0  0  1  0  0  0  0  0999 V2000
   -2.3163    2.1308    8.3049 C   0  0  0  0  0  0  0  0  0  0  0  0
   -2.3694    1.9734    6.7848 C   0  0  2  0  0  0  0  0  0  0  0  0
   -2.1279    0.5173    6.1631 C   0  0  0  0  0  0  0  0  0  0  0  0
   -0.6980   -0.0229    5.8057 C   0  0  0  0  0  0  0  0  0  0  0  0
    0.1306    1.0288    4.9492 C   0  0  2  0  0  0  0  0  0  0  0  0
   -0.3497    0.7025    3.6176 O   0  0  0  0  0  0  0  0  0  0  0  0
    1.7744    1.5101    4.9481 C   0  0  2  0  0  0  0  0  0  0  0  0
    2.1308    2.0198    3.4825 C   0  0  2  0  0  0  0  0  0  0  0  0
    2.5204    0.9214    2.4318 C   0  0  0  0  0  0  0  0  0  0  0  0
    3.4248   -0.2682    2.8495 C   0  0  1  0  0  0  0  0  0  0  0  0
    4.8162   -0.3458    2.1520 C   0  0  0  0  0  0  0  0  0  0  0  0
    4.7581   -0.4524    0.6267 C   0  0  0  0  0  0  0  0  0  0  0  0
    5.3973   -1.3671   -0.1230 C   0  0  0  0  0  0  0  0  0  0  0  0
    5.3147   -1.4533   -1.6293 C   0  0  0  0  0  0  0  0  0  0  0  0
    6.0198   -2.7562   -2.0255 C   0  0  0  0  0  0  0  0  0  0  0  0
    6.9791   -3.0762   -0.8657 C   0  0  1  0  0  0  0  0  0  0  0  0
    8.2105   -2.4158   -1.1238 O   0  0  0  0  0  0  0  0  0  0  0  0
    6.3108   -2.4664    0.3714 C   0  0  0  0  0  0  0  0  0  0  0  0
    3.3668   -0.5642    4.3735 C   0  0  0  0  0  0  0  0  0  0  0  0
    2.2082   -1.5508    4.6333 C   0  0  0  0  0  0  0  0  0  0  0  0
    4.6075   -1.3315    4.9109 C   0  0  0  0  0  0  0  0  0  0  0  0
    3.1135    0.7325    5.2077 C   0  0  1  0  0  0  0  0  0  0  0  0
    4.3430    1.7729    5.0116 C   0  0  2  0  0  0  0  0  0  0  0  0
    5.0655    1.9861    6.1921 O   0  0  0  0  0  0  0  0  0  0  0  0
    4.5300    2.8175    7.2384 C   0  0  0  0  0  0  0  0  0  0  0  0
    3.7411    4.0539    6.8083 C   0  0  0  0  0  0  0  0  0  0  0  0
    2.4931    3.9262    6.2678 C   0  0  0  0  0  0  0  0  0  0  0  0
    1.9174    2.4969    6.2497 C   0  0  2  0  0  0  0  0  0  0  0  0
    0.7012    2.2555    7.0332 C   0  0  0  0  0  0  0  0  0  0  0  0
    1.0738    0.9303    7.7962 C   0  0  0  0  0  0  0  0  0  0  0  0
    0.6252    3.1792    8.3342 C   0  0  0  0  0  0  0  0  0  0  0  0
   -0.2797    2.3406    5.6360 C   0  0  1  0  0  0  0  0  0  0  0  0
   -0.0975    3.0509    4.4327 O   0  0  0  0  0  0  0  0  0  0  0  0
   -1.5725    3.0056    5.9572 C   0  0  1  0  0  0  0  0  0  0  0  0
   -2.3722    3.2809    4.8106 O   0  0  0  0  0  0  0  0  0  0  0  0
   -1.0249    4.2703    6.4899 O   0  0  0  0  0  0  0  0  0  0  0  0
    0.0531    5.2101    5.8658 C   0  0  0  0  0  0  0  0  0  0  0  0
    1.7105    5.0385    5.4593 C   0  0  1  0  0  0  0  0  0  0  0  0
    2.3346    6.4351    5.7357 C   0  0  0  0  0  0  0  0  0  0  0  0
    2.1290    4.6624    3.9450 C   0  0  0  0  0  0  0  0  0  0  0  0
    2.9348    3.3051    3.5806 C   0  0  1  0  0  0  0  0  0  0  0  0
    4.0447    3.0227    4.4236 O   0  0  0  0  0  0  0  0  0  0  0  0
   -1.6127    1.4559    8.7892 H   0  0  0  0  0  0  0  0  0  0  0  0
   -3.2736    1.8840    8.7511 H   0  0  0  0  0  0  0  0  0  0  0  0
   -2.1697    3.1647    8.6218 H   0  0  0  0  0  0  0  0  0  0  0  0
   -3.4058    2.2286    6.5869 H   0  0  0  0  0  0  0  0  0  0  0  0
   -2.7138   -0.1716    6.7536 H   0  0  0  0  0  0  0  0  0  0  0  0
   -2.5285    0.4051    5.1623 H   0  0  0  0  0  0  0  0  0  0  0  0
   -0.2794   -0.5864    6.6162 H   0  0  0  0  0  0  0  0  0  0  0  0
   -0.8868   -0.8571    5.1378 H   0  0  0  0  0  0  0  0  0  0  0  0
   -0.1953    1.3418    2.9467 H   0  0  0  0  0  0  0  0  0  0  0  0
    1.3206    2.4089    2.8536 H   0  0  0  0  0  0  0  0  0  0  0  0
    1.6487    0.5368    1.9148 H   0  0  0  0  0  0  0  0  0  0  0  0
    3.0818    1.4648    1.6726 H   0  0  0  0  0  0  0  0  0  0  0  0
    2.9285   -1.1276    2.3801 H   0  0  0  0  0  0  0  0  0  0  0  0
    5.4710    0.4737    2.4334 H   0  0  0  0  0  0  0  0  0  0  0  0
    5.3231   -1.2480    2.4815 H   0  0  0  0  0  0  0  0  0  0  0  0
    4.1629    0.2858    0.1153 H   0  0  0  0  0  0  0  0  0  0  0  0
    4.2707   -1.4368   -1.9650 H   0  0  0  0  0  0  0  0  0  0  0  0
    5.8095   -0.5825   -2.0498 H   0  0  0  0  0  0  0  0  0  0  0  0
    5.2775   -3.5533   -2.0961 H   0  0  0  0  0  0  0  0  0  0  0  0
    6.5185   -2.7045   -2.9933 H   0  0  0  0  0  0  0  0  0  0  0  0
    7.1272   -4.1494   -0.7188 H   0  0  0  0  0  0  0  0  0  0  0  0
    8.7225   -2.8838   -1.7719 H   0  0  0  0  0  0  0  0  0  0  0  0
    7.0384   -2.0942    1.0956 H   0  0  0  0  0  0  0  0  0  0  0  0
    5.6935   -3.2144    0.8735 H   0  0  0  0  0  0  0  0  0  0  0  0
    2.0072   -1.6459    5.7004 H   0  0  0  0  0  0  0  0  0  0  0  0
    2.4351   -2.5496    4.2558 H   0  0  0  0  0  0  0  0  0  0  0  0
    1.2920   -1.2366    4.1358 H   0  0  0  0  0  0  0  0  0  0  0  0
    4.5315   -1.5179    5.9804 H   0  0  0  0  0  0  0  0  0  0  0  0
    5.5416   -0.7879    4.7547 H   0  0  0  0  0  0  0  0  0  0  0  0
    4.7305   -2.2997    4.4239 H   0  0  0  0  0  0  0  0  0  0  0  0
    3.2085    0.4158    6.2464 H   0  0  0  0  0  0  0  0  0  0  0  0
    5.0643    1.3165    4.3434 H   0  0  0  0  0  0  0  0  0  0  0  0
    3.9170    2.1889    7.8707 H   0  0  0  0  0  0  0  0  0  0  0  0
    5.3691    3.1626    7.8540 H   0  0  0  0  0  0  0  0  0  0  0  0
    4.2934    4.9704    6.7135 H   0  0  0  0  0  0  0  0  0  0  0  0
    1.3174    3.2973    6.3008 H   0  0  0  0  0  0  0  0  0  0  0  0
    0.2520    0.5309    8.3774 H   0  0  0  0  0  0  0  0  0  0  0  0
    1.8799    1.0846    8.5119 H   0  0  0  0  0  0  0  0  0  0  0  0
    1.4691    0.1251    7.1941 H   0  0  0  0  0  0  0  0  0  0  0  0
   -0.0433    2.7854    9.0902 H   0  0  0  0  0  0  0  0  0  0  0  0
    0.3924    4.2313    8.2278 H   0  0  0  0  0  0  0  0  0  0  0  0
    1.5879    3.1895    8.8463 H   0  0  0  0  0  0  0  0  0  0  0  0
    0.5110    2.5185    3.8994 H   0  0  0  0  0  0  0  0  0  0  0  0
   -1.7142    3.2921    4.1373 H   0  0  0  0  0  0  0  0  0  0  0  0
   -0.4230    5.6850    5.0051 H   0  0  0  0  0  0  0  0  0  0  0  0
    0.0670    6.0069    6.6237 H   0  0  0  0  0  0  0  0  0  0  0  0
    1.7993    7.1979    5.1758 H   0  0  0  0  0  0  0  0  0  0  0  0
    3.3779    6.4939    5.4368 H   0  0  0  0  0  0  0  0  0  0  0  0
    2.2803    6.6812    6.7912 H   0  0  0  0  0  0  0  0  0  0  0  0
    1.2817    4.7887    3.2736 H   0  0  0  0  0  0  0  0  0  0  0  0
    2.8090    5.4404    3.6155 H   0  0  0  0  0  0  0  0  0  0  0  0
    3.3396    3.4833    2.5788 H   0  0  0  0  0  0  0  0  0  0  0  0
  1  2  1  0
  1 43  1  0
  1 44  1  0
  1 45  1  0
  2 34  1  0
  2  3  1  0
  2 46  1  6
  3  4  1  0
  3 47  1  0
  3 48  1  0
  4  5  1  0
  4 49  1  0
  4 50  1  0
  5 32  1  0
  5  6  1  6
  7  5  1  6
  6 51  1  0
  7 22  1  0
  7 28  1  0
  7  8  1  0
  8 41  1  0
  8  9  1  0
  8 52  1  6
  9 10  1  0
  9 53  1  0
  9 54  1  0
 10 11  1  0
 10 19  1  0
 10 55  1  6
 11 12  1  0
 11 56  1  0
 11 57  1  0
 12 13  2  3
 12 58  1  0
 13 18  1  0
 13 14  1  0
 14 15  1  0
 14 59  1  0
 14 60  1  0
 15 16  1  0
 15 61  1  0
 15 62  1  0
 16 17  1  0
 16 18  1  0
 16 63  1  1
 17 64  1  0
 18 65  1  0
 18 66  1  0
 19 20  1  0
 19 21  1  0
 19 22  1  0
 20 67  1  0
 20 68  1  0
 20 69  1  0
 21 70  1  0
 21 71  1  0
 21 72  1  0
 22 23  1  0
 22 73  1  1
 23 42  1  0
 23 24  1  0
 23 74  1  6
 24 25  1  0
 25 26  1  0
 25 75  1  0
 25 76  1  0
 26 27  2  3
 26 77  1  0
 27 38  1  0
 27 28  1  0
 28 29  1  0
 28 78  1  1
 29 30  1  0
 29 31  1  0
 29 32  1  0
 30 79  1  0
 30 80  1  0
 30 81  1  0
 31 82  1  0
 31 83  1  0
 31 84  1  0
 32 33  1  6
 32 34  1  0
 33 85  1  0
 34 35  1  6
 34 36  1  0
 35 86  1  0
 36 37  1  0
 37 38  1  0
 37 87  1  0
 37 88  1  0
 38 39  1  1
 38 40  1  0
 39 89  1  0
 39 90  1  0
 39 91  1  0
 40 41  1  0
 40 92  1  0
 40 93  1  0
 41 42  1  0
 41 94  1  6
M  END
>  <i_m_ct_stereo_status>  (4) 
1

>  <s_m_source_file>  (4) 
/var/tmp/pbs.5076255.sched01/tmp7dv9smms/08akalw19.sdf

>  <i_m_source_file_index>  (4) 
2

>  <i_lp_mmshare_version>  (4) 
48012

>  <i_f3d_flags>  (4) 
0

>  <s_epik_input>  (4) 
W0NIMl0xW0NIMl1bQ0BASF0oW0NIM10pW0NAXShbT0hdKShbQ0BdMihbT0hdKVtDQF0xKFtDQF0zNDUpW09IXSlPW0NIMl1bQ0BAXTYoW0NIM10pQyhcW0NAQEhdNUMyKFtDSDNdKVtDSDNdKT1bQ0hdXFtDSDJdT1tDQEhdN1tDQEBIXTRDKFtDSDNdKShbQ0gzXSlbQ0BASF0oW0NIMl1bQ0BASF0zW0NASF0oTzcpW0NIMl02KVtDSDJdL1tDSF09QzhcW0NIMl1bQ0gyXVtDQEBIXShbT0hdKVtDSDJdOA==

>  <s_epik_cmdline>  (4) 
J2VwaWtfcHl0aG9uJywgJy1waHQnLCAnMi4wJywgJy1waCcsICc3LjAnLCAnLXRuJywgJzgnLCAnLW1hJywgJzIwMCcsICctaW1hZScsICc8aW5maWxlLm1hZT4nLCAnLW9tYWUnLCAnPG91dGZpbGUubWFlPic=

>  <r_lp_tautomer_probability>  (4) 
1

>  <r_epik_Ionization_Penalty>  (4) 
7.37587e-07

>  <r_epik_Ionization_Penalty_Charging>  (4) 
0

>  <r_epik_Ionization_Penalty_Neutral>  (4) 
7.37587e-07

>  <r_epik_State_Penalty>  (4) 
-0

>  <r_epik_Charging_Adjusted_Penalty>  (4) 
0

>  <i_epik_Tot_Q>  (4) 
0

>  <i_epik_Tot_abs_Q>  (4) 
0

>  <s_epik_Chemistry_Notes>  (4) 
This compound contains an acetal/aminal-like group ( X-CH(R)-Y where X, Y are N, S, or O) that may be acid/base labile, releasing an aldehyde.

>  <s_lp_Force_Field>  (4) 
OPLS3e

>  <r_lp_Energy>  (4) 
447.49

>  <b_lp_Chiralities_Consistent>  (4) 
1

>  <s_lp_Variant>  (4) 
0:0-2

>  <s_i_glide_gridfile>  (4) 
pfpi4k_grid

>  <i_i_glide_lignum>  (4) 
2

>  <i_i_glide_rotatable_bonds>  (4) 
6

>  <r_i_docking_score>  (4) 
-2.93191

>  <r_i_glide_ligand_efficiency>  (4) 
-0.0698075

>  <r_i_glide_ligand_efficiency_sa>  (4) 
-0.242653

>  <r_i_glide_ligand_efficiency_ln>  (4) 
-0.618852

>  <r_i_glide_gscore>  (4) 
-2.93191

>  <r_i_glide_lipo>  (4) 
-0.487476

>  <r_i_glide_hbond>  (4) 
-0.166816

>  <r_i_glide_metal>  (4) 
-0

>  <r_i_glide_rewards>  (4) 
-0.538099

>  <r_i_glide_evdw>  (4) 
-22.3044

>  <r_i_glide_ecoul>  (4) 
-4.21595

>  <r_i_glide_erotb>  (4) 
0.0130338

>  <r_i_glide_esite>  (4) 
-0.00494321

>  <r_i_glide_emodel>  (4) 
-34.2144

>  <r_i_glide_energy>  (4) 
-26.5204

>  <r_i_glide_einternal>  (4) 
2.38717

>  <r_i_glide_intrahb_reward>  (4) 
-0.5

>  <i_i_glide_confnum>  (4) 
5

>  <i_i_glide_posenum>  (4) 
29

>  <r_i_glide_eff_state_penalty>  (4) 
0

>  <ligand_id>  (4) 
0

>  <original_smiles>  (4) 
CC1CCC2(O)C34C5CC(CC=C6CCC(O)C6)C(C)(C)C3C3OCC=C6C4C(C)(C)C2(O)C1(O)OCC6(C)CC5O3

>  <smiles>  (4) 
[H]OC1([H])C([H])([H])C(=C([H])C([H])([H])C2([H])C([H])([H])C3([H])C4([H])OC5([H])OC([H])([H])C([H])=C6C7([H])C(C([H])([H])[H])(C([H])([H])[H])C8(O[H])C(O[H])(OC([H])([H])C6(C([H])([H])[H])C4([H])[H])C([H])(C([H])([H])[H])C([H])([H])C([H])([H])C8(O[H])C73C5([H])C2(C([H])([H])[H])C([H])([H])[H])C([H])([H])C1([H])[H]

$$$$
0:1:1
     RDKit          3D

 94101  0  0  1  0  0  0  0  0999 V2000
   -1.8096    3.8670    8.2656 C   0  0  0  0  0  0  0  0  0  0  0  0
   -2.2302    3.0818    7.0272 C   0  0  2  0  0  0  0  0  0  0  0  0
   -2.3733    1.5129    7.2443 C   0  0  0  0  0  0  0  0  0  0  0  0
   -1.2009    0.5085    6.9044 C   0  0  0  0  0  0  0  0  0  0  0  0
   -0.4189    0.7958    5.5581 C   0  0  2  0  0  0  0  0  0  0  0  0
   -1.3020    0.1013    4.6283 O   0  0  0  0  0  0  0  0  0  0  0  0
    1.2234    0.7510    5.0677 C   0  0  2  0  0  0  0  0  0  0  0  0
    1.2553    0.4469    3.4981 C   0  0  2  0  0  0  0  0  0  0  0  0
    1.2237   -1.0600    3.0756 C   0  0  0  0  0  0  0  0  0  0  0  0
    1.9529   -2.1378    3.9081 C   0  0  1  0  0  0  0  0  0  0  0  0
    3.1079   -2.8796    3.1722 C   0  0  0  0  0  0  0  0  0  0  0  0
    2.7281   -3.4477    1.8186 C   0  0  0  0  0  0  0  0  0  0  0  0
    3.3294   -3.1228    0.6575 C   0  0  0  0  0  0  0  0  0  0  0  0
    2.9736   -3.6973   -0.6906 C   0  0  0  0  0  0  0  0  0  0  0  0
    3.7560   -2.8621   -1.7146 C   0  0  0  0  0  0  0  0  0  0  0  0
    4.9476   -2.2923   -0.9421 C   0  0  1  0  0  0  0  0  0  0  0  0
    5.4161   -1.0730   -1.4745 O   0  0  0  0  0  0  0  0  0  0  0  0
    4.4557   -2.1210    0.5037 C   0  0  0  0  0  0  0  0  0  0  0  0
    2.2635   -1.6827    5.3724 C   0  0  0  0  0  0  0  0  0  0  0  0
    1.0675   -2.0925    6.2492 C   0  0  0  0  0  0  0  0  0  0  0  0
    3.4679   -2.4104    6.0119 C   0  0  0  0  0  0  0  0  0  0  0  0
    2.4564   -0.1295    5.4569 C   0  0  1  0  0  0  0  0  0  0  0  0
    3.7446    0.3321    4.6055 C   0  0  2  0  0  0  0  0  0  0  0  0
    4.7755    0.9166    5.3722 O   0  0  0  0  0  0  0  0  0  0  0  0
    4.6284    2.2106    5.9558 C   0  0  0  0  0  0  0  0  0  0  0  0
    3.9492    3.2260    5.0634 C   0  0  0  0  0  0  0  0  0  0  0  0
    2.6178    3.1916    4.8546 C   0  0  0  0  0  0  0  0  0  0  0  0
    1.8426    2.1424    5.6718 C   0  0  2  0  0  0  0  0  0  0  0  0
    0.8504    2.6134    6.6432 C   0  0  0  0  0  0  0  0  0  0  0  0
    1.1744    1.7410    7.9052 C   0  0  0  0  0  0  0  0  0  0  0  0
    1.2203    4.0289    7.3107 C   0  0  0  0  0  0  0  0  0  0  0  0
   -0.4389    2.3094    5.5791 C   0  0  1  0  0  0  0  0  0  0  0  0
   -0.4257    2.3531    4.1527 O   0  0  0  0  0  0  0  0  0  0  0  0
   -1.5092    3.3399    5.6575 C   0  0  1  0  0  0  0  0  0  0  0  0
   -2.5430    3.2642    4.6962 O   0  0  0  0  0  0  0  0  0  0  0  0
   -0.6764    4.5450    5.4116 O   0  0  0  0  0  0  0  0  0  0  0  0
    0.3679    4.7901    4.2625 C   0  0  0  0  0  0  0  0  0  0  0  0
    1.8384    4.0185    3.7511 C   0  0  1  0  0  0  0  0  0  0  0  0
    2.7038    5.1774    3.2258 C   0  0  0  0  0  0  0  0  0  0  0  0
    1.8103    2.9075    2.6059 C   0  0  0  0  0  0  0  0  0  0  0  0
    2.2638    1.3578    2.8124 C   0  0  1  0  0  0  0  0  0  0  0  0
    3.5466    1.0484    3.3649 O   0  0  0  0  0  0  0  0  0  0  0  0
   -1.0930    3.3325    8.8806 H   0  0  0  0  0  0  0  0  0  0  0  0
   -2.6748    4.0088    8.9109 H   0  0  0  0  0  0  0  0  0  0  0  0
   -1.4361    4.8644    8.0135 H   0  0  0  0  0  0  0  0  0  0  0  0
   -3.2543    3.4521    6.8782 H   0  0  0  0  0  0  0  0  0  0  0  0
   -2.7356    1.3444    8.2509 H   0  0  0  0  0  0  0  0  0  0  0  0
   -3.1820    1.2043    6.5967 H   0  0  0  0  0  0  0  0  0  0  0  0
   -0.6613    0.2833    7.8178 H   0  0  0  0  0  0  0  0  0  0  0  0
   -1.6492   -0.4635    6.8037 H   0  0  0  0  0  0  0  0  0  0  0  0
   -1.0939    0.4069    3.7404 H   0  0  0  0  0  0  0  0  0  0  0  0
    0.3918    0.7250    2.9154 H   0  0  0  0  0  0  0  0  0  0  0  0
    0.1805   -1.3846    2.9864 H   0  0  0  0  0  0  0  0  0  0  0  0
    1.6128   -1.0846    2.0650 H   0  0  0  0  0  0  0  0  0  0  0  0
    1.2323   -2.9440    4.0039 H   0  0  0  0  0  0  0  0  0  0  0  0
    3.9909   -2.2606    3.0823 H   0  0  0  0  0  0  0  0  0  0  0  0
    3.4070   -3.7500    3.7533 H   0  0  0  0  0  0  0  0  0  0  0  0
    1.9335   -4.1856    1.8233 H   0  0  0  0  0  0  0  0  0  0  0  0
    3.3119   -4.7314   -0.7072 H   0  0  0  0  0  0  0  0  0  0  0  0
    1.9013   -3.6595   -0.8805 H   0  0  0  0  0  0  0  0  0  0  0  0
    4.0694   -3.4603   -2.5759 H   0  0  0  0  0  0  0  0  0  0  0  0
    3.1125   -2.0615   -2.0815 H   0  0  0  0  0  0  0  0  0  0  0  0
    5.7602   -3.0224   -0.9505 H   0  0  0  0  0  0  0  0  0  0  0  0
    4.6908   -0.4463   -1.4309 H   0  0  0  0  0  0  0  0  0  0  0  0
    4.0426   -1.1313    0.6799 H   0  0  0  0  0  0  0  0  0  0  0  0
    5.2662   -2.3005    1.2011 H   0  0  0  0  0  0  0  0  0  0  0  0
    1.1384   -1.6403    7.2435 H   0  0  0  0  0  0  0  0  0  0  0  0
    1.0368   -3.1763    6.3948 H   0  0  0  0  0  0  0  0  0  0  0  0
    0.1178   -1.8111    5.8073 H   0  0  0  0  0  0  0  0  0  0  0  0
    3.6340   -2.0684    7.0365 H   0  0  0  0  0  0  0  0  0  0  0  0
    4.4044   -2.2661    5.4808 H   0  0  0  0  0  0  0  0  0  0  0  0
    3.3067   -3.4913    6.0609 H   0  0  0  0  0  0  0  0  0  0  0  0
    2.7472    0.0447    6.4953 H   0  0  0  0  0  0  0  0  0  0  0  0
    4.2536   -0.5486    4.2428 H   0  0  0  0  0  0  0  0  0  0  0  0
    4.0987    2.1101    6.9024 H   0  0  0  0  0  0  0  0  0  0  0  0
    5.6222    2.5794    6.2002 H   0  0  0  0  0  0  0  0  0  0  0  0
    4.6023    3.8712    4.4844 H   0  0  0  0  0  0  0  0  0  0  0  0
    1.4321    3.0165    5.4274 H   0  0  0  0  0  0  0  0  0  0  0  0
    0.4665    1.8762    8.7163 H   0  0  0  0  0  0  0  0  0  0  0  0
    2.1534    1.9895    8.3218 H   0  0  0  0  0  0  0  0  0  0  0  0
    1.2709    0.6773    7.7230 H   0  0  0  0  0  0  0  0  0  0  0  0
    0.7067    4.2015    8.2402 H   0  0  0  0  0  0  0  0  0  0  0  0
    1.1304    4.9278    6.7142 H   0  0  0  0  0  0  0  0  0  0  0  0
    2.2755    4.0225    7.5940 H   0  0  0  0  0  0  0  0  0  0  0  0
   -1.2547    1.9892    3.8913 H   0  0  0  0  0  0  0  0  0  0  0  0
   -2.1416    3.3544    3.8342 H   0  0  0  0  0  0  0  0  0  0  0  0
   -0.2216    4.9266    3.3540 H   0  0  0  0  0  0  0  0  0  0  0  0
    0.6930    5.8044    4.5180 H   0  0  0  0  0  0  0  0  0  0  0  0
    2.1572    5.7120    2.4524 H   0  0  0  0  0  0  0  0  0  0  0  0
    3.6380    4.8344    2.7718 H   0  0  0  0  0  0  0  0  0  0  0  0
    2.9610    5.8876    4.0085 H   0  0  0  0  0  0  0  0  0  0  0  0
    0.8475    2.9358    2.1023 H   0  0  0  0  0  0  0  0  0  0  0  0
    2.4580    3.2804    1.8169 H   0  0  0  0  0  0  0  0  0  0  0  0
    2.3406    0.9945    1.7885 H   0  0  0  0  0  0  0  0  0  0  0  0
  1  2  1  0
  1 43  1  0
  1 44  1  0
  1 45  1  0
  2 34  1  0
  2  3  1  0
  2 46  1  6
  3  4  1  0
  3 47  1  0
  3 48  1  0
  4  5  1  0
  4 49  1  0
  4 50  1  0
  5 32  1  0
  5  6  1  6
  7  5  1  1
  6 51  1  0
  7 22  1  0
  7 28  1  0
  7  8  1  0
  8 41  1  0
  8  9  1  0
  8 52  1  6
  9 10  1  0
  9 53  1  0
  9 54  1  0
 10 11  1  0
 10 19  1  0
 10 55  1  1
 11 12  1  0
 11 56  1  0
 11 57  1  0
 12 13  2  3
 12 58  1  0
 13 18  1  0
 13 14  1  0
 14 15  1  0
 14 59  1  0
 14 60  1  0
 15 16  1  0
 15 61  1  0
 15 62  1  0
 16 17  1  0
 16 18  1  0
 16 63  1  1
 17 64  1  0
 18 65  1  0
 18 66  1  0
 19 20  1  0
 19 21  1  0
 19 22  1  0
 20 67  1  0
 20 68  1  0
 20 69  1  0
 21 70  1  0
 21 71  1  0
 21 72  1  0
 22 23  1  0
 22 73  1  1
 23 42  1  0
 23 24  1  0
 23 74  1  6
 24 25  1  0
 25 26  1  0
 25 75  1  0
 25 76  1  0
 26 27  2  3
 26 77  1  0
 27 38  1  0
 27 28  1  0
 28 29  1  0
 28 78  1  1
 29 30  1  0
 29 31  1  0
 29 32  1  0
 30 79  1  0
 30 80  1  0
 30 81  1  0
 31 82  1  0
 31 83  1  0
 31 84  1  0
 32 33  1  6
 32 34  1  0
 33 85  1  0
 34 35  1  6
 34 36  1  0
 35 86  1  0
 36 37  1  0
 37 38  1  0
 37 87  1  0
 37 88  1  0
 38 39  1  6
 38 40  1  0
 39 89  1  0
 39 90  1  0
 39 91  1  0
 40 41  1  0
 40 92  1  0
 40 93  1  0
 41 42  1  0
 41 94  1  6
M  END
>  <i_m_ct_stereo_status>  (5) 
1

>  <s_m_source_file>  (5) 
/var/tmp/pbs.5076255.sched01/tmp7dv9smms/08akalw19.sdf

>  <i_m_source_file_index>  (5) 
2

>  <i_lp_mmshare_version>  (5) 
48012

>  <i_f3d_flags>  (5) 
0

>  <s_epik_input>  (5) 
W0NIMl0xW0NIMl1bQ0BASF0oW0NIM10pW0NAXShbT0hdKShbQ0BdMihbT0hdKVtDQF0xKFtDQF0zNDUpW09IXSlPW0NIMl1bQ0BAXTYoW0NIM10pQyhcW0NAQEhdNUMyKFtDSDNdKVtDSDNdKT1bQ0hdXFtDSDJdT1tDQEhdN1tDQEBIXTRDKFtDSDNdKShbQ0gzXSlbQ0BASF0oW0NIMl1bQ0BASF0zW0NASF0oTzcpW0NIMl02KVtDSDJdL1tDSF09QzhcW0NIMl1bQ0gyXVtDQEBIXShbT0hdKVtDSDJdOA==

>  <s_epik_cmdline>  (5) 
J2VwaWtfcHl0aG9uJywgJy1waHQnLCAnMi4wJywgJy1waCcsICc3LjAnLCAnLXRuJywgJzgnLCAnLW1hJywgJzIwMCcsICctaW1hZScsICc8aW5maWxlLm1hZT4nLCAnLW9tYWUnLCAnPG91dGZpbGUubWFlPic=

>  <r_lp_tautomer_probability>  (5) 
1

>  <r_epik_Ionization_Penalty>  (5) 
7.37587e-07

>  <r_epik_Ionization_Penalty_Charging>  (5) 
0

>  <r_epik_Ionization_Penalty_Neutral>  (5) 
7.37587e-07

>  <r_epik_State_Penalty>  (5) 
-0

>  <r_epik_Charging_Adjusted_Penalty>  (5) 
0

>  <i_epik_Tot_Q>  (5) 
0

>  <i_epik_Tot_abs_Q>  (5) 
0

>  <s_epik_Chemistry_Notes>  (5) 
This compound contains an acetal/aminal-like group ( X-CH(R)-Y where X, Y are N, S, or O) that may be acid/base labile, releasing an aldehyde.

>  <s_lp_Force_Field>  (5) 
OPLS3e

>  <r_lp_Energy>  (5) 
447.49

>  <b_lp_Chiralities_Consistent>  (5) 
1

>  <s_lp_Variant>  (5) 
0:0-2

>  <s_i_glide_gridfile>  (5) 
pfpi4k_grid

>  <i_i_glide_lignum>  (5) 
2

>  <i_i_glide_rotatable_bonds>  (5) 
6

>  <r_i_docking_score>  (5) 
-1.87378

>  <r_i_glide_ligand_efficiency>  (5) 
-0.0446139

>  <r_i_glide_ligand_efficiency_sa>  (5) 
-0.155079

>  <r_i_glide_ligand_efficiency_ln>  (5) 
-0.395507

>  <r_i_glide_gscore>  (5) 
-1.87378

>  <r_i_glide_lipo>  (5) 
-0.117335

>  <r_i_glide_hbond>  (5) 
-0.00803386

>  <r_i_glide_metal>  (5) 
-0

>  <r_i_glide_rewards>  (5) 
-0.00412296

>  <r_i_glide_evdw>  (5) 
-25.3246

>  <r_i_glide_ecoul>  (5) 
-3.28763

>  <r_i_glide_erotb>  (5) 
0.0186197

>  <r_i_glide_esite>  (5) 
-0.00353618

>  <r_i_glide_emodel>  (5) 
-31.6259

>  <r_i_glide_energy>  (5) 
-28.6122

>  <r_i_glide_einternal>  (5) 
0.345704

>  <r_i_glide_intrahb_reward>  (5) 
-0

>  <i_i_glide_confnum>  (5) 
4

>  <i_i_glide_posenum>  (5) 
1

>  <r_i_glide_eff_state_penalty>  (5) 
0

>  <ligand_id>  (5) 
0

>  <original_smiles>  (5) 
CC1CCC2(O)C34C5CC(CC=C6CCC(O)C6)C(C)(C)C3C3OCC=C6C4C(C)(C)C2(O)C1(O)OCC6(C)CC5O3

>  <smiles>  (5) 
[H]OC1([H])C([H])([H])C(=C([H])C([H])([H])C2([H])C([H])([H])C3([H])C4([H])OC5([H])OC([H])([H])C([H])=C6C7([H])C(C([H])([H])[H])(C([H])([H])[H])C8(O[H])C(O[H])(OC([H])([H])C6(C([H])([H])[H])C4([H])[H])C([H])(C([H])([H])[H])C([H])([H])C([H])([H])C8(O[H])C73C5([H])C2(C([H])([H])[H])C([H])([H])[H])C([H])([H])C1([H])[H]

$$$$
0:1:2
     RDKit          3D

 94101  0  0  1  0  0  0  0  0999 V2000
   -1.7434    3.5302    8.3457 C   0  0  0  0  0  0  0  0  0  0  0  0
   -2.1339    2.7469    7.0912 C   0  0  2  0  0  0  0  0  0  0  0  0
   -2.1925    1.1650    7.2489 C   0  0  0  0  0  0  0  0  0  0  0  0
   -0.9550    0.2300    6.9179 C   0  0  0  0  0  0  0  0  0  0  0  0
   -0.1986    0.5926    5.5715 C   0  0  2  0  0  0  0  0  0  0  0  0
   -1.0124   -0.1284    4.6312 O   0  0  0  0  0  0  0  0  0  0  0  0
    1.4336    0.6749    5.0504 C   0  0  2  0  0  0  0  0  0  0  0  0
    1.4733    0.3945    3.4748 C   0  0  2  0  0  0  0  0  0  0  0  0
    1.5330   -1.0993    3.0123 C   0  0  0  0  0  0  0  0  0  0  0  0
    2.3349   -2.1405    3.8296 C   0  0  1  0  0  0  0  0  0  0  0  0
    3.5139   -2.7966    3.0608 C   0  0  0  0  0  0  0  0  0  0  0  0
    3.1155   -3.4624    1.7612 C   0  0  0  0  0  0  0  0  0  0  0  0
    3.6487   -3.1548    0.5512 C   0  0  0  0  0  0  0  0  0  0  0  0
    3.2934   -3.8441   -0.7360 C   0  0  0  0  0  0  0  0  0  0  0  0
    3.9564   -3.0138   -1.8426 C   0  0  0  0  0  0  0  0  0  0  0  0
    5.1175   -2.2918   -1.1549 C   0  0  1  0  0  0  0  0  0  0  0  0
    5.4299   -1.0652   -1.7768 O   0  0  0  0  0  0  0  0  0  0  0  0
    4.6765   -2.0818    0.2966 C   0  0  0  0  0  0  0  0  0  0  0  0
    2.6310   -1.6941    5.2957 C   0  0  0  0  0  0  0  0  0  0  0  0
    1.4760   -2.1950    6.1885 C   0  0  0  0  0  0  0  0  0  0  0  0
    3.8956   -2.3545    5.9107 C   0  0  0  0  0  0  0  0  0  0  0  0
    2.7276   -0.1393    5.4095 C   0  0  1  0  0  0  0  0  0  0  0  0
    3.9746    0.4219    4.5406 C   0  0  2  0  0  0  0  0  0  0  0  0
    4.9732    1.0542    5.3060 O   0  0  0  0  0  0  0  0  0  0  0  0
    4.7608    2.3267    5.9251 C   0  0  0  0  0  0  0  0  0  0  0  0
    3.9875    3.3189    5.0646 C   0  0  0  0  0  0  0  0  0  0  0  0
    2.6745    3.2006    4.8669 C   0  0  0  0  0  0  0  0  0  0  0  0
    1.9630    2.0898    5.6642 C   0  0  2  0  0  0  0  0  0  0  0  0
    0.9602    2.4779    6.6658 C   0  0  0  0  0  0  0  0  0  0  0  0
    1.3628    1.5987    7.9030 C   0  0  0  0  0  0  0  0  0  0  0  0
    1.2539    3.8960    7.3626 C   0  0  0  0  0  0  0  0  0  0  0  0
   -0.3243    2.1130    5.6007 C   0  0  1  0  0  0  0  0  0  0  0  0
   -0.3295    2.1805    4.1677 O   0  0  0  0  0  0  0  0  0  0  0  0
   -1.4340    3.0958    5.7376 C   0  0  1  0  0  0  0  0  0  0  0  0
   -2.4613    2.9970    4.7659 O   0  0  0  0  0  0  0  0  0  0  0  0
   -0.6664    4.3382    5.5099 O   0  0  0  0  0  0  0  0  0  0  0  0
    0.3259    4.6635    4.3333 C   0  0  0  0  0  0  0  0  0  0  0  0
    1.8218    4.0012    3.7901 C   0  0  1  0  0  0  0  0  0  0  0  0
    2.6170    5.2282    3.2680 C   0  0  0  0  0  0  0  0  0  0  0  0
    1.8543    2.9111    2.6176 C   0  0  0  0  0  0  0  0  0  0  0  0
    2.4026    1.3864    2.7949 C   0  0  1  0  0  0  0  0  0  0  0  0
    3.7085    1.1515    3.3344 O   0  0  0  0  0  0  0  0  0  0  0  0
   -0.9864    3.0271    8.9391 H   0  0  0  0  0  0  0  0  0  0  0  0
   -2.6095    3.6047    9.0045 H   0  0  0  0  0  0  0  0  0  0  0  0
   -1.4422    4.5507    8.1105 H   0  0  0  0  0  0  0  0  0  0  0  0
   -3.1705    3.0674    6.9617 H   0  0  0  0  0  0  0  0  0  0  0  0
   -2.5454    0.9592    8.2565 H   0  0  0  0  0  0  0  0  0  0  0  0
   -2.9784    0.8194    6.5804 H   0  0  0  0  0  0  0  0  0  0  0  0
   -0.4029    0.0517    7.8269 H   0  0  0  0  0  0  0  0  0  0  0  0
   -1.3440   -0.7703    6.7741 H   0  0  0  0  0  0  0  0  0  0  0  0
   -1.0554    0.4318    3.8589 H   0  0  0  0  0  0  0  0  0  0  0  0
    0.5792    0.6018    2.9040 H   0  0  0  0  0  0  0  0  0  0  0  0
    0.5031   -1.4798    2.9350 H   0  0  0  0  0  0  0  0  0  0  0  0
    1.9051   -1.0955    1.9909 H   0  0  0  0  0  0  0  0  0  0  0  0
    1.6550   -2.9823    3.9173 H   0  0  0  0  0  0  0  0  0  0  0  0
    4.3126   -2.0802    2.8992 H   0  0  0  0  0  0  0  0  0  0  0  0
    3.9457   -3.6119    3.6415 H   0  0  0  0  0  0  0  0  0  0  0  0
    2.3895   -4.2582    1.8263 H   0  0  0  0  0  0  0  0  0  0  0  0
    3.7132   -4.8486   -0.7070 H   0  0  0  0  0  0  0  0  0  0  0  0
    2.2159   -3.9163   -0.8793 H   0  0  0  0  0  0  0  0  0  0  0  0
    4.2909   -3.6291   -2.6808 H   0  0  0  0  0  0  0  0  0  0  0  0
    3.2300   -2.2951   -2.2256 H   0  0  0  0  0  0  0  0  0  0  0  0
    6.0010   -2.9330   -1.1690 H   0  0  0  0  0  0  0  0  0  0  0  0
    4.6470   -0.5194   -1.7406 H   0  0  0  0  0  0  0  0  0  0  0  0
    4.1954   -1.1151    0.4429 H   0  0  0  0  0  0  0  0  0  0  0  0
    5.5284   -2.1524    0.9707 H   0  0  0  0  0  0  0  0  0  0  0  0
    1.5217   -1.7555    7.1852 H   0  0  0  0  0  0  0  0  0  0  0  0
    1.5070   -3.2791    6.3175 H   0  0  0  0  0  0  0  0  0  0  0  0
    0.5033   -1.9689    5.7611 H   0  0  0  0  0  0  0  0  0  0  0  0
    4.0619   -2.0181    6.9340 H   0  0  0  0  0  0  0  0  0  0  0  0
    4.8090   -2.1358    5.3641 H   0  0  0  0  0  0  0  0  0  0  0  0
    3.8131   -3.4420    5.9437 H   0  0  0  0  0  0  0  0  0  0  0  0
    3.0276    0.0367    6.4389 H   0  0  0  0  0  0  0  0  0  0  0  0
    4.5351   -0.4147    4.1514 H   0  0  0  0  0  0  0  0  0  0  0  0
    4.2579    2.1836    6.8763 H   0  0  0  0  0  0  0  0  0  0  0  0
    5.7328    2.7572    6.1560 H   0  0  0  0  0  0  0  0  0  0  0  0
    4.5918    4.0351    4.5169 H   0  0  0  0  0  0  0  0  0  0  0  0
    1.4887    2.9497    5.4476 H   0  0  0  0  0  0  0  0  0  0  0  0
    0.6656    1.6770    8.7323 H   0  0  0  0  0  0  0  0  0  0  0  0
    2.3247    1.8979    8.3203 H   0  0  0  0  0  0  0  0  0  0  0  0
    1.5231    0.5454    7.7107 H   0  0  0  0  0  0  0  0  0  0  0  0
    0.7446    4.0216    8.3070 H   0  0  0  0  0  0  0  0  0  0  0  0
    1.0974    4.8042    6.7951 H   0  0  0  0  0  0  0  0  0  0  0  0
    2.3073    3.9590    7.6387 H   0  0  0  0  0  0  0  0  0  0  0  0
    0.5433    1.9280    3.8907 H   0  0  0  0  0  0  0  0  0  0  0  0
   -1.9833    2.7385    3.9780 H   0  0  0  0  0  0  0  0  0  0  0  0
   -0.2875    4.7982    3.4408 H   0  0  0  0  0  0  0  0  0  0  0  0
    0.5850    5.6875    4.6033 H   0  0  0  0  0  0  0  0  0  0  0  0
    2.0367    5.7491    2.5076 H   0  0  0  0  0  0  0  0  0  0  0  0
    3.5623    4.9627    2.7961 H   0  0  0  0  0  0  0  0  0  0  0  0
    2.8414    5.9429    4.0582 H   0  0  0  0  0  0  0  0  0  0  0  0
    0.8821    2.8755    2.1377 H   0  0  0  0  0  0  0  0  0  0  0  0
    2.4666    3.3397    1.8310 H   0  0  0  0  0  0  0  0  0  0  0  0
    2.4981    1.0518    1.7610 H   0  0  0  0  0  0  0  0  0  0  0  0
  1  2  1  0
  1 43  1  0
  1 44  1  0
  1 45  1  0
  2 34  1  0
  2  3  1  0
  2 46  1  6
  3  4  1  0
  3 47  1  0
  3 48  1  0
  4  5  1  0
  4 49  1  0
  4 50  1  0
  5 32  1  0
  5  6  1  6
  7  5  1  1
  6 51  1  0
  7 22  1  0
  7 28  1  0
  7  8  1  0
  8 41  1  0
  8  9  1  0
  8 52  1  6
  9 10  1  0
  9 53  1  0
  9 54  1  0
 10 11  1  0
 10 19  1  0
 10 55  1  1
 11 12  1  0
 11 56  1  0
 11 57  1  0
 12 13  2  3
 12 58  1  0
 13 18  1  0
 13 14  1  0
 14 15  1  0
 14 59  1  0
 14 60  1  0
 15 16  1  0
 15 61  1  0
 15 62  1  0
 16 17  1  0
 16 18  1  0
 16 63  1  1
 17 64  1  0
 18 65  1  0
 18 66  1  0
 19 20  1  0
 19 21  1  0
 19 22  1  0
 20 67  1  0
 20 68  1  0
 20 69  1  0
 21 70  1  0
 21 71  1  0
 21 72  1  0
 22 23  1  0
 22 73  1  1
 23 42  1  0
 23 24  1  0
 23 74  1  6
 24 25  1  0
 25 26  1  0
 25 75  1  0
 25 76  1  0
 26 27  2  3
 26 77  1  0
 27 38  1  0
 27 28  1  0
 28 29  1  0
 28 78  1  1
 29 30  1  0
 29 31  1  0
 29 32  1  0
 30 79  1  0
 30 80  1  0
 30 81  1  0
 31 82  1  0
 31 83  1  0
 31 84  1  0
 32 33  1  6
 32 34  1  0
 33 85  1  0
 34 35  1  6
 34 36  1  0
 35 86  1  0
 36 37  1  0
 37 38  1  0
 37 87  1  0
 37 88  1  0
 38 39  1  6
 38 40  1  0
 39 89  1  0
 39 90  1  0
 39 91  1  0
 40 41  1  0
 40 92  1  0
 40 93  1  0
 41 42  1  0
 41 94  1  6
M  END
>  <i_m_ct_stereo_status>  (6) 
1

>  <s_m_source_file>  (6) 
/var/tmp/pbs.5076255.sched01/tmp7dv9smms/08akalw19.sdf

>  <i_m_source_file_index>  (6) 
2

>  <i_lp_mmshare_version>  (6) 
48012

>  <i_f3d_flags>  (6) 
0

>  <s_epik_input>  (6) 
W0NIMl0xW0NIMl1bQ0BASF0oW0NIM10pW0NAXShbT0hdKShbQ0BdMihbT0hdKVtDQF0xKFtDQF0zNDUpW09IXSlPW0NIMl1bQ0BAXTYoW0NIM10pQyhcW0NAQEhdNUMyKFtDSDNdKVtDSDNdKT1bQ0hdXFtDSDJdT1tDQEhdN1tDQEBIXTRDKFtDSDNdKShbQ0gzXSlbQ0BASF0oW0NIMl1bQ0BASF0zW0NASF0oTzcpW0NIMl02KVtDSDJdL1tDSF09QzhcW0NIMl1bQ0gyXVtDQEBIXShbT0hdKVtDSDJdOA==

>  <s_epik_cmdline>  (6) 
J2VwaWtfcHl0aG9uJywgJy1waHQnLCAnMi4wJywgJy1waCcsICc3LjAnLCAnLXRuJywgJzgnLCAnLW1hJywgJzIwMCcsICctaW1hZScsICc8aW5maWxlLm1hZT4nLCAnLW9tYWUnLCAnPG91dGZpbGUubWFlPic=

>  <r_lp_tautomer_probability>  (6) 
1

>  <r_epik_Ionization_Penalty>  (6) 
7.37587e-07

>  <r_epik_Ionization_Penalty_Charging>  (6) 
0

>  <r_epik_Ionization_Penalty_Neutral>  (6) 
7.37587e-07

>  <r_epik_State_Penalty>  (6) 
-0

>  <r_epik_Charging_Adjusted_Penalty>  (6) 
0

>  <i_epik_Tot_Q>  (6) 
0

>  <i_epik_Tot_abs_Q>  (6) 
0

>  <s_epik_Chemistry_Notes>  (6) 
This compound contains an acetal/aminal-like group ( X-CH(R)-Y where X, Y are N, S, or O) that may be acid/base labile, releasing an aldehyde.

>  <s_lp_Force_Field>  (6) 
OPLS3e

>  <r_lp_Energy>  (6) 
447.49

>  <b_lp_Chiralities_Consistent>  (6) 
1

>  <s_lp_Variant>  (6) 
0:0-2

>  <s_i_glide_gridfile>  (6) 
pfpi4k_grid

>  <i_i_glide_lignum>  (6) 
2

>  <i_i_glide_rotatable_bonds>  (6) 
6

>  <r_i_docking_score>  (6) 
-1.87087

>  <r_i_glide_ligand_efficiency>  (6) 
-0.0445445

>  <r_i_glide_ligand_efficiency_sa>  (6) 
-0.154838

>  <r_i_glide_ligand_efficiency_ln>  (6) 
-0.394892

>  <r_i_glide_gscore>  (6) 
-1.87087

>  <r_i_glide_lipo>  (6) 
-0.0958914

>  <r_i_glide_hbond>  (6) 
-0.0107299

>  <r_i_glide_metal>  (6) 
-0

>  <r_i_glide_rewards>  (6) 
-0.0146633

>  <r_i_glide_evdw>  (6) 
-25.3912

>  <r_i_glide_ecoul>  (6) 
-3.32429

>  <r_i_glide_erotb>  (6) 
0.0186197

>  <r_i_glide_esite>  (6) 
0

>  <r_i_glide_emodel>  (6) 
-31.2765

>  <r_i_glide_energy>  (6) 
-28.7155

>  <r_i_glide_einternal>  (6) 
0.267238

>  <r_i_glide_intrahb_reward>  (6) 
-0

>  <i_i_glide_confnum>  (6) 
4

>  <i_i_glide_posenum>  (6) 
40

>  <r_i_glide_eff_state_penalty>  (6) 
0

>  <ligand_id>  (6) 
0

>  <original_smiles>  (6) 
CC1CCC2(O)C34C5CC(CC=C6CCC(O)C6)C(C)(C)C3C3OCC=C6C4C(C)(C)C2(O)C1(O)OCC6(C)CC5O3

>  <smiles>  (6) 
[H]OC1([H])C([H])([H])C(=C([H])C([H])([H])C2([H])C([H])([H])C3([H])C4([H])OC5([H])OC([H])([H])C([H])=C6C7([H])C(C([H])([H])[H])(C([H])([H])[H])C8(O[H])C(O[H])(OC([H])([H])C6(C([H])([H])[H])C4([H])[H])C([H])(C([H])([H])[H])C([H])([H])C([H])([H])C8(O[H])C73C5([H])C2(C([H])([H])[H])C([H])([H])[H])C([H])([H])C1([H])[H]

$$$$
0:2:0
     RDKit          3D

 94101  0  0  1  0  0  0  0  0999 V2000
    1.2403   -9.1005    7.8194 C   0  0  0  0  0  0  0  0  0  0  0  0
    2.6548   -9.4737    7.3288 C   0  0  2  0  0  0  0  0  0  0  0  0
    3.7480   -8.4112    7.6320 C   0  0  0  0  0  0  0  0  0  0  0  0
    3.8701   -7.2526    6.6210 C   0  0  0  0  0  0  0  0  0  0  0  0
    4.1598   -7.6779    5.1292 C   0  0  2  0  0  0  0  0  0  0  0  0
    5.5509   -7.3760    5.0612 O   0  0  0  0  0  0  0  0  0  0  0  0
    3.4069   -6.8577    3.8674 C   0  0  2  0  0  0  0  0  0  0  0  0
    3.3872   -6.6410    2.2637 C   0  0  2  0  0  0  0  0  0  0  0  0
    4.2271   -5.4429    1.7310 C   0  0  0  0  0  0  0  0  0  0  0  0
    4.1931   -4.0739    2.4657 C   0  0  1  0  0  0  0  0  0  0  0  0
    3.4879   -2.9272    1.6792 C   0  0  0  0  0  0  0  0  0  0  0  0
    4.2961   -2.4311    0.4951 C   0  0  0  0  0  0  0  0  0  0  0  0
    3.9501   -2.5849   -0.7939 C   0  0  0  0  0  0  0  0  0  0  0  0
    2.7314   -3.3319   -1.2881 C   0  0  0  0  0  0  0  0  0  0  0  0
    2.6625   -3.0520   -2.7892 C   0  0  0  0  0  0  0  0  0  0  0  0
    4.1011   -2.7119   -3.1929 C   0  0  1  0  0  0  0  0  0  0  0  0
    4.1353   -1.8530   -4.3118 O   0  0  0  0  0  0  0  0  0  0  0  0
    4.7349   -2.0438   -1.9648 C   0  0  0  0  0  0  0  0  0  0  0  0
    3.8265   -4.2193    3.9772 C   0  0  0  0  0  0  0  0  0  0  0  0
    5.1655   -4.4626    4.7041 C   0  0  0  0  0  0  0  0  0  0  0  0
    3.3260   -2.9118    4.6481 C   0  0  0  0  0  0  0  0  0  0  0  0
    2.8100   -5.4041    4.2252 C   0  0  1  0  0  0  0  0  0  0  0  0
    1.4174   -5.0177    3.5362 C   0  0  2  0  0  0  0  0  0  0  0  0
    0.3718   -4.9444    4.4860 O   0  0  0  0  0  0  0  0  0  0  0  0
   -0.3008   -6.1518    4.8055 C   0  0  0  0  0  0  0  0  0  0  0  0
    0.7442   -7.2148    5.0326 C   0  0  0  0  0  0  0  0  0  0  0  0
    1.2282   -8.0126    4.0794 C   0  0  0  0  0  0  0  0  0  0  0  0
    2.7336   -8.2029    3.6803 C   0  0  2  0  0  0  0  0  0  0  0  0
    3.7685   -9.4288    3.6515 C   0  0  0  0  0  0  0  0  0  0  0  0
    3.5150  -10.8784    3.0857 C   0  0  0  0  0  0  0  0  0  0  0  0
    5.0828   -9.1489    2.7950 C   0  0  0  0  0  0  0  0  0  0  0  0
    3.9746   -9.3070    5.0749 C   0  0  1  0  0  0  0  0  0  0  0  0
    5.1882   -9.9687    5.4057 O   0  0  0  0  0  0  0  0  0  0  0  0
    2.7327  -10.0501    5.8611 C   0  0  1  0  0  0  0  0  0  0  0  0
    3.1022  -11.4017    6.0360 O   0  0  0  0  0  0  0  0  0  0  0  0
    1.3852  -10.0576    5.2502 O   0  0  0  0  0  0  0  0  0  0  0  0
    0.8097  -10.1235    3.8269 C   0  0  0  0  0  0  0  0  0  0  0  0
    0.4136   -8.7315    3.1163 C   0  0  1  0  0  0  0  0  0  0  0  0
   -1.1359   -8.6557    3.1876 C   0  0  0  0  0  0  0  0  0  0  0  0
    0.9055   -8.0659    1.7187 C   0  0  0  0  0  0  0  0  0  0  0  0
    1.8302   -6.6911    1.7294 C   0  0  1  0  0  0  0  0  0  0  0  0
    1.0525   -5.6516    2.3194 O   0  0  0  0  0  0  0  0  0  0  0  0
    0.8521   -8.1816    7.3950 H   0  0  0  0  0  0  0  0  0  0  0  0
    1.2497   -8.9587    8.8996 H   0  0  0  0  0  0  0  0  0  0  0  0
    0.5246   -9.9003    7.6179 H   0  0  0  0  0  0  0  0  0  0  0  0
    2.9169  -10.2938    8.0016 H   0  0  0  0  0  0  0  0  0  0  0  0
    3.5662   -7.9968    8.6204 H   0  0  0  0  0  0  0  0  0  0  0  0
    4.7154   -8.9124    7.7200 H   0  0  0  0  0  0  0  0  0  0  0  0
    3.0041   -6.6333    6.7820 H   0  0  0  0  0  0  0  0  0  0  0  0
    4.6631   -6.6099    6.9993 H   0  0  0  0  0  0  0  0  0  0  0  0
    5.9194   -7.9132    4.3774 H   0  0  0  0  0  0  0  0  0  0  0  0
    3.8495   -7.4070    1.6559 H   0  0  0  0  0  0  0  0  0  0  0  0
    5.2735   -5.7723    1.6489 H   0  0  0  0  0  0  0  0  0  0  0  0
    3.9172   -5.2849    0.7083 H   0  0  0  0  0  0  0  0  0  0  0  0
    5.2256   -3.7356    2.4467 H   0  0  0  0  0  0  0  0  0  0  0  0
    2.4783   -3.2016    1.3931 H   0  0  0  0  0  0  0  0  0  0  0  0
    3.3934   -2.0185    2.2710 H   0  0  0  0  0  0  0  0  0  0  0  0
    5.1944   -1.8793    0.7354 H   0  0  0  0  0  0  0  0  0  0  0  0
    2.8782   -4.3926   -1.1080 H   0  0  0  0  0  0  0  0  0  0  0  0
    1.8198   -3.0293   -0.7826 H   0  0  0  0  0  0  0  0  0  0  0  0
    2.2555   -3.8979   -3.3443 H   0  0  0  0  0  0  0  0  0  0  0  0
    1.9931   -2.2094   -2.9571 H   0  0  0  0  0  0  0  0  0  0  0  0
    4.6404   -3.6349   -3.4095 H   0  0  0  0  0  0  0  0  0  0  0  0
    3.5324   -1.1450   -4.1394 H   0  0  0  0  0  0  0  0  0  0  0  0
    4.6210   -0.9576   -1.9956 H   0  0  0  0  0  0  0  0  0  0  0  0
    5.7963   -2.2818   -1.8829 H   0  0  0  0  0  0  0  0  0  0  0  0
    5.0120   -4.7793    5.7376 H   0  0  0  0  0  0  0  0  0  0  0  0
    5.7778   -3.5581    4.7406 H   0  0  0  0  0  0  0  0  0  0  0  0
    5.7835   -5.1876    4.1808 H   0  0  0  0  0  0  0  0  0  0  0  0
    3.1208   -3.0674    5.7087 H   0  0  0  0  0  0  0  0  0  0  0  0
    2.4197   -2.4998    4.2190 H   0  0  0  0  0  0  0  0  0  0  0  0
    4.0744   -2.1204    4.5771 H   0  0  0  0  0  0  0  0  0  0  0  0
    2.6353   -5.3103    5.2872 H   0  0  0  0  0  0  0  0  0  0  0  0
    1.4495   -3.9921    3.1956 H   0  0  0  0  0  0  0  0  0  0  0  0
   -0.8748   -6.0028    5.7158 H   0  0  0  0  0  0  0  0  0  0  0  0
   -1.0063   -6.3446    4.0120 H   0  0  0  0  0  0  0  0  0  0  0  0
    1.3811   -6.8446    5.7885 H   0  0  0  0  0  0  0  0  0  0  0  0
    2.7513   -8.6552    2.7034 H   0  0  0  0  0  0  0  0  0  0  0  0
    4.4485  -11.4339    2.9536 H   0  0  0  0  0  0  0  0  0  0  0  0
    3.0673  -10.8343    2.0906 H   0  0  0  0  0  0  0  0  0  0  0  0
    2.9380  -11.5700    3.6888 H   0  0  0  0  0  0  0  0  0  0  0  0
    5.9152   -9.8030    3.0680 H   0  0  0  0  0  0  0  0  0  0  0  0
    5.4860   -8.1407    2.8295 H   0  0  0  0  0  0  0  0  0  0  0  0
    4.9041   -9.3446    1.7346 H   0  0  0  0  0  0  0  0  0  0  0  0
    4.9560  -10.8871    5.4365 H   0  0  0  0  0  0  0  0  0  0  0  0
    2.4542  -11.8108    6.6174 H   0  0  0  0  0  0  0  0  0  0  0  0
    1.1292  -10.8830    3.1359 H   0  0  0  0  0  0  0  0  0  0  0  0
   -0.1365  -10.5956    4.0820 H   0  0  0  0  0  0  0  0  0  0  0  0
   -1.5787   -9.5208    2.6924 H   0  0  0  0  0  0  0  0  0  0  0  0
   -1.5537   -7.7976    2.6670 H   0  0  0  0  0  0  0  0  0  0  0  0
   -1.5087   -8.6662    4.2149 H   0  0  0  0  0  0  0  0  0  0  0  0
    1.4147   -8.8260    1.1356 H   0  0  0  0  0  0  0  0  0  0  0  0
    0.0271   -7.8521    1.1159 H   0  0  0  0  0  0  0  0  0  0  0  0
    1.8893   -6.4289    0.6746 H   0  0  0  0  0  0  0  0  0  0  0  0
  1  2  1  0
  1 43  1  0
  1 44  1  0
  1 45  1  0
  2 34  1  0
  2  3  1  0
  2 46  1  1
  3  4  1  0
  3 47  1  0
  3 48  1  0
  4  5  1  0
  4 49  1  0
  4 50  1  0
  5 32  1  0
  5  6  1  6
  7  5  1  1
  6 51  1  0
  7 22  1  0
  7 28  1  0
  7  8  1  0
  8 41  1  0
  8  9  1  0
  8 52  1  6
  9 10  1  0
  9 53  1  0
  9 54  1  0
 10 11  1  0
 10 19  1  0
 10 55  1  1
 11 12  1  0
 11 56  1  0
 11 57  1  0
 12 13  2  3
 12 58  1  0
 13 18  1  0
 13 14  1  0
 14 15  1  0
 14 59  1  0
 14 60  1  0
 15 16  1  0
 15 61  1  0
 15 62  1  0
 16 17  1  0
 16 18  1  0
 16 63  1  6
 17 64  1  0
 18 65  1  0
 18 66  1  0
 19 20  1  0
 19 21  1  0
 19 22  1  0
 20 67  1  0
 20 68  1  0
 20 69  1  0
 21 70  1  0
 21 71  1  0
 21 72  1  0
 22 23  1  0
 22 73  1  1
 23 42  1  0
 23 24  1  0
 23 74  1  6
 24 25  1  0
 25 26  1  0
 25 75  1  0
 25 76  1  0
 26 27  2  3
 26 77  1  0
 27 38  1  0
 27 28  1  0
 28 29  1  0
 28 78  1  6
 29 30  1  0
 29 31  1  0
 29 32  1  0
 30 79  1  0
 30 80  1  0
 30 81  1  0
 31 82  1  0
 31 83  1  0
 31 84  1  0
 32 33  1  6
 32 34  1  0
 33 85  1  0
 34 35  1  1
 34 36  1  0
 35 86  1  0
 36 37  1  0
 37 38  1  0
 37 87  1  0
 37 88  1  0
 38 39  1  1
 38 40  1  0
 39 89  1  0
 39 90  1  0
 39 91  1  0
 40 41  1  0
 40 92  1  0
 40 93  1  0
 41 42  1  0
 41 94  1  6
M  END
>  <i_m_ct_stereo_status>  (7) 
1

>  <s_m_source_file>  (7) 
/var/tmp/pbs.5076255.sched01/tmp7dv9smms/08akalw19.sdf

>  <i_m_source_file_index>  (7) 
3

>  <i_lp_mmshare_version>  (7) 
48012

>  <i_f3d_flags>  (7) 
0

>  <s_epik_input>  (7) 
W0NIMl0xW0NIMl1bQ0BASF0oW0NIM10pW0NAXShbT0hdKShbQ0BdMihbT0hdKVtDQF0xKFtDQF0zNDUpW09IXSlPW0NIMl1bQ0BAXTYoW0NIM10pQyhcW0NAQEhdNUMyKFtDSDNdKVtDSDNdKT1bQ0hdXFtDSDJdT1tDQEhdN1tDQEBIXTRDKFtDSDNdKShbQ0gzXSlbQ0BASF0oW0NIMl1bQ0BASF0zW0NASF0oTzcpW0NIMl02KVtDSDJdL1tDSF09QzhcW0NIMl1bQ0gyXVtDQEBIXShbT0hdKVtDSDJdOA==

>  <s_epik_cmdline>  (7) 
J2VwaWtfcHl0aG9uJywgJy1waHQnLCAnMi4wJywgJy1waCcsICc3LjAnLCAnLXRuJywgJzgnLCAnLW1hJywgJzIwMCcsICctaW1hZScsICc8aW5maWxlLm1hZT4nLCAnLW9tYWUnLCAnPG91dGZpbGUubWFlPic=

>  <r_lp_tautomer_probability>  (7) 
1

>  <r_epik_Ionization_Penalty>  (7) 
7.37587e-07

>  <r_epik_Ionization_Penalty_Charging>  (7) 
0

>  <r_epik_Ionization_Penalty_Neutral>  (7) 
7.37587e-07

>  <r_epik_State_Penalty>  (7) 
-0

>  <r_epik_Charging_Adjusted_Penalty>  (7) 
0

>  <i_epik_Tot_Q>  (7) 
0

>  <i_epik_Tot_abs_Q>  (7) 
0

>  <s_epik_Chemistry_Notes>  (7) 
This compound contains an acetal/aminal-like group ( X-CH(R)-Y where X, Y are N, S, or O) that may be acid/base labile, releasing an aldehyde.

>  <s_lp_Force_Field>  (7) 
OPLS3e

>  <r_lp_Energy>  (7) 
408.39

>  <b_lp_Chiralities_Consistent>  (7) 
1

>  <s_lp_Variant>  (7) 
0:0-3

>  <s_i_glide_gridfile>  (7) 
pfpi4k_grid

>  <i_i_glide_lignum>  (7) 
3

>  <i_i_glide_rotatable_bonds>  (7) 
6

>  <r_i_docking_score>  (7) 
-3.52009

>  <r_i_glide_ligand_efficiency>  (7) 
-0.0838116

>  <r_i_glide_ligand_efficiency_sa>  (7) 
-0.291331

>  <r_i_glide_ligand_efficiency_ln>  (7) 
-0.743

>  <r_i_glide_gscore>  (7) 
-3.52009

>  <r_i_glide_lipo>  (7) 
-0.274091

>  <r_i_glide_hbond>  (7) 
-0.354344

>  <r_i_glide_metal>  (7) 
-0

>  <r_i_glide_rewards>  (7) 
0

>  <r_i_glide_evdw>  (7) 
-26.4227

>  <r_i_glide_ecoul>  (7) 
-10.1191

>  <r_i_glide_erotb>  (7) 
0.0186197

>  <r_i_glide_esite>  (7) 
-0.0712637

>  <r_i_glide_emodel>  (7) 
-43.5716

>  <r_i_glide_energy>  (7) 
-36.5419

>  <r_i_glide_einternal>  (7) 
1.37063

>  <r_i_glide_intrahb_reward>  (7) 
-0

>  <i_i_glide_confnum>  (7) 
6

>  <i_i_glide_posenum>  (7) 
9

>  <r_i_glide_eff_state_penalty>  (7) 
0

>  <ligand_id>  (7) 
0

>  <original_smiles>  (7) 
CC1CCC2(O)C34C5CC(CC=C6CCC(O)C6)C(C)(C)C3C3OCC=C6C4C(C)(C)C2(O)C1(O)OCC6(C)CC5O3

>  <smiles>  (7) 
[H]OC1([H])C([H])([H])C(=C([H])C([H])([H])C2([H])C([H])([H])C3([H])C4([H])OC5([H])OC([H])([H])C([H])=C6C7([H])C(C([H])([H])[H])(C([H])([H])[H])C8(O[H])C(O[H])(OC([H])([H])C6(C([H])([H])[H])C4([H])[H])C([H])(C([H])([H])[H])C([H])([H])C([H])([H])C8(O[H])C73C5([H])C2(C([H])([H])[H])C([H])([H])[H])C([H])([H])C1([H])[H]

$$$$
0:2:1
     RDKit          3D

 94101  0  0  1  0  0  0  0  0999 V2000
    0.5284   -9.3607    7.7925 C   0  0  0  0  0  0  0  0  0  0  0  0
    2.0717   -9.3062    7.8242 C   0  0  2  0  0  0  0  0  0  0  0  0
    2.6547   -7.9437    8.2961 C   0  0  0  0  0  0  0  0  0  0  0  0
    2.7848   -6.8545    7.2128 C   0  0  0  0  0  0  0  0  0  0  0  0
    3.6791   -7.2309    5.9670 C   0  0  2  0  0  0  0  0  0  0  0  0
    4.8624   -6.5104    6.2945 O   0  0  0  0  0  0  0  0  0  0  0  0
    3.2132   -6.7462    4.4254 C   0  0  2  0  0  0  0  0  0  0  0  0
    3.6760   -6.6280    2.8761 C   0  0  2  0  0  0  0  0  0  0  0  0
    4.2674   -5.2554    2.4468 C   0  0  0  0  0  0  0  0  0  0  0  0
    3.6162   -3.9330    2.9333 C   0  0  1  0  0  0  0  0  0  0  0  0
    2.9366   -3.0820    1.8247 C   0  0  0  0  0  0  0  0  0  0  0  0
    3.8844   -2.6335    0.7305 C   0  0  0  0  0  0  0  0  0  0  0  0
    3.6589   -2.8048   -0.5921 C   0  0  0  0  0  0  0  0  0  0  0  0
    2.4474   -3.4772   -1.1893 C   0  0  0  0  0  0  0  0  0  0  0  0
    2.5322   -3.2271   -2.6969 C   0  0  0  0  0  0  0  0  0  0  0  0
    4.0152   -2.9886   -2.9708 C   0  0  1  0  0  0  0  0  0  0  0  0
    4.1853   -2.1630   -4.1046 O   0  0  0  0  0  0  0  0  0  0  0  0
    4.5774   -2.3395   -1.6937 C   0  0  0  0  0  0  0  0  0  0  0  0
    2.8145   -4.1103    4.2622 C   0  0  0  0  0  0  0  0  0  0  0  0
    3.8296   -3.8851    5.4021 C   0  0  0  0  0  0  0  0  0  0  0  0
    1.7676   -2.9907    4.5299 C   0  0  0  0  0  0  0  0  0  0  0  0
    2.1578   -5.5423    4.3628 C   0  0  1  0  0  0  0  0  0  0  0  0
    1.0422   -5.6504    3.2407 C   0  0  2  0  0  0  0  0  0  0  0  0
   -0.2207   -5.8716    3.8105 O   0  0  0  0  0  0  0  0  0  0  0  0
   -0.6277   -7.2050    4.0471 C   0  0  0  0  0  0  0  0  0  0  0  0
    0.5186   -7.8791    4.7421 C   0  0  0  0  0  0  0  0  0  0  0  0
    1.5052   -8.5148    4.1050 C   0  0  0  0  0  0  0  0  0  0  0  0
    3.0425   -8.2399    4.2355 C   0  0  2  0  0  0  0  0  0  0  0  0
    4.3183   -9.0830    4.7118 C   0  0  0  0  0  0  0  0  0  0  0  0
    4.6917  -10.5639    4.3116 C   0  0  0  0  0  0  0  0  0  0  0  0
    5.7130   -8.4451    4.2807 C   0  0  0  0  0  0  0  0  0  0  0  0
    3.9838   -8.8368    6.0942 C   0  0  1  0  0  0  0  0  0  0  0  0
    5.1446   -9.0693    6.8786 O   0  0  0  0  0  0  0  0  0  0  0  0
    2.7981   -9.8798    6.5468 C   0  0  1  0  0  0  0  0  0  0  0  0
    3.4277  -11.0512    7.0024 O   0  0  0  0  0  0  0  0  0  0  0  0
    1.8007  -10.3280    5.5561 O   0  0  0  0  0  0  0  0  0  0  0  0
    1.7923  -10.6582    4.0582 C   0  0  0  0  0  0  0  0  0  0  0  0
    1.3053   -9.4991    3.0564 C   0  0  1  0  0  0  0  0  0  0  0  0
   -0.1354   -9.9004    2.6344 C   0  0  0  0  0  0  0  0  0  0  0  0
    2.0485   -8.7833    1.8004 C   0  0  0  0  0  0  0  0  0  0  0  0
    2.4792   -7.1851    1.9023 C   0  0  1  0  0  0  0  0  0  0  0  0
    1.3039   -6.3890    2.0575 O   0  0  0  0  0  0  0  0  0  0  0  0
    0.0716   -8.6269    7.1411 H   0  0  0  0  0  0  0  0  0  0  0  0
    0.1327   -9.1763    8.7891 H   0  0  0  0  0  0  0  0  0  0  0  0
    0.1632  -10.3401    7.4883 H   0  0  0  0  0  0  0  0  0  0  0  0
    2.3106   -9.9835    8.6491 H   0  0  0  0  0  0  0  0  0  0  0  0
    2.0354   -7.5632    9.1037 H   0  0  0  0  0  0  0  0  0  0  0  0
    3.6303   -8.1138    8.7556 H   0  0  0  0  0  0  0  0  0  0  0  0
    1.7795   -6.5326    6.9982 H   0  0  0  0  0  0  0  0  0  0  0  0
    3.1844   -5.9784    7.7179 H   0  0  0  0  0  0  0  0  0  0  0  0
    5.5750   -6.9176    5.8258 H   0  0  0  0  0  0  0  0  0  0  0  0
    4.5115   -7.2382    2.5625 H   0  0  0  0  0  0  0  0  0  0  0  0
    5.3333   -5.2430    2.7373 H   0  0  0  0  0  0  0  0  0  0  0  0
    4.2741   -5.2499    1.3659 H   0  0  0  0  0  0  0  0  0  0  0  0
    4.4597   -3.2986    3.1800 H   0  0  0  0  0  0  0  0  0  0  0  0
    2.0855   -3.6013    1.4034 H   0  0  0  0  0  0  0  0  0  0  0  0
    2.5573   -2.1470    2.2369 H   0  0  0  0  0  0  0  0  0  0  0  0
    4.7719   -2.1061    1.0465 H   0  0  0  0  0  0  0  0  0  0  0  0
    2.4799   -4.5372   -0.9532 H   0  0  0  0  0  0  0  0  0  0  0  0
    1.5246   -3.0718   -0.7919 H   0  0  0  0  0  0  0  0  0  0  0  0
    2.1331   -4.0525   -3.2860 H   0  0  0  0  0  0  0  0  0  0  0  0
    1.9438   -2.3424   -2.9410 H   0  0  0  0  0  0  0  0  0  0  0  0
    4.5089   -3.9491   -3.1241 H   0  0  0  0  0  0  0  0  0  0  0  0
    3.6814   -1.3774   -3.9593 H   0  0  0  0  0  0  0  0  0  0  0  0
    4.5409   -1.2493   -1.7431 H   0  0  0  0  0  0  0  0  0  0  0  0
    5.6037   -2.6521   -1.5029 H   0  0  0  0  0  0  0  0  0  0  0  0
    3.4215   -4.1874    6.3684 H   0  0  0  0  0  0  0  0  0  0  0  0
    4.1185   -2.8345    5.4962 H   0  0  0  0  0  0  0  0  0  0  0  0
    4.7626   -4.4101    5.2138 H   0  0  0  0  0  0  0  0  0  0  0  0
    1.2476   -3.1566    5.4740 H   0  0  0  0  0  0  0  0  0  0  0  0
    1.0022   -2.8921    3.7689 H   0  0  0  0  0  0  0  0  0  0  0  0
    2.2404   -2.0086    4.5905 H   0  0  0  0  0  0  0  0  0  0  0  0
    1.6118   -5.4574    5.2901 H   0  0  0  0  0  0  0  0  0  0  0  0
    0.8707   -4.6795    2.8102 H   0  0  0  0  0  0  0  0  0  0  0  0
   -1.4975   -7.1906    4.6962 H   0  0  0  0  0  0  0  0  0  0  0  0
   -0.9387   -7.6241    3.1036 H   0  0  0  0  0  0  0  0  0  0  0  0
    0.7220   -7.2962    5.5979 H   0  0  0  0  0  0  0  0  0  0  0  0
    3.5235   -8.7137    3.3937 H   0  0  0  0  0  0  0  0  0  0  0  0
    5.7268  -10.8039    4.5732 H   0  0  0  0  0  0  0  0  0  0  0  0
    4.6241  -10.7070    3.2306 H   0  0  0  0  0  0  0  0  0  0  0  0
    4.1567  -11.3731    4.7918 H   0  0  0  0  0  0  0  0  0  0  0  0
    6.5498   -8.7937    4.8935 H   0  0  0  0  0  0  0  0  0  0  0  0
    5.7806   -7.3606    4.2915 H   0  0  0  0  0  0  0  0  0  0  0  0
    5.9719   -8.7313    3.2579 H   0  0  0  0  0  0  0  0  0  0  0  0
    5.1975  -10.0147    6.9549 H   0  0  0  0  0  0  0  0  0  0  0  0
    2.7304  -11.6494    7.2743 H   0  0  0  0  0  0  0  0  0  0  0  0
    2.5258  -11.3133    3.6276 H   0  0  0  0  0  0  0  0  0  0  0  0
    0.9884  -11.3881    4.0839 H   0  0  0  0  0  0  0  0  0  0  0  0
   -0.1306  -10.8778    2.1486 H   0  0  0  0  0  0  0  0  0  0  0  0
   -0.5747   -9.2310    1.8974 H   0  0  0  0  0  0  0  0  0  0  0  0
   -0.8211   -9.9768    3.4845 H   0  0  0  0  0  0  0  0  0  0  0  0
    2.9107   -9.3892    1.5218 H   0  0  0  0  0  0  0  0  0  0  0  0
    1.4257   -8.8560    0.9233 H   0  0  0  0  0  0  0  0  0  0  0  0
    2.8151   -6.9701    0.8920 H   0  0  0  0  0  0  0  0  0  0  0  0
  1  2  1  0
  1 43  1  0
  1 44  1  0
  1 45  1  0
  2 34  1  0
  2  3  1  0
  2 46  1  1
  3  4  1  0
  3 47  1  0
  3 48  1  0
  4  5  1  0
  4 49  1  0
  4 50  1  0
  5 32  1  0
  5  6  1  1
  7  5  1  1
  6 51  1  0
  7 22  1  0
  7 28  1  0
  7  8  1  0
  8 41  1  0
  8  9  1  0
  8 52  1  1
  9 10  1  0
  9 53  1  0
  9 54  1  0
 10 11  1  0
 10 19  1  0
 10 55  1  1
 11 12  1  0
 11 56  1  0
 11 57  1  0
 12 13  2  3
 12 58  1  0
 13 18  1  0
 13 14  1  0
 14 15  1  0
 14 59  1  0
 14 60  1  0
 15 16  1  0
 15 61  1  0
 15 62  1  0
 16 17  1  0
 16 18  1  0
 16 63  1  6
 17 64  1  0
 18 65  1  0
 18 66  1  0
 19 20  1  0
 19 21  1  0
 19 22  1  0
 20 67  1  0
 20 68  1  0
 20 69  1  0
 21 70  1  0
 21 71  1  0
 21 72  1  0
 22 23  1  0
 22 73  1  1
 23 42  1  0
 23 24  1  0
 23 74  1  6
 24 25  1  0
 25 26  1  0
 25 75  1  0
 25 76  1  0
 26 27  2  3
 26 77  1  0
 27 38  1  0
 27 28  1  0
 28 29  1  0
 28 78  1  6
 29 30  1  0
 29 31  1  0
 29 32  1  0
 30 79  1  0
 30 80  1  0
 30 81  1  0
 31 82  1  0
 31 83  1  0
 31 84  1  0
 32 33  1  1
 32 34  1  0
 33 85  1  0
 34 35  1  1
 34 36  1  0
 35 86  1  0
 36 37  1  0
 37 38  1  0
 37 87  1  0
 37 88  1  0
 38 39  1  6
 38 40  1  0
 39 89  1  0
 39 90  1  0
 39 91  1  0
 40 41  1  0
 40 92  1  0
 40 93  1  0
 41 42  1  0
 41 94  1  6
M  END
>  <i_m_ct_stereo_status>  (8) 
1

>  <s_m_source_file>  (8) 
/var/tmp/pbs.5076255.sched01/tmp7dv9smms/08akalw19.sdf

>  <i_m_source_file_index>  (8) 
3

>  <i_lp_mmshare_version>  (8) 
48012

>  <i_f3d_flags>  (8) 
0

>  <s_epik_input>  (8) 
W0NIMl0xW0NIMl1bQ0BASF0oW0NIM10pW0NAXShbT0hdKShbQ0BdMihbT0hdKVtDQF0xKFtDQF0zNDUpW09IXSlPW0NIMl1bQ0BAXTYoW0NIM10pQyhcW0NAQEhdNUMyKFtDSDNdKVtDSDNdKT1bQ0hdXFtDSDJdT1tDQEhdN1tDQEBIXTRDKFtDSDNdKShbQ0gzXSlbQ0BASF0oW0NIMl1bQ0BASF0zW0NASF0oTzcpW0NIMl02KVtDSDJdL1tDSF09QzhcW0NIMl1bQ0gyXVtDQEBIXShbT0hdKVtDSDJdOA==

>  <s_epik_cmdline>  (8) 
J2VwaWtfcHl0aG9uJywgJy1waHQnLCAnMi4wJywgJy1waCcsICc3LjAnLCAnLXRuJywgJzgnLCAnLW1hJywgJzIwMCcsICctaW1hZScsICc8aW5maWxlLm1hZT4nLCAnLW9tYWUnLCAnPG91dGZpbGUubWFlPic=

>  <r_lp_tautomer_probability>  (8) 
1

>  <r_epik_Ionization_Penalty>  (8) 
7.37587e-07

>  <r_epik_Ionization_Penalty_Charging>  (8) 
0

>  <r_epik_Ionization_Penalty_Neutral>  (8) 
7.37587e-07

>  <r_epik_State_Penalty>  (8) 
-0

>  <r_epik_Charging_Adjusted_Penalty>  (8) 
0

>  <i_epik_Tot_Q>  (8) 
0

>  <i_epik_Tot_abs_Q>  (8) 
0

>  <s_epik_Chemistry_Notes>  (8) 
This compound contains an acetal/aminal-like group ( X-CH(R)-Y where X, Y are N, S, or O) that may be acid/base labile, releasing an aldehyde.

>  <s_lp_Force_Field>  (8) 
OPLS3e

>  <r_lp_Energy>  (8) 
408.39

>  <b_lp_Chiralities_Consistent>  (8) 
1

>  <s_lp_Variant>  (8) 
0:0-3

>  <s_i_glide_gridfile>  (8) 
pfpi4k_grid

>  <i_i_glide_lignum>  (8) 
3

>  <i_i_glide_rotatable_bonds>  (8) 
6

>  <r_i_docking_score>  (8) 
-3.42185

>  <r_i_glide_ligand_efficiency>  (8) 
-0.0814727

>  <r_i_glide_ligand_efficiency_sa>  (8) 
-0.283201

>  <r_i_glide_ligand_efficiency_ln>  (8) 
-0.722265

>  <r_i_glide_gscore>  (8) 
-3.42185

>  <r_i_glide_lipo>  (8) 
-0.204955

>  <r_i_glide_hbond>  (8) 
-0.353207

>  <r_i_glide_metal>  (8) 
-0

>  <r_i_glide_rewards>  (8) 
0

>  <r_i_glide_evdw>  (8) 
-22.7403

>  <r_i_glide_ecoul>  (8) 
-10.9342

>  <r_i_glide_erotb>  (8) 
0.0186197

>  <r_i_glide_esite>  (8) 
-0.105171

>  <r_i_glide_emodel>  (8) 
-41.1806

>  <r_i_glide_energy>  (8) 
-33.6745

>  <r_i_glide_einternal>  (8) 
0.469335

>  <r_i_glide_intrahb_reward>  (8) 
-0

>  <i_i_glide_confnum>  (8) 
6

>  <i_i_glide_posenum>  (8) 
20

>  <r_i_glide_eff_state_penalty>  (8) 
0

>  <ligand_id>  (8) 
0

>  <original_smiles>  (8) 
CC1CCC2(O)C34C5CC(CC=C6CCC(O)C6)C(C)(C)C3C3OCC=C6C4C(C)(C)C2(O)C1(O)OCC6(C)CC5O3

>  <smiles>  (8) 
[H]OC1([H])C([H])([H])C(=C([H])C([H])([H])C2([H])C([H])([H])C3([H])C4([H])OC5([H])OC([H])([H])C([H])=C6C7([H])C(C([H])([H])[H])(C([H])([H])[H])C8(O[H])C(O[H])(OC([H])([H])C6(C([H])([H])[H])C4([H])[H])C([H])(C([H])([H])[H])C([H])([H])C([H])([H])C8(O[H])C73C5([H])C2(C([H])([H])[H])C([H])([H])[H])C([H])([H])C1([H])[H]

$$$$
0:2:2
     RDKit          3D

 94101  0  0  1  0  0  0  0  0999 V2000
   -0.1861   -9.6722    6.6646 C   0  0  0  0  0  0  0  0  0  0  0  0
    0.9657   -9.1306    7.5276 C   0  0  2  0  0  0  0  0  0  0  0  0
    0.7156   -7.7254    8.1366 C   0  0  0  0  0  0  0  0  0  0  0  0
    1.0387   -6.5242    7.2221 C   0  0  0  0  0  0  0  0  0  0  0  0
    2.5285   -6.4445    6.6970 C   0  0  2  0  0  0  0  0  0  0  0  0
    3.0303   -5.4449    7.5740 O   0  0  0  0  0  0  0  0  0  0  0  0
    2.8247   -5.9511    5.1099 C   0  0  2  0  0  0  0  0  0  0  0  0
    3.9810   -5.5148    4.0620 C   0  0  2  0  0  0  0  0  0  0  0  0
    4.2277   -3.9885    3.9208 C   0  0  0  0  0  0  0  0  0  0  0  0
    3.0280   -2.9976    3.8751 C   0  0  1  0  0  0  0  0  0  0  0  0
    2.7973   -2.2419    2.5330 C   0  0  0  0  0  0  0  0  0  0  0  0
    4.0674   -1.8051    1.8231 C   0  0  0  0  0  0  0  0  0  0  0  0
    4.3800   -2.1355    0.5581 C   0  0  0  0  0  0  0  0  0  0  0  0
    3.5133   -2.9542   -0.3801 C   0  0  0  0  0  0  0  0  0  0  0  0
    4.3863   -3.2465   -1.6008 C   0  0  0  0  0  0  0  0  0  0  0  0
    5.4701   -2.1569   -1.6053 C   0  0  1  0  0  0  0  0  0  0  0  0
    5.0017   -1.0394   -2.3238 O   0  0  0  0  0  0  0  0  0  0  0  0
    5.6656   -1.7544   -0.1360 C   0  0  0  0  0  0  0  0  0  0  0  0
    1.7469   -3.5686    4.5685 C   0  0  0  0  0  0  0  0  0  0  0  0
    1.8497   -3.1792    6.0602 C   0  0  0  0  0  0  0  0  0  0  0  0
    0.4311   -2.8610    4.1317 C   0  0  0  0  0  0  0  0  0  0  0  0
    1.6378   -5.1402    4.3901 C   0  0  1  0  0  0  0  0  0  0  0  0
    1.4147   -5.4693    2.8373 C   0  0  2  0  0  0  0  0  0  0  0  0
    0.2009   -6.1443    2.6017 O   0  0  0  0  0  0  0  0  0  0  0  0
    0.1918   -7.5567    2.7251 C   0  0  0  0  0  0  0  0  0  0  0  0
    0.9278   -7.8976    3.9893 C   0  0  0  0  0  0  0  0  0  0  0  0
    2.2533   -8.1185    4.0515 C   0  0  0  0  0  0  0  0  0  0  0  0
    3.2822   -7.3902    4.9779 C   0  0  2  0  0  0  0  0  0  0  0  0
    4.3156   -7.8320    6.1344 C   0  0  0  0  0  0  0  0  0  0  0  0
    5.2986   -9.0619    6.1120 C   0  0  0  0  0  0  0  0  0  0  0  0
    5.4169   -6.7357    6.4872 C   0  0  0  0  0  0  0  0  0  0  0  0
    3.2293   -7.8738    7.0888 C   0  0  1  0  0  0  0  0  0  0  0  0
    3.7767   -7.8361    8.4050 O   0  0  0  0  0  0  0  0  0  0  0  0
    2.4084   -9.2932    6.9075 C   0  0  1  0  0  0  0  0  0  0  0  0
    3.0256  -10.2526    7.7377 O   0  0  0  0  0  0  0  0  0  0  0  0
    2.3193   -9.9262    5.5724 O   0  0  0  0  0  0  0  0  0  0  0  0
    3.2072  -10.0400    4.3347 C   0  0  0  0  0  0  0  0  0  0  0  0
    2.9775   -8.9807    3.1378 C   0  0  1  0  0  0  0  0  0  0  0  0
    2.2220   -9.7615    2.0264 C   0  0  0  0  0  0  0  0  0  0  0  0
    3.9895   -7.9223    2.4277 C   0  0  0  0  0  0  0  0  0  0  0  0
    3.7579   -6.2915    2.6358 C   0  0  1  0  0  0  0  0  0  0  0  0
    2.5053   -5.9240    2.0607 O   0  0  0  0  0  0  0  0  0  0  0  0
   -0.4366   -9.0519    5.8117 H   0  0  0  0  0  0  0  0  0  0  0  0
   -1.0937   -9.7395    7.2635 H   0  0  0  0  0  0  0  0  0  0  0  0
    0.0188  -10.6801    6.3024 H   0  0  0  0  0  0  0  0  0  0  0  0
    0.9176   -9.7896    8.4012 H   0  0  0  0  0  0  0  0  0  0  0  0
   -0.3281   -7.6605    8.4440 H   0  0  0  0  0  0  0  0  0  0  0  0
    1.2801   -7.6299    9.0649 H   0  0  0  0  0  0  0  0  0  0  0  0
    0.2714   -6.5180    6.4721 H   0  0  0  0  0  0  0  0  0  0  0  0
    0.7797   -5.6308    7.7894 H   0  0  0  0  0  0  0  0  0  0  0  0
    3.9744   -5.5095    7.5698 H   0  0  0  0  0  0  0  0  0  0  0  0
    5.0008   -5.7859    4.3170 H   0  0  0  0  0  0  0  0  0  0  0  0
    4.8723   -3.6824    4.7483 H   0  0  0  0  0  0  0  0  0  0  0  0
    4.8592   -3.8716    3.0450 H   0  0  0  0  0  0  0  0  0  0  0  0
    3.3719   -2.1659    4.4950 H   0  0  0  0  0  0  0  0  0  0  0  0
    2.1982   -2.8115    1.8340 H   0  0  0  0  0  0  0  0  0  0  0  0
    2.2160   -1.3383    2.7258 H   0  0  0  0  0  0  0  0  0  0  0  0
    4.7577   -1.2044    2.4000 H   0  0  0  0  0  0  0  0  0  0  0  0
    3.1607   -3.8768    0.0818 H   0  0  0  0  0  0  0  0  0  0  0  0
    2.6472   -2.3527   -0.6632 H   0  0  0  0  0  0  0  0  0  0  0  0
    4.8552   -4.2236   -1.4754 H   0  0  0  0  0  0  0  0  0  0  0  0
    3.8079   -3.2899   -2.5260 H   0  0  0  0  0  0  0  0  0  0  0  0
    6.3976   -2.5127   -2.0603 H   0  0  0  0  0  0  0  0  0  0  0  0
    4.1682   -0.7803   -1.9493 H   0  0  0  0  0  0  0  0  0  0  0  0
    5.8958   -0.6947   -0.0017 H   0  0  0  0  0  0  0  0  0  0  0  0
    6.4716   -2.3414    0.3084 H   0  0  0  0  0  0  0  0  0  0  0  0
    1.1139   -3.7092    6.6648 H   0  0  0  0  0  0  0  0  0  0  0  0
    1.6784   -2.1133    6.2222 H   0  0  0  0  0  0  0  0  0  0  0  0
    2.8482   -3.3600    6.4525 H   0  0  0  0  0  0  0  0  0  0  0  0
   -0.4274   -3.2944    4.6423 H   0  0  0  0  0  0  0  0  0  0  0  0
    0.2240   -2.9155    3.0682 H   0  0  0  0  0  0  0  0  0  0  0  0
    0.4432   -1.7965    4.3683 H   0  0  0  0  0  0  0  0  0  0  0  0
    0.6863   -5.3448    4.8617 H   0  0  0  0  0  0  0  0  0  0  0  0
    1.2060   -4.5573    2.3104 H   0  0  0  0  0  0  0  0  0  0  0  0
   -0.8412   -7.8957    2.7951 H   0  0  0  0  0  0  0  0  0  0  0  0
    0.5944   -7.9454    1.8042 H   0  0  0  0  0  0  0  0  0  0  0  0
    0.4430   -7.3833    4.7702 H   0  0  0  0  0  0  0  0  0  0  0  0
    4.2541   -7.5915    4.5656 H   0  0  0  0  0  0  0  0  0  0  0  0
    6.0443   -8.9982    6.9085 H   0  0  0  0  0  0  0  0  0  0  0  0
    5.8700   -9.0881    5.1822 H   0  0  0  0  0  0  0  0  0  0  0  0
    4.8819  -10.0469    6.2867 H   0  0  0  0  0  0  0  0  0  0  0  0
    5.8504   -6.8770    7.4812 H   0  0  0  0  0  0  0  0  0  0  0  0
    5.1016   -5.6960    6.4552 H   0  0  0  0  0  0  0  0  0  0  0  0
    6.2604   -6.7965    5.7957 H   0  0  0  0  0  0  0  0  0  0  0  0
    4.1218   -8.7049    8.5621 H   0  0  0  0  0  0  0  0  0  0  0  0
    2.4629  -11.0330    7.7041 H   0  0  0  0  0  0  0  0  0  0  0  0
    4.2328  -10.3634    4.4109 H   0  0  0  0  0  0  0  0  0  0  0  0
    2.8179  -10.9863    3.9632 H   0  0  0  0  0  0  0  0  0  0  0  0
    2.8162  -10.6191    1.7079 H   0  0  0  0  0  0  0  0  0  0  0  0
    2.0703   -9.1820    1.1164 H   0  0  0  0  0  0  0  0  0  0  0  0
    1.2569  -10.1519    2.3615 H   0  0  0  0  0  0  0  0  0  0  0  0
    5.0113   -8.1805    2.7019 H   0  0  0  0  0  0  0  0  0  0  0  0
    3.9868   -8.1117    1.3544 H   0  0  0  0  0  0  0  0  0  0  0  0
    4.4907   -5.8573    1.9530 H   0  0  0  0  0  0  0  0  0  0  0  0
  1  2  1  0
  1 43  1  0
  1 44  1  0
  1 45  1  0
  2 34  1  0
  2  3  1  0
  2 46  1  1
  3  4  1  0
  3 47  1  0
  3 48  1  0
  4  5  1  0
  4 49  1  0
  4 50  1  0
  5 32  1  0
  5  6  1  1
  7  5  1  1
  6 51  1  0
  7 22  1  0
  7 28  1  0
  7  8  1  0
  8 41  1  0
  8  9  1  0
  8 52  1  1
  9 10  1  0
  9 53  1  0
  9 54  1  0
 10 11  1  0
 10 19  1  0
 10 55  1  1
 11 12  1  0
 11 56  1  0
 11 57  1  0
 12 13  2  3
 12 58  1  0
 13 18  1  0
 13 14  1  0
 14 15  1  0
 14 59  1  0
 14 60  1  0
 15 16  1  0
 15 61  1  0
 15 62  1  0
 16 17  1  0
 16 18  1  0
 16 63  1  6
 17 64  1  0
 18 65  1  0
 18 66  1  0
 19 20  1  0
 19 21  1  0
 19 22  1  0
 20 67  1  0
 20 68  1  0
 20 69  1  0
 21 70  1  0
 21 71  1  0
 21 72  1  0
 22 23  1  0
 22 73  1  1
 23 42  1  0
 23 24  1  0
 23 74  1  6
 24 25  1  0
 25 26  1  0
 25 75  1  0
 25 76  1  0
 26 27  2  3
 26 77  1  0
 27 38  1  0
 27 28  1  0
 28 29  1  0
 28 78  1  6
 29 30  1  0
 29 31  1  0
 29 32  1  0
 30 79  1  0
 30 80  1  0
 30 81  1  0
 31 82  1  0
 31 83  1  0
 31 84  1  0
 32 33  1  1
 32 34  1  0
 33 85  1  0
 34 35  1  1
 34 36  1  0
 35 86  1  0
 36 37  1  0
 37 38  1  0
 37 87  1  0
 37 88  1  0
 38 39  1  6
 38 40  1  0
 39 89  1  0
 39 90  1  0
 39 91  1  0
 40 41  1  0
 40 92  1  0
 40 93  1  0
 41 42  1  0
 41 94  1  6
M  END
>  <i_m_ct_stereo_status>  (9) 
1

>  <s_m_source_file>  (9) 
/var/tmp/pbs.5076255.sched01/tmp7dv9smms/08akalw19.sdf

>  <i_m_source_file_index>  (9) 
3

>  <i_lp_mmshare_version>  (9) 
48012

>  <i_f3d_flags>  (9) 
0

>  <s_epik_input>  (9) 
W0NIMl0xW0NIMl1bQ0BASF0oW0NIM10pW0NAXShbT0hdKShbQ0BdMihbT0hdKVtDQF0xKFtDQF0zNDUpW09IXSlPW0NIMl1bQ0BAXTYoW0NIM10pQyhcW0NAQEhdNUMyKFtDSDNdKVtDSDNdKT1bQ0hdXFtDSDJdT1tDQEhdN1tDQEBIXTRDKFtDSDNdKShbQ0gzXSlbQ0BASF0oW0NIMl1bQ0BASF0zW0NASF0oTzcpW0NIMl02KVtDSDJdL1tDSF09QzhcW0NIMl1bQ0gyXVtDQEBIXShbT0hdKVtDSDJdOA==

>  <s_epik_cmdline>  (9) 
J2VwaWtfcHl0aG9uJywgJy1waHQnLCAnMi4wJywgJy1waCcsICc3LjAnLCAnLXRuJywgJzgnLCAnLW1hJywgJzIwMCcsICctaW1hZScsICc8aW5maWxlLm1hZT4nLCAnLW9tYWUnLCAnPG91dGZpbGUubWFlPic=

>  <r_lp_tautomer_probability>  (9) 
1

>  <r_epik_Ionization_Penalty>  (9) 
7.37587e-07

>  <r_epik_Ionization_Penalty_Charging>  (9) 
0

>  <r_epik_Ionization_Penalty_Neutral>  (9) 
7.37587e-07

>  <r_epik_State_Penalty>  (9) 
-0

>  <r_epik_Charging_Adjusted_Penalty>  (9) 
0

>  <i_epik_Tot_Q>  (9) 
0

>  <i_epik_Tot_abs_Q>  (9) 
0

>  <s_epik_Chemistry_Notes>  (9) 
This compound contains an acetal/aminal-like group ( X-CH(R)-Y where X, Y are N, S, or O) that may be acid/base labile, releasing an aldehyde.

>  <s_lp_Force_Field>  (9) 
OPLS3e

>  <r_lp_Energy>  (9) 
408.39

>  <b_lp_Chiralities_Consistent>  (9) 
1

>  <s_lp_Variant>  (9) 
0:0-3

>  <s_i_glide_gridfile>  (9) 
pfpi4k_grid

>  <i_i_glide_lignum>  (9) 
3

>  <i_i_glide_rotatable_bonds>  (9) 
6

>  <r_i_docking_score>  (9) 
-2.72976

>  <r_i_glide_ligand_efficiency>  (9) 
-0.0649942

>  <r_i_glide_ligand_efficiency_sa>  (9) 
-0.225922

>  <r_i_glide_ligand_efficiency_ln>  (9) 
-0.576181

>  <r_i_glide_gscore>  (9) 
-2.72976

>  <r_i_glide_lipo>  (9) 
-0.0958243

>  <r_i_glide_hbond>  (9) 
-0.138511

>  <r_i_glide_metal>  (9) 
-0

>  <r_i_glide_rewards>  (9) 
0

>  <r_i_glide_evdw>  (9) 
-23.3397

>  <r_i_glide_ecoul>  (9) 
-8.39763

>  <r_i_glide_erotb>  (9) 
0.0186197

>  <r_i_glide_esite>  (9) 
-0.0874134

>  <r_i_glide_emodel>  (9) 
-37.4439

>  <r_i_glide_energy>  (9) 
-31.7373

>  <r_i_glide_einternal>  (9) 
1.5341

>  <r_i_glide_intrahb_reward>  (9) 
-0

>  <i_i_glide_confnum>  (9) 
1

>  <i_i_glide_posenum>  (9) 
24

>  <r_i_glide_eff_state_penalty>  (9) 
0

>  <ligand_id>  (9) 
0

>  <original_smiles>  (9) 
CC1CCC2(O)C34C5CC(CC=C6CCC(O)C6)C(C)(C)C3C3OCC=C6C4C(C)(C)C2(O)C1(O)OCC6(C)CC5O3

>  <smiles>  (9) 
[H]OC1([H])C([H])([H])C(=C([H])C([H])([H])C2([H])C([H])([H])C3([H])C4([H])OC5([H])OC([H])([H])C([H])=C6C7([H])C(C([H])([H])[H])(C([H])([H])[H])C8(O[H])C(O[H])(OC([H])([H])C6(C([H])([H])[H])C4([H])[H])C([H])(C([H])([H])[H])C([H])([H])C([H])([H])C8(O[H])C73C5([H])C2(C([H])([H])[H])C([H])([H])[H])C([H])([H])C1([H])[H]

$$$$
0:3:0
     RDKit          3D

 94101  0  0  1  0  0  0  0  0999 V2000
    1.7907   -8.8151    7.9271 C   0  0  0  0  0  0  0  0  0  0  0  0
    3.1305   -9.2183    7.2748 C   0  0  2  0  0  0  0  0  0  0  0  0
    4.2353   -8.1212    7.3444 C   0  0  0  0  0  0  0  0  0  0  0  0
    4.1954   -7.0451    6.2422 C   0  0  0  0  0  0  0  0  0  0  0  0
    4.2870   -7.5800    4.7609 C   0  0  2  0  0  0  0  0  0  0  0  0
    5.6511   -7.2729    4.4867 O   0  0  0  0  0  0  0  0  0  0  0  0
    3.3574   -6.8641    3.5550 C   0  0  2  0  0  0  0  0  0  0  0  0
    3.1069   -6.7725    1.9548 C   0  0  2  0  0  0  0  0  0  0  0  0
    3.8373   -5.6118    1.2169 C   0  0  0  0  0  0  0  0  0  0  0  0
    3.8636   -4.1888    1.8460 C   0  0  1  0  0  0  0  0  0  0  0  0
    3.0358   -3.1193    1.0515 C   0  0  0  0  0  0  0  0  0  0  0  0
    3.8982   -2.2689    0.1324 C   0  0  0  0  0  0  0  0  0  0  0  0
    3.7801   -2.2139   -1.2057 C   0  0  0  0  0  0  0  0  0  0  0  0
    4.5895   -1.3240   -2.1168 C   0  0  0  0  0  0  0  0  0  0  0  0
    3.9401   -1.4774   -3.5075 C   0  0  0  0  0  0  0  0  0  0  0  0
    3.2080   -2.8244   -3.4863 C   0  0  1  0  0  0  0  0  0  0  0  0
    4.0823   -3.8543   -3.8895 O   0  0  0  0  0  0  0  0  0  0  0  0
    2.8155   -3.0362   -2.0182 C   0  0  0  0  0  0  0  0  0  0  0  0
    3.7300   -4.2186    3.4071 C   0  0  0  0  0  0  0  0  0  0  0  0
    5.1662   -4.4008    3.9473 C   0  0  0  0  0  0  0  0  0  0  0  0
    3.3155   -2.8726    4.0644 C   0  0  0  0  0  0  0  0  0  0  0  0
    2.7839   -5.3927    3.8792 C   0  0  1  0  0  0  0  0  0  0  0  0
    1.3081   -5.0703    3.3609 C   0  0  2  0  0  0  0  0  0  0  0  0
    0.4048   -4.9257    4.4431 O   0  0  0  0  0  0  0  0  0  0  0  0
   -0.2013   -6.1100    4.9387 C   0  0  0  0  0  0  0  0  0  0  0  0
    0.8839   -7.1438    5.1037 C   0  0  0  0  0  0  0  0  0  0  0  0
    1.2479   -8.0112    4.1525 C   0  0  0  0  0  0  0  0  0  0  0  0
    2.6862   -8.2222    3.5662 C   0  0  2  0  0  0  0  0  0  0  0  0
    3.7291   -9.4384    3.4881 C   0  0  0  0  0  0  0  0  0  0  0  0
    3.4298  -10.9323    3.0678 C   0  0  0  0  0  0  0  0  0  0  0  0
    4.9084   -9.2172    2.4393 C   0  0  0  0  0  0  0  0  0  0  0  0
    4.1271   -9.2143    4.8563 C   0  0  1  0  0  0  0  0  0  0  0  0
    5.3903   -9.8292    5.0602 O   0  0  0  0  0  0  0  0  0  0  0  0
    3.0185   -9.9056    5.8589 C   0  0  1  0  0  0  0  0  0  0  0  0
    3.4154  -11.2392    6.0712 O   0  0  0  0  0  0  0  0  0  0  0  0
    1.5988   -9.9512    5.4392 O   0  0  0  0  0  0  0  0  0  0  0  0
    0.8363  -10.1387    4.1182 C   0  0  0  0  0  0  0  0  0  0  0  0
    0.3221   -8.8078    3.3715 C   0  0  1  0  0  0  0  0  0  0  0  0
   -1.2034   -8.7327    3.6462 C   0  0  0  0  0  0  0  0  0  0  0  0
    0.6007   -8.2551    1.8736 C   0  0  0  0  0  0  0  0  0  0  0  0
    1.4928   -6.8810    1.6498 C   0  0  1  0  0  0  0  0  0  0  0  0
    0.7772   -5.8229    2.2745 O   0  0  0  0  0  0  0  0  0  0  0  0
    1.3403   -7.9284    7.4958 H   0  0  0  0  0  0  0  0  0  0  0  0
    1.9440   -8.5911    8.9805 H   0  0  0  0  0  0  0  0  0  0  0  0
    1.0629   -9.6288    7.8845 H   0  0  0  0  0  0  0  0  0  0  0  0
    3.4977   -9.9881    7.9590 H   0  0  0  0  0  0  0  0  0  0  0  0
    4.1794   -7.6321    8.3114 H   0  0  0  0  0  0  0  0  0  0  0  0
    5.2157   -8.6038    7.3384 H   0  0  0  0  0  0  0  0  0  0  0  0
    3.3477   -6.4199    6.4717 H   0  0  0  0  0  0  0  0  0  0  0  0
    5.0178   -6.3657    6.4556 H   0  0  0  0  0  0  0  0  0  0  0  0
    5.9291   -7.8315    3.7728 H   0  0  0  0  0  0  0  0  0  0  0  0
    3.4926   -7.5806    1.3514 H   0  0  0  0  0  0  0  0  0  0  0  0
    4.8754   -5.9407    1.0170 H   0  0  0  0  0  0  0  0  0  0  0  0
    3.3931   -5.5386    0.2348 H   0  0  0  0  0  0  0  0  0  0  0  0
    4.8821   -3.8720    1.6632 H   0  0  0  0  0  0  0  0  0  0  0  0
    2.2106   -3.5880    0.5277 H   0  0  0  0  0  0  0  0  0  0  0  0
    2.5595   -2.3516    1.6637 H   0  0  0  0  0  0  0  0  0  0  0  0
    4.6279   -1.6332    0.6137 H   0  0  0  0  0  0  0  0  0  0  0  0
    4.5966   -0.2849   -1.7800 H   0  0  0  0  0  0  0  0  0  0  0  0
    5.6116   -1.6985   -2.1330 H   0  0  0  0  0  0  0  0  0  0  0  0
    3.2158   -0.6721   -3.6457 H   0  0  0  0  0  0  0  0  0  0  0  0
    4.6689   -1.3988   -4.3203 H   0  0  0  0  0  0  0  0  0  0  0  0
    2.3214   -2.8248   -4.1259 H   0  0  0  0  0  0  0  0  0  0  0  0
    3.7447   -4.6760   -3.5414 H   0  0  0  0  0  0  0  0  0  0  0  0
    2.8213   -4.0691   -1.6941 H   0  0  0  0  0  0  0  0  0  0  0  0
    1.8164   -2.6541   -1.8537 H   0  0  0  0  0  0  0  0  0  0  0  0
    5.1711   -4.6332    5.0140 H   0  0  0  0  0  0  0  0  0  0  0  0
    5.7690   -3.4968    3.8257 H   0  0  0  0  0  0  0  0  0  0  0  0
    5.7150   -5.1647    3.4051 H   0  0  0  0  0  0  0  0  0  0  0  0
    3.3199   -2.9533    5.1550 H   0  0  0  0  0  0  0  0  0  0  0  0
    2.3249   -2.5158    3.8175 H   0  0  0  0  0  0  0  0  0  0  0  0
    4.0085   -2.0721    3.7985 H   0  0  0  0  0  0  0  0  0  0  0  0
    2.7593   -5.2167    4.9441 H   0  0  0  0  0  0  0  0  0  0  0  0
    1.2865   -4.0774    2.9278 H   0  0  0  0  0  0  0  0  0  0  0  0
   -0.6510   -5.9001    5.9034 H   0  0  0  0  0  0  0  0  0  0  0  0
   -1.0028   -6.3669    4.2638 H   0  0  0  0  0  0  0  0  0  0  0  0
    1.6093   -6.7134    5.7366 H   0  0  0  0  0  0  0  0  0  0  0  0
    2.5769   -8.7505    2.6319 H   0  0  0  0  0  0  0  0  0  0  0  0
    4.3498  -11.4878    2.8604 H   0  0  0  0  0  0  0  0  0  0  0  0
    2.8615  -10.9680    2.1360 H   0  0  0  0  0  0  0  0  0  0  0  0
    2.9458  -11.5797    3.7870 H   0  0  0  0  0  0  0  0  0  0  0  0
    5.7839   -9.8409    2.6403 H   0  0  0  0  0  0  0  0  0  0  0  0
    5.2958   -8.2062    2.3398 H   0  0  0  0  0  0  0  0  0  0  0  0
    4.5941   -9.4966    1.4302 H   0  0  0  0  0  0  0  0  0  0  0  0
    5.2007  -10.7610    5.1122 H   0  0  0  0  0  0  0  0  0  0  0  0
    2.7678  -11.6556    6.6478 H   0  0  0  0  0  0  0  0  0  0  0  0
    1.0721  -10.9467    3.4513 H   0  0  0  0  0  0  0  0  0  0  0  0
   -0.0520  -10.5970    4.5397 H   0  0  0  0  0  0  0  0  0  0  0  0
   -1.6932   -9.6312    3.2723 H   0  0  0  0  0  0  0  0  0  0  0  0
   -1.7064   -7.9179    3.1289 H   0  0  0  0  0  0  0  0  0  0  0  0
   -1.4407   -8.6749    4.7123 H   0  0  0  0  0  0  0  0  0  0  0  0
    1.0568   -9.0458    1.2914 H   0  0  0  0  0  0  0  0  0  0  0  0
   -0.3588   -8.0963    1.3870 H   0  0  0  0  0  0  0  0  0  0  0  0
    1.3978   -6.6965    0.5843 H   0  0  0  0  0  0  0  0  0  0  0  0
  1  2  1  0
  1 43  1  0
  1 44  1  0
  1 45  1  0
  2 34  1  0
  2  3  1  0
  2 46  1  1
  3  4  1  0
  3 47  1  0
  3 48  1  0
  4  5  1  0
  4 49  1  0
  4 50  1  0
  5 32  1  0
  5  6  1  6
  7  5  1  6
  6 51  1  0
  7 22  1  0
  7 28  1  0
  7  8  1  0
  8 41  1  0
  8  9  1  0
  8 52  1  6
  9 10  1  0
  9 53  1  0
  9 54  1  0
 10 11  1  0
 10 19  1  0
 10 55  1  1
 11 12  1  0
 11 56  1  0
 11 57  1  0
 12 13  2  3
 12 58  1  0
 13 18  1  0
 13 14  1  0
 14 15  1  0
 14 59  1  0
 14 60  1  0
 15 16  1  0
 15 61  1  0
 15 62  1  0
 16 17  1  0
 16 18  1  0
 16 63  1  6
 17 64  1  0
 18 65  1  0
 18 66  1  0
 19 20  1  0
 19 21  1  0
 19 22  1  0
 20 67  1  0
 20 68  1  0
 20 69  1  0
 21 70  1  0
 21 71  1  0
 21 72  1  0
 22 23  1  0
 22 73  1  1
 23 42  1  0
 23 24  1  0
 23 74  1  6
 24 25  1  0
 25 26  1  0
 25 75  1  0
 25 76  1  0
 26 27  2  3
 26 77  1  0
 27 38  1  0
 27 28  1  0
 28 29  1  0
 28 78  1  6
 29 30  1  0
 29 31  1  0
 29 32  1  0
 30 79  1  0
 30 80  1  0
 30 81  1  0
 31 82  1  0
 31 83  1  0
 31 84  1  0
 32 33  1  6
 32 34  1  0
 33 85  1  0
 34 35  1  1
 34 36  1  0
 35 86  1  0
 36 37  1  0
 37 38  1  0
 37 87  1  0
 37 88  1  0
 38 39  1  1
 38 40  1  0
 39 89  1  0
 39 90  1  0
 39 91  1  0
 40 41  1  0
 40 92  1  0
 40 93  1  0
 41 42  1  0
 41 94  1  6
M  END
>  <i_m_ct_stereo_status>  (10) 
1

>  <s_m_source_file>  (10) 
/var/tmp/pbs.5076255.sched01/tmp7dv9smms/08akalw19.sdf

>  <i_m_source_file_index>  (10) 
4

>  <i_lp_mmshare_version>  (10) 
48012

>  <i_f3d_flags>  (10) 
0

>  <s_epik_input>  (10) 
W0NIMl0xW0NIMl1bQ0BASF0oW0NIM10pW0NAXShbT0hdKShbQ0BdMihbT0hdKVtDQF0xKFtDQF0zNDUpW09IXSlPW0NIMl1bQ0BAXTYoW0NIM10pQyhcW0NAQEhdNUMyKFtDSDNdKVtDSDNdKT1bQ0hdXFtDSDJdT1tDQEhdN1tDQEBIXTRDKFtDSDNdKShbQ0gzXSlbQ0BASF0oW0NIMl1bQ0BASF0zW0NASF0oTzcpW0NIMl02KVtDSDJdL1tDSF09QzhcW0NIMl1bQ0gyXVtDQEBIXShbT0hdKVtDSDJdOA==

>  <s_epik_cmdline>  (10) 
J2VwaWtfcHl0aG9uJywgJy1waHQnLCAnMi4wJywgJy1waCcsICc3LjAnLCAnLXRuJywgJzgnLCAnLW1hJywgJzIwMCcsICctaW1hZScsICc8aW5maWxlLm1hZT4nLCAnLW9tYWUnLCAnPG91dGZpbGUubWFlPic=

>  <r_lp_tautomer_probability>  (10) 
1

>  <r_epik_Ionization_Penalty>  (10) 
7.37587e-07

>  <r_epik_Ionization_Penalty_Charging>  (10) 
0

>  <r_epik_Ionization_Penalty_Neutral>  (10) 
7.37587e-07

>  <r_epik_State_Penalty>  (10) 
-0

>  <r_epik_Charging_Adjusted_Penalty>  (10) 
0

>  <i_epik_Tot_Q>  (10) 
0

>  <i_epik_Tot_abs_Q>  (10) 
0

>  <s_epik_Chemistry_Notes>  (10) 
This compound contains an acetal/aminal-like group ( X-CH(R)-Y where X, Y are N, S, or O) that may be acid/base labile, releasing an aldehyde.

>  <s_lp_Force_Field>  (10) 
OPLS3e

>  <r_lp_Energy>  (10) 
408.786

>  <b_lp_Chiralities_Consistent>  (10) 
1

>  <s_lp_Variant>  (10) 
0:0-4

>  <s_i_glide_gridfile>  (10) 
pfpi4k_grid

>  <i_i_glide_lignum>  (10) 
4

>  <i_i_glide_rotatable_bonds>  (10) 
6

>  <r_i_docking_score>  (10) 
-3.89998

>  <r_i_glide_ligand_efficiency>  (10) 
-0.0928567

>  <r_i_glide_ligand_efficiency_sa>  (10) 
-0.322772

>  <r_i_glide_ligand_efficiency_ln>  (10) 
-0.823185

>  <r_i_glide_gscore>  (10) 
-3.89998

>  <r_i_glide_lipo>  (10) 
-0.453242

>  <r_i_glide_hbond>  (10) 
-0.402906

>  <r_i_glide_metal>  (10) 
-0

>  <r_i_glide_rewards>  (10) 
0

>  <r_i_glide_evdw>  (10) 
-29.5781

>  <r_i_glide_ecoul>  (10) 
-10.148

>  <r_i_glide_erotb>  (10) 
0.0186197

>  <r_i_glide_esite>  (10) 
-0.061341

>  <r_i_glide_emodel>  (10) 
-47.0625

>  <r_i_glide_energy>  (10) 
-39.7262

>  <r_i_glide_einternal>  (10) 
4.33468

>  <r_i_glide_intrahb_reward>  (10) 
-0

>  <i_i_glide_confnum>  (10) 
1

>  <i_i_glide_posenum>  (10) 
8

>  <r_i_glide_eff_state_penalty>  (10) 
0

>  <ligand_id>  (10) 
0

>  <original_smiles>  (10) 
CC1CCC2(O)C34C5CC(CC=C6CCC(O)C6)C(C)(C)C3C3OCC=C6C4C(C)(C)C2(O)C1(O)OCC6(C)CC5O3

>  <smiles>  (10) 
[H]OC1([H])C([H])([H])C(=C([H])C([H])([H])C2([H])C([H])([H])C3([H])C4([H])OC5([H])OC([H])([H])C([H])=C6C7([H])C(C([H])([H])[H])(C([H])([H])[H])C8(O[H])C(O[H])(OC([H])([H])C6(C([H])([H])[H])C4([H])[H])C([H])(C([H])([H])[H])C([H])([H])C([H])([H])C8(O[H])C73C5([H])C2(C([H])([H])[H])C([H])([H])[H])C([H])([H])C1([H])[H]

$$$$
0:3:1
     RDKit          3D

 94101  0  0  1  0  0  0  0  0999 V2000
    2.5484   -8.4316    7.5488 C   0  0  0  0  0  0  0  0  0  0  0  0
    3.9644   -8.5942    6.9506 C   0  0  2  0  0  0  0  0  0  0  0  0
    4.8677   -7.3345    7.0929 C   0  0  0  0  0  0  0  0  0  0  0  0
    4.6963   -6.2517    6.0077 C   0  0  0  0  0  0  0  0  0  0  0  0
    4.9374   -6.7228    4.5202 C   0  0  2  0  0  0  0  0  0  0  0  0
    6.2427   -6.1932    4.3124 O   0  0  0  0  0  0  0  0  0  0  0  0
    3.9476   -6.1478    3.2900 C   0  0  2  0  0  0  0  0  0  0  0  0
    3.7617   -6.0633    1.6855 C   0  0  2  0  0  0  0  0  0  0  0  0
    4.3278   -4.7814    1.0099 C   0  0  0  0  0  0  0  0  0  0  0  0
    4.0943   -3.3835    1.6538 C   0  0  1  0  0  0  0  0  0  0  0  0
    3.1286   -2.4496    0.8494 C   0  0  0  0  0  0  0  0  0  0  0  0
    3.8311   -1.6628   -0.2442 C   0  0  0  0  0  0  0  0  0  0  0  0
    3.6579   -1.8402   -1.5670 C   0  0  0  0  0  0  0  0  0  0  0  0
    4.3283   -1.0169   -2.6401 C   0  0  0  0  0  0  0  0  0  0  0  0
    3.6765   -1.4791   -3.9550 C   0  0  0  0  0  0  0  0  0  0  0  0
    3.1272   -2.8870   -3.6821 C   0  0  1  0  0  0  0  0  0  0  0  0
    4.1300   -3.8549   -3.9224 O   0  0  0  0  0  0  0  0  0  0  0  0
    2.7857   -2.9014   -2.1915 C   0  0  0  0  0  0  0  0  0  0  0  0
    3.8924   -3.4748    3.2042 C   0  0  0  0  0  0  0  0  0  0  0  0
    5.3113   -3.4341    3.8059 C   0  0  0  0  0  0  0  0  0  0  0  0
    3.2294   -2.2262    3.8513 C   0  0  0  0  0  0  0  0  0  0  0  0
    3.1333   -4.7963    3.6189 C   0  0  1  0  0  0  0  0  0  0  0  0
    1.6497   -4.7065    3.0372 C   0  0  2  0  0  0  0  0  0  0  0  0
    0.6830   -4.7424    4.0696 O   0  0  0  0  0  0  0  0  0  0  0  0
    0.2611   -6.0223    4.5216 C   0  0  0  0  0  0  0  0  0  0  0  0
    1.4930   -6.8686    4.7205 C   0  0  0  0  0  0  0  0  0  0  0  0
    2.0348   -7.6475    3.7756 C   0  0  0  0  0  0  0  0  0  0  0  0
    3.5121   -7.6001    3.2512 C   0  0  2  0  0  0  0  0  0  0  0  0
    4.7471   -8.6244    3.1865 C   0  0  0  0  0  0  0  0  0  0  0  0
    4.7102  -10.1375    2.7316 C   0  0  0  0  0  0  0  0  0  0  0  0
    5.9160   -8.1862    2.1993 C   0  0  0  0  0  0  0  0  0  0  0  0
    5.0510   -8.3623    4.5725 C   0  0  1  0  0  0  0  0  0  0  0  0
    6.3963   -8.7546    4.8291 O   0  0  0  0  0  0  0  0  0  0  0  0
    4.0368   -9.2443    5.5153 C   0  0  1  0  0  0  0  0  0  0  0  0
    4.6638  -10.4935    5.7207 O   0  0  0  0  0  0  0  0  0  0  0  0
    2.6645   -9.5464    5.0391 O   0  0  0  0  0  0  0  0  0  0  0  0
    1.9795   -9.8097    3.6925 C   0  0  0  0  0  0  0  0  0  0  0  0
    1.2838   -8.5651    2.9401 C   0  0  1  0  0  0  0  0  0  0  0  0
   -0.2443   -8.7533    3.1536 C   0  0  0  0  0  0  0  0  0  0  0  0
    1.5318   -7.9345    1.4628 C   0  0  0  0  0  0  0  0  0  0  0  0
    2.2056   -6.4235    1.3054 C   0  0  1  0  0  0  0  0  0  0  0  0
    1.3104   -5.4847    1.8989 O   0  0  0  0  0  0  0  0  0  0  0  0
    1.9746   -7.6207    7.1155 H   0  0  0  0  0  0  0  0  0  0  0  0
    2.6167   -8.2119    8.6125 H   0  0  0  0  0  0  0  0  0  0  0  0
    1.9648   -9.3503    7.4618 H   0  0  0  0  0  0  0  0  0  0  0  0
    4.4177   -9.3103    7.6413 H   0  0  0  0  0  0  0  0  0  0  0  0
    4.6897   -6.8848    8.0659 H   0  0  0  0  0  0  0  0  0  0  0  0
    5.9118   -7.6492    7.1221 H   0  0  0  0  0  0  0  0  0  0  0  0
    3.7504   -5.7810    6.2118 H   0  0  0  0  0  0  0  0  0  0  0  0
    5.3850   -5.4506    6.2717 H   0  0  0  0  0  0  0  0  0  0  0  0
    6.6456   -6.7039    3.6251 H   0  0  0  0  0  0  0  0  0  0  0  0
    4.3027   -6.7835    1.0858 H   0  0  0  0  0  0  0  0  0  0  0  0
    5.4097   -4.9298    0.8555 H   0  0  0  0  0  0  0  0  0  0  0  0
    3.9203   -4.7712    0.0093 H   0  0  0  0  0  0  0  0  0  0  0  0
    5.0479   -2.8790    1.5205 H   0  0  0  0  0  0  0  0  0  0  0  0
    2.2683   -2.9969    0.4696 H   0  0  0  0  0  0  0  0  0  0  0  0
    2.7108   -1.6355    1.4413 H   0  0  0  0  0  0  0  0  0  0  0  0
    4.4880   -0.8744    0.0916 H   0  0  0  0  0  0  0  0  0  0  0  0
    4.2108    0.0582   -2.4768 H   0  0  0  0  0  0  0  0  0  0  0  0
    5.3913   -1.2599   -2.6358 H   0  0  0  0  0  0  0  0  0  0  0  0
    2.8422   -0.8158   -4.1914 H   0  0  0  0  0  0  0  0  0  0  0  0
    4.3789   -1.4351   -4.7911 H   0  0  0  0  0  0  0  0  0  0  0  0
    2.2467   -3.1179   -4.2838 H   0  0  0  0  0  0  0  0  0  0  0  0
    3.8491   -4.6731   -3.5322 H   0  0  0  0  0  0  0  0  0  0  0  0
    2.9452   -3.8715   -1.7353 H   0  0  0  0  0  0  0  0  0  0  0  0
    1.7413   -2.6533   -2.0380 H   0  0  0  0  0  0  0  0  0  0  0  0
    5.3098   -3.6868    4.8679 H   0  0  0  0  0  0  0  0  0  0  0  0
    5.7651   -2.4437    3.7174 H   0  0  0  0  0  0  0  0  0  0  0  0
    5.9818   -4.0964    3.2649 H   0  0  0  0  0  0  0  0  0  0  0  0
    3.1727   -2.3345    4.9363 H   0  0  0  0  0  0  0  0  0  0  0  0
    2.2186   -2.0206    3.5178 H   0  0  0  0  0  0  0  0  0  0  0  0
    3.8061   -1.3229    3.6456 H   0  0  0  0  0  0  0  0  0  0  0  0
    3.0330   -4.6519    4.6855 H   0  0  0  0  0  0  0  0  0  0  0  0
    1.4794   -3.7198    2.6269 H   0  0  0  0  0  0  0  0  0  0  0  0
   -0.2581   -5.9100    5.4694 H   0  0  0  0  0  0  0  0  0  0  0  0
   -0.4568   -6.3911    3.8075 H   0  0  0  0  0  0  0  0  0  0  0  0
    2.1114   -6.3362    5.3882 H   0  0  0  0  0  0  0  0  0  0  0  0
    3.5275   -8.1192    2.3044 H   0  0  0  0  0  0  0  0  0  0  0  0
    5.7174  -10.5307    2.5584 H   0  0  0  0  0  0  0  0  0  0  0  0
    4.1942  -10.2434    1.7747 H   0  0  0  0  0  0  0  0  0  0  0  0
    4.3017  -10.8757    3.4110 H   0  0  0  0  0  0  0  0  0  0  0  0
    6.8726   -8.6640    2.4321 H   0  0  0  0  0  0  0  0  0  0  0  0
    6.1326   -7.1229    2.1427 H   0  0  0  0  0  0  0  0  0  0  0  0
    5.6889   -8.4862    1.1741 H   0  0  0  0  0  0  0  0  0  0  0  0
    6.3914   -9.7052    4.8627 H   0  0  0  0  0  0  0  0  0  0  0  0
    4.5611  -11.0141    4.9433 H   0  0  0  0  0  0  0  0  0  0  0  0
    2.3680  -10.5463    3.0104 H   0  0  0  0  0  0  0  0  0  0  0  0
    1.1596  -10.4182    4.0652 H   0  0  0  0  0  0  0  0  0  0  0  0
   -0.5644   -9.7158    2.7506 H   0  0  0  0  0  0  0  0  0  0  0  0
   -0.8494   -8.0214    2.6217 H   0  0  0  0  0  0  0  0  0  0  0  0
   -0.5282   -8.7511    4.2096 H   0  0  0  0  0  0  0  0  0  0  0  0
    2.0909   -8.6585    0.8812 H   0  0  0  0  0  0  0  0  0  0  0  0
    0.5767   -7.8885    0.9447 H   0  0  0  0  0  0  0  0  0  0  0  0
    2.1244   -6.2341    0.2364 H   0  0  0  0  0  0  0  0  0  0  0  0
  1  2  1  0
  1 43  1  0
  1 44  1  0
  1 45  1  0
  2 34  1  0
  2  3  1  0
  2 46  1  1
  3  4  1  0
  3 47  1  0
  3 48  1  0
  4  5  1  0
  4 49  1  0
  4 50  1  0
  5 32  1  0
  5  6  1  6
  7  5  1  6
  6 51  1  0
  7 22  1  0
  7 28  1  0
  7  8  1  0
  8 41  1  0
  8  9  1  0
  8 52  1  6
  9 10  1  0
  9 53  1  0
  9 54  1  0
 10 11  1  0
 10 19  1  0
 10 55  1  1
 11 12  1  0
 11 56  1  0
 11 57  1  0
 12 13  2  3
 12 58  1  0
 13 18  1  0
 13 14  1  0
 14 15  1  0
 14 59  1  0
 14 60  1  0
 15 16  1  0
 15 61  1  0
 15 62  1  0
 16 17  1  0
 16 18  1  0
 16 63  1  6
 17 64  1  0
 18 65  1  0
 18 66  1  0
 19 20  1  0
 19 21  1  0
 19 22  1  0
 20 67  1  0
 20 68  1  0
 20 69  1  0
 21 70  1  0
 21 71  1  0
 21 72  1  0
 22 23  1  0
 22 73  1  1
 23 42  1  0
 23 24  1  0
 23 74  1  6
 24 25  1  0
 25 26  1  0
 25 75  1  0
 25 76  1  0
 26 27  2  3
 26 77  1  0
 27 38  1  0
 27 28  1  0
 28 29  1  0
 28 78  1  6
 29 30  1  0
 29 31  1  0
 29 32  1  0
 30 79  1  0
 30 80  1  0
 30 81  1  0
 31 82  1  0
 31 83  1  0
 31 84  1  0
 32 33  1  6
 32 34  1  0
 33 85  1  0
 34 35  1  1
 34 36  1  0
 35 86  1  0
 36 37  1  0
 37 38  1  0
 37 87  1  0
 37 88  1  0
 38 39  1  1
 38 40  1  0
 39 89  1  0
 39 90  1  0
 39 91  1  0
 40 41  1  0
 40 92  1  0
 40 93  1  0
 41 42  1  0
 41 94  1  6
M  END
>  <i_m_ct_stereo_status>  (11) 
1

>  <s_m_source_file>  (11) 
/var/tmp/pbs.5076255.sched01/tmp7dv9smms/08akalw19.sdf

>  <i_m_source_file_index>  (11) 
4

>  <i_lp_mmshare_version>  (11) 
48012

>  <i_f3d_flags>  (11) 
0

>  <s_epik_input>  (11) 
W0NIMl0xW0NIMl1bQ0BASF0oW0NIM10pW0NAXShbT0hdKShbQ0BdMihbT0hdKVtDQF0xKFtDQF0zNDUpW09IXSlPW0NIMl1bQ0BAXTYoW0NIM10pQyhcW0NAQEhdNUMyKFtDSDNdKVtDSDNdKT1bQ0hdXFtDSDJdT1tDQEhdN1tDQEBIXTRDKFtDSDNdKShbQ0gzXSlbQ0BASF0oW0NIMl1bQ0BASF0zW0NASF0oTzcpW0NIMl02KVtDSDJdL1tDSF09QzhcW0NIMl1bQ0gyXVtDQEBIXShbT0hdKVtDSDJdOA==

>  <s_epik_cmdline>  (11) 
J2VwaWtfcHl0aG9uJywgJy1waHQnLCAnMi4wJywgJy1waCcsICc3LjAnLCAnLXRuJywgJzgnLCAnLW1hJywgJzIwMCcsICctaW1hZScsICc8aW5maWxlLm1hZT4nLCAnLW9tYWUnLCAnPG91dGZpbGUubWFlPic=

>  <r_lp_tautomer_probability>  (11) 
1

>  <r_epik_Ionization_Penalty>  (11) 
7.37587e-07

>  <r_epik_Ionization_Penalty_Charging>  (11) 
0

>  <r_epik_Ionization_Penalty_Neutral>  (11) 
7.37587e-07

>  <r_epik_State_Penalty>  (11) 
-0

>  <r_epik_Charging_Adjusted_Penalty>  (11) 
0

>  <i_epik_Tot_Q>  (11) 
0

>  <i_epik_Tot_abs_Q>  (11) 
0

>  <s_epik_Chemistry_Notes>  (11) 
This compound contains an acetal/aminal-like group ( X-CH(R)-Y where X, Y are N, S, or O) that may be acid/base labile, releasing an aldehyde.

>  <s_lp_Force_Field>  (11) 
OPLS3e

>  <r_lp_Energy>  (11) 
408.786

>  <b_lp_Chiralities_Consistent>  (11) 
1

>  <s_lp_Variant>  (11) 
0:0-4

>  <s_i_glide_gridfile>  (11) 
pfpi4k_grid

>  <i_i_glide_lignum>  (11) 
4

>  <i_i_glide_rotatable_bonds>  (11) 
6

>  <r_i_docking_score>  (11) 
-3.24224

>  <r_i_glide_ligand_efficiency>  (11) 
-0.0771963

>  <r_i_glide_ligand_efficiency_sa>  (11) 
-0.268336

>  <r_i_glide_ligand_efficiency_ln>  (11) 
-0.684354

>  <r_i_glide_gscore>  (11) 
-3.24224

>  <r_i_glide_lipo>  (11) 
-0.433388

>  <r_i_glide_hbond>  (11) 
-0.41051

>  <r_i_glide_metal>  (11) 
-0

>  <r_i_glide_rewards>  (11) 
0

>  <r_i_glide_evdw>  (11) 
-29.2869

>  <r_i_glide_ecoul>  (11) 
-6.24296

>  <r_i_glide_erotb>  (11) 
0.0186197

>  <r_i_glide_esite>  (11) 
-0.0161762

>  <r_i_glide_emodel>  (11) 
-41.5389

>  <r_i_glide_energy>  (11) 
-35.5299

>  <r_i_glide_einternal>  (11) 
3.12207

>  <r_i_glide_intrahb_reward>  (11) 
-0

>  <i_i_glide_confnum>  (11) 
1

>  <i_i_glide_posenum>  (11) 
2

>  <r_i_glide_eff_state_penalty>  (11) 
0

>  <ligand_id>  (11) 
0

>  <original_smiles>  (11) 
CC1CCC2(O)C34C5CC(CC=C6CCC(O)C6)C(C)(C)C3C3OCC=C6C4C(C)(C)C2(O)C1(O)OCC6(C)CC5O3

>  <smiles>  (11) 
[H]OC1([H])C([H])([H])C(=C([H])C([H])([H])C2([H])C([H])([H])C3([H])C4([H])OC5([H])OC([H])([H])C([H])=C6C7([H])C(C([H])([H])[H])(C([H])([H])[H])C8(O[H])C(O[H])(OC([H])([H])C6(C([H])([H])[H])C4([H])[H])C([H])(C([H])([H])[H])C([H])([H])C([H])([H])C8(O[H])C73C5([H])C2(C([H])([H])[H])C([H])([H])[H])C([H])([H])C1([H])[H]

$$$$
0:3:2
     RDKit          3D

 94101  0  0  1  0  0  0  0  0999 V2000
    1.4323   -9.3559    7.7318 C   0  0  0  0  0  0  0  0  0  0  0  0
    2.7970   -9.7549    7.1292 C   0  0  2  0  0  0  0  0  0  0  0  0
    3.9597   -8.7720    7.4454 C   0  0  0  0  0  0  0  0  0  0  0  0
    4.0713   -7.5407    6.5244 C   0  0  0  0  0  0  0  0  0  0  0  0
    4.2517   -7.8539    4.9859 C   0  0  2  0  0  0  0  0  0  0  0  0
    5.6515   -7.6356    4.8851 O   0  0  0  0  0  0  0  0  0  0  0  0
    3.4669   -6.9003    3.8352 C   0  0  2  0  0  0  0  0  0  0  0  0
    3.3590   -6.5637    2.2567 C   0  0  2  0  0  0  0  0  0  0  0  0
    4.2226   -5.3660    1.7674 C   0  0  0  0  0  0  0  0  0  0  0  0
    4.2965   -4.0551    2.6024 C   0  0  1  0  0  0  0  0  0  0  0  0
    3.5931   -2.8270    1.9366 C   0  0  0  0  0  0  0  0  0  0  0  0
    4.4492   -2.1378    0.8907 C   0  0  0  0  0  0  0  0  0  0  0  0
    4.2104   -2.1354   -0.4413 C   0  0  0  0  0  0  0  0  0  0  0  0
    5.0424   -1.4022   -1.4638 C   0  0  0  0  0  0  0  0  0  0  0  0
    4.5439   -1.9290   -2.8203 C   0  0  0  0  0  0  0  0  0  0  0  0
    3.1115   -2.4168   -2.5711 C   0  0  1  0  0  0  0  0  0  0  0  0
    2.7256   -3.4579   -3.4565 O   0  0  0  0  0  0  0  0  0  0  0  0
    3.0924   -2.8859   -1.1143 C   0  0  0  0  0  0  0  0  0  0  0  0
    4.0224   -4.3114    4.1197 C   0  0  0  0  0  0  0  0  0  0  0  0
    5.3939   -4.6774    4.7337 C   0  0  0  0  0  0  0  0  0  0  0  0
    3.6336   -3.0391    4.9284 C   0  0  0  0  0  0  0  0  0  0  0  0
    2.9632   -5.4625    4.3389 C   0  0  1  0  0  0  0  0  0  0  0  0
    1.5533   -4.9568    3.7665 C   0  0  2  0  0  0  0  0  0  0  0  0
    0.5716   -4.9110    4.7809 O   0  0  0  0  0  0  0  0  0  0  0  0
   -0.1388   -6.1118    5.0552 C   0  0  0  0  0  0  0  0  0  0  0  0
    0.8645   -7.2326    5.1335 C   0  0  0  0  0  0  0  0  0  0  0  0
    1.2527   -7.9756    4.0933 C   0  0  0  0  0  0  0  0  0  0  0  0
    2.7210   -8.1964    3.5894 C   0  0  2  0  0  0  0  0  0  0  0  0
    3.6902   -9.4617    3.4026 C   0  0  0  0  0  0  0  0  0  0  0  0
    3.3350  -10.8418    2.7458 C   0  0  0  0  0  0  0  0  0  0  0  0
    4.9661   -9.1740    2.4970 C   0  0  0  0  0  0  0  0  0  0  0  0
    3.9870   -9.4634    4.8183 C   0  0  1  0  0  0  0  0  0  0  0  0
    5.1790  -10.1978    5.0589 O   0  0  0  0  0  0  0  0  0  0  0  0
    2.7593  -10.2066    5.6162 C   0  0  1  0  0  0  0  0  0  0  0  0
    3.0636  -11.5899    5.6775 O   0  0  0  0  0  0  0  0  0  0  0  0
    1.3823  -10.1125    5.0932 O   0  0  0  0  0  0  0  0  0  0  0  0
    0.7265  -10.0397    3.7075 C   0  0  0  0  0  0  0  0  0  0  0  0
    0.3497   -8.5863    3.1323 C   0  0  1  0  0  0  0  0  0  0  0  0
   -1.1903   -8.4492    3.3194 C   0  0  0  0  0  0  0  0  0  0  0  0
    0.7800   -7.8276    1.7621 C   0  0  0  0  0  0  0  0  0  0  0  0
    1.7743   -6.4997    1.8209 C   0  0  1  0  0  0  0  0  0  0  0  0
    1.0828   -5.4681    2.5325 O   0  0  0  0  0  0  0  0  0  0  0  0
    1.0788   -8.3837    7.4121 H   0  0  0  0  0  0  0  0  0  0  0  0
    1.5178   -9.3135    8.8170 H   0  0  0  0  0  0  0  0  0  0  0  0
    0.6655  -10.0951    7.5071 H   0  0  0  0  0  0  0  0  0  0  0  0
    3.0563  -10.6374    7.7165 H   0  0  0  0  0  0  0  0  0  0  0  0
    3.8558   -8.4264    8.4715 H   0  0  0  0  0  0  0  0  0  0  0  0
    4.9029   -9.3191    7.4359 H   0  0  0  0  0  0  0  0  0  0  0  0
    3.2457   -6.9018    6.7791 H   0  0  0  0  0  0  0  0  0  0  0  0
    4.9056   -6.9556    6.8977 H   0  0  0  0  0  0  0  0  0  0  0  0
    6.0614   -8.2591    5.4672 H   0  0  0  0  0  0  0  0  0  0  0  0
    3.7474   -7.3005    1.5640 H   0  0  0  0  0  0  0  0  0  0  0  0
    5.2534   -5.7386    1.5869 H   0  0  0  0  0  0  0  0  0  0  0  0
    3.8564   -5.1194    0.7846 H   0  0  0  0  0  0  0  0  0  0  0  0
    5.3408   -3.7667    2.5393 H   0  0  0  0  0  0  0  0  0  0  0  0
    2.6063   -3.0936    1.5610 H   0  0  0  0  0  0  0  0  0  0  0  0
    3.4266   -1.9960    2.6248 H   0  0  0  0  0  0  0  0  0  0  0  0
    5.2960   -1.5804    1.2638 H   0  0  0  0  0  0  0  0  0  0  0  0
    4.8582   -0.3279   -1.3731 H   0  0  0  0  0  0  0  0  0  0  0  0
    6.1032   -1.6022   -1.3140 H   0  0  0  0  0  0  0  0  0  0  0  0
    4.5904   -1.1639   -3.5974 H   0  0  0  0  0  0  0  0  0  0  0  0
    5.1765   -2.7614   -3.1277 H   0  0  0  0  0  0  0  0  0  0  0  0
    2.4322   -1.5709   -2.6759 H   0  0  0  0  0  0  0  0  0  0  0  0
    2.8833   -4.3035   -3.0528 H   0  0  0  0  0  0  0  0  0  0  0  0
    3.3061   -3.9528   -1.0542 H   0  0  0  0  0  0  0  0  0  0  0  0
    2.1419   -2.6761   -0.6314 H   0  0  0  0  0  0  0  0  0  0  0  0
    5.2865   -5.0616    5.7452 H   0  0  0  0  0  0  0  0  0  0  0  0
    6.0535   -3.8086    4.8002 H   0  0  0  0  0  0  0  0  0  0  0  0
    5.9327   -5.3959    4.1176 H   0  0  0  0  0  0  0  0  0  0  0  0
    3.5039   -3.2759    5.9867 H   0  0  0  0  0  0  0  0  0  0  0  0
    2.7114   -2.5647    4.6137 H   0  0  0  0  0  0  0  0  0  0  0  0
    4.4095   -2.2745    4.8585 H   0  0  0  0  0  0  0  0  0  0  0  0
    2.8638   -5.4425    5.4130 H   0  0  0  0  0  0  0  0  0  0  0  0
    1.6263   -3.9125    3.5019 H   0  0  0  0  0  0  0  0  0  0  0  0
   -0.6463   -6.0116    6.0084 H   0  0  0  0  0  0  0  0  0  0  0  0
   -0.8964   -6.2138    4.2977 H   0  0  0  0  0  0  0  0  0  0  0  0
    1.5611   -6.9516    5.8761 H   0  0  0  0  0  0  0  0  0  0  0  0
    2.6604   -8.5770    2.5788 H   0  0  0  0  0  0  0  0  0  0  0  0
    4.2277  -11.4277    2.5085 H   0  0  0  0  0  0  0  0  0  0  0  0
    2.8426  -10.6628    1.7888 H   0  0  0  0  0  0  0  0  0  0  0  0
    2.7552  -11.5589    3.3190 H   0  0  0  0  0  0  0  0  0  0  0  0
    5.7748   -9.8915    2.6657 H   0  0  0  0  0  0  0  0  0  0  0  0
    5.4215   -8.1963    2.6053 H   0  0  0  0  0  0  0  0  0  0  0  0
    4.7155   -9.2684    1.4360 H   0  0  0  0  0  0  0  0  0  0  0  0
    4.8965  -11.1050    5.0790 H   0  0  0  0  0  0  0  0  0  0  0  0
    2.4729  -11.9912    6.3042 H   0  0  0  0  0  0  0  0  0  0  0  0
    0.9581  -10.7525    2.9370 H   0  0  0  0  0  0  0  0  0  0  0  0
   -0.2091  -10.4951    3.9892 H   0  0  0  0  0  0  0  0  0  0  0  0
   -1.7073   -9.2525    2.7875 H   0  0  0  0  0  0  0  0  0  0  0  0
   -1.6012   -7.5311    2.8932 H   0  0  0  0  0  0  0  0  0  0  0  0
   -1.5007   -8.5260    4.3670 H   0  0  0  0  0  0  0  0  0  0  0  0
    1.2280   -8.5647    1.0989 H   0  0  0  0  0  0  0  0  0  0  0  0
   -0.1271   -7.5434    1.2352 H   0  0  0  0  0  0  0  0  0  0  0  0
    1.7788   -6.1650    0.7892 H   0  0  0  0  0  0  0  0  0  0  0  0
  1  2  1  0
  1 43  1  0
  1 44  1  0
  1 45  1  0
  2 34  1  0
  2  3  1  0
  2 46  1  1
  3  4  1  0
  3 47  1  0
  3 48  1  0
  4  5  1  0
  4 49  1  0
  4 50  1  0
  5 32  1  0
  5  6  1  6
  7  5  1  1
  6 51  1  0
  7 22  1  0
  7 28  1  0
  7  8  1  0
  8 41  1  0
  8  9  1  0
  8 52  1  6
  9 10  1  0
  9 53  1  0
  9 54  1  0
 10 11  1  0
 10 19  1  0
 10 55  1  1
 11 12  1  0
 11 56  1  0
 11 57  1  0
 12 13  2  3
 12 58  1  0
 13 18  1  0
 13 14  1  0
 14 15  1  0
 14 59  1  0
 14 60  1  0
 15 16  1  0
 15 61  1  0
 15 62  1  0
 16 17  1  0
 16 18  1  0
 16 63  1  1
 17 64  1  0
 18 65  1  0
 18 66  1  0
 19 20  1  0
 19 21  1  0
 19 22  1  0
 20 67  1  0
 20 68  1  0
 20 69  1  0
 21 70  1  0
 21 71  1  0
 21 72  1  0
 22 23  1  0
 22 73  1  1
 23 42  1  0
 23 24  1  0
 23 74  1  6
 24 25  1  0
 25 26  1  0
 25 75  1  0
 25 76  1  0
 26 27  2  3
 26 77  1  0
 27 38  1  0
 27 28  1  0
 28 29  1  0
 28 78  1  6
 29 30  1  0
 29 31  1  0
 29 32  1  0
 30 79  1  0
 30 80  1  0
 30 81  1  0
 31 82  1  0
 31 83  1  0
 31 84  1  0
 32 33  1  6
 32 34  1  0
 33 85  1  0
 34 35  1  1
 34 36  1  0
 35 86  1  0
 36 37  1  0
 37 38  1  0
 37 87  1  0
 37 88  1  0
 38 39  1  1
 38 40  1  0
 39 89  1  0
 39 90  1  0
 39 91  1  0
 40 41  1  0
 40 92  1  0
 40 93  1  0
 41 42  1  0
 41 94  1  6
M  END
>  <i_m_ct_stereo_status>  (12) 
1

>  <s_m_source_file>  (12) 
/var/tmp/pbs.5076255.sched01/tmp7dv9smms/08akalw19.sdf

>  <i_m_source_file_index>  (12) 
4

>  <i_lp_mmshare_version>  (12) 
48012

>  <i_f3d_flags>  (12) 
0

>  <s_epik_input>  (12) 
W0NIMl0xW0NIMl1bQ0BASF0oW0NIM10pW0NAXShbT0hdKShbQ0BdMihbT0hdKVtDQF0xKFtDQF0zNDUpW09IXSlPW0NIMl1bQ0BAXTYoW0NIM10pQyhcW0NAQEhdNUMyKFtDSDNdKVtDSDNdKT1bQ0hdXFtDSDJdT1tDQEhdN1tDQEBIXTRDKFtDSDNdKShbQ0gzXSlbQ0BASF0oW0NIMl1bQ0BASF0zW0NASF0oTzcpW0NIMl02KVtDSDJdL1tDSF09QzhcW0NIMl1bQ0gyXVtDQEBIXShbT0hdKVtDSDJdOA==

>  <s_epik_cmdline>  (12) 
J2VwaWtfcHl0aG9uJywgJy1waHQnLCAnMi4wJywgJy1waCcsICc3LjAnLCAnLXRuJywgJzgnLCAnLW1hJywgJzIwMCcsICctaW1hZScsICc8aW5maWxlLm1hZT4nLCAnLW9tYWUnLCAnPG91dGZpbGUubWFlPic=

>  <r_lp_tautomer_probability>  (12) 
1

>  <r_epik_Ionization_Penalty>  (12) 
7.37587e-07

>  <r_epik_Ionization_Penalty_Charging>  (12) 
0

>  <r_epik_Ionization_Penalty_Neutral>  (12) 
7.37587e-07

>  <r_epik_State_Penalty>  (12) 
-0

>  <r_epik_Charging_Adjusted_Penalty>  (12) 
0

>  <i_epik_Tot_Q>  (12) 
0

>  <i_epik_Tot_abs_Q>  (12) 
0

>  <s_epik_Chemistry_Notes>  (12) 
This compound contains an acetal/aminal-like group ( X-CH(R)-Y where X, Y are N, S, or O) that may be acid/base labile, releasing an aldehyde.

>  <s_lp_Force_Field>  (12) 
OPLS3e

>  <r_lp_Energy>  (12) 
408.786

>  <b_lp_Chiralities_Consistent>  (12) 
1

>  <s_lp_Variant>  (12) 
0:0-4

>  <s_i_glide_gridfile>  (12) 
pfpi4k_grid

>  <i_i_glide_lignum>  (12) 
4

>  <i_i_glide_rotatable_bonds>  (12) 
6

>  <r_i_docking_score>  (12) 
-2.94448

>  <r_i_glide_ligand_efficiency>  (12) 
-0.0701067

>  <r_i_glide_ligand_efficiency_sa>  (12) 
-0.243693

>  <r_i_glide_ligand_efficiency_ln>  (12) 
-0.621504

>  <r_i_glide_gscore>  (12) 
-2.94448

>  <r_i_glide_lipo>  (12) 
-0.0716077

>  <r_i_glide_hbond>  (12) 
-0.327123

>  <r_i_glide_metal>  (12) 
-0

>  <r_i_glide_rewards>  (12) 
0

>  <r_i_glide_evdw>  (12) 
-28.0528

>  <r_i_glide_ecoul>  (12) 
-7.34467

>  <r_i_glide_erotb>  (12) 
0.0186197

>  <r_i_glide_esite>  (12) 
-0.0600301

>  <r_i_glide_emodel>  (12) 
-39.5687

>  <r_i_glide_energy>  (12) 
-35.3974

>  <r_i_glide_einternal>  (12) 
3.52315

>  <r_i_glide_intrahb_reward>  (12) 
-0

>  <i_i_glide_confnum>  (12) 
4

>  <i_i_glide_posenum>  (12) 
10

>  <r_i_glide_eff_state_penalty>  (12) 
0

>  <ligand_id>  (12) 
0

>  <original_smiles>  (12) 
CC1CCC2(O)C34C5CC(CC=C6CCC(O)C6)C(C)(C)C3C3OCC=C6C4C(C)(C)C2(O)C1(O)OCC6(C)CC5O3

>  <smiles>  (12) 
[H]OC1([H])C([H])([H])C(=C([H])C([H])([H])C2([H])C([H])([H])C3([H])C4([H])OC5([H])OC([H])([H])C([H])=C6C7([H])C(C([H])([H])[H])(C([H])([H])[H])C8(O[H])C(O[H])(OC([H])([H])C6(C([H])([H])[H])C4([H])[H])C([H])(C([H])([H])[H])C([H])([H])C([H])([H])C8(O[H])C73C5([H])C2(C([H])([H])[H])C([H])([H])[H])C([H])([H])C1([H])[H]

$$$$
0:4:0
     RDKit          3D

 94101  0  0  1  0  0  0  0  0999 V2000
   -1.8451    4.3439    8.2004 C   0  0  0  0  0  0  0  0  0  0  0  0
   -2.1899    3.4076    7.0285 C   0  0  2  0  0  0  0  0  0  0  0  0
   -2.4324    1.8661    7.3433 C   0  0  0  0  0  0  0  0  0  0  0  0
   -1.3894    0.7351    6.9459 C   0  0  0  0  0  0  0  0  0  0  0  0
   -0.5558    0.9785    5.6296 C   0  0  2  0  0  0  0  0  0  0  0  0
   -1.4348    0.3489    4.6822 O   0  0  0  0  0  0  0  0  0  0  0  0
    1.0521    0.7195    5.2143 C   0  0  2  0  0  0  0  0  0  0  0  0
    1.1357    0.4021    3.6420 C   0  0  2  0  0  0  0  0  0  0  0  0
    0.9649   -1.0759    3.1630 C   0  0  0  0  0  0  0  0  0  0  0  0
    1.5588   -2.2457    3.9726 C   0  0  1  0  0  0  0  0  0  0  0  0
    2.7639   -2.9599    3.3013 C   0  0  0  0  0  0  0  0  0  0  0  0
    2.4552   -3.5655    1.9427 C   0  0  0  0  0  0  0  0  0  0  0  0
    2.9703   -3.1328    0.7753 C   0  0  0  0  0  0  0  0  0  0  0  0
    3.9093   -1.9563    0.6203 C   0  0  0  0  0  0  0  0  0  0  0  0
    4.3927   -2.0007   -0.8301 C   0  0  0  0  0  0  0  0  0  0  0  0
    3.3145   -2.7775   -1.5892 C   0  0  1  0  0  0  0  0  0  0  0  0
    3.8456   -3.4657   -2.7088 O   0  0  0  0  0  0  0  0  0  0  0  0
    2.7159   -3.7610   -0.5732 C   0  0  0  0  0  0  0  0  0  0  0  0
    1.7233   -1.8740    5.4712 C   0  0  0  0  0  0  0  0  0  0  0  0
    0.3859   -2.1572    6.1854 C   0  0  0  0  0  0  0  0  0  0  0  0
    2.7500   -2.7638    6.2193 C   0  0  0  0  0  0  0  0  0  0  0  0
    2.0831   -0.3652    5.6507 C   0  0  1  0  0  0  0  0  0  0  0  0
    3.4944    0.0177    4.9703 C   0  0  2  0  0  0  0  0  0  0  0  0
    4.2657    0.6498    5.9587 O   0  0  0  0  0  0  0  0  0  0  0  0
    4.8810    1.9158    5.7159 C   0  0  0  0  0  0  0  0  0  0  0  0
    3.9896    3.0055    5.1109 C   0  0  0  0  0  0  0  0  0  0  0  0
    2.6405    3.0431    5.0249 C   0  0  0  0  0  0  0  0  0  0  0  0
    1.7875    2.0507    5.8269 C   0  0  1  0  0  0  0  0  0  0  0  0
    0.8093    2.7973    6.6367 C   0  0  0  0  0  0  0  0  0  0  0  0
    0.8164    2.0832    8.0521 C   0  0  0  0  0  0  0  0  0  0  0  0
    1.3578    4.2131    7.1422 C   0  0  0  0  0  0  0  0  0  0  0  0
   -0.4077    2.5195    5.5656 C   0  0  1  0  0  0  0  0  0  0  0  0
   -0.3911    2.4937    4.1403 O   0  0  0  0  0  0  0  0  0  0  0  0
   -1.4298    3.5972    5.6679 C   0  0  1  0  0  0  0  0  0  0  0  0
   -2.4183    3.5711    4.6733 O   0  0  0  0  0  0  0  0  0  0  0  0
   -0.5495    4.7437    5.4486 O   0  0  0  0  0  0  0  0  0  0  0  0
    0.5323    4.8378    4.3405 C   0  0  0  0  0  0  0  0  0  0  0  0
    1.9252    3.9115    3.9695 C   0  0  1  0  0  0  0  0  0  0  0  0
    2.8588    5.0483    3.4246 C   0  0  0  0  0  0  0  0  0  0  0  0
    1.9512    2.7953    2.8066 C   0  0  0  0  0  0  0  0  0  0  0  0
    2.2675    1.2020    3.0446 C   0  0  1  0  0  0  0  0  0  0  0  0
    3.4745    0.7200    3.6930 O   0  0  0  0  0  0  0  0  0  0  0  0
   -1.0213    4.0282    8.8305 H   0  0  0  0  0  0  0  0  0  0  0  0
   -2.7034    4.4112    8.8677 H   0  0  0  0  0  0  0  0  0  0  0  0
   -1.6421    5.3563    7.8503 H   0  0  0  0  0  0  0  0  0  0  0  0
   -3.1974    3.7616    6.8105 H   0  0  0  0  0  0  0  0  0  0  0  0
   -2.6954    1.7587    8.3954 H   0  0  0  0  0  0  0  0  0  0  0  0
   -3.3663    1.6177    6.8457 H   0  0  0  0  0  0  0  0  0  0  0  0
   -0.8440    0.3671    7.8015 H   0  0  0  0  0  0  0  0  0  0  0  0
   -1.9770   -0.1553    6.7947 H   0  0  0  0  0  0  0  0  0  0  0  0
   -1.3163    0.8324    3.8608 H   0  0  0  0  0  0  0  0  0  0  0  0
    0.3341    0.7491    3.0098 H   0  0  0  0  0  0  0  0  0  0  0  0
   -0.1156   -1.2728    3.0743 H   0  0  0  0  0  0  0  0  0  0  0  0
    1.3466   -1.1251    2.1511 H   0  0  0  0  0  0  0  0  0  0  0  0
    0.8041   -3.0244    3.9371 H   0  0  0  0  0  0  0  0  0  0  0  0
    3.6207   -2.2951    3.2398 H   0  0  0  0  0  0  0  0  0  0  0  0
    3.0854   -3.8191    3.8896 H   0  0  0  0  0  0  0  0  0  0  0  0
    1.7999   -4.4266    1.9495 H   0  0  0  0  0  0  0  0  0  0  0  0
    3.3489   -1.0422    0.8029 H   0  0  0  0  0  0  0  0  0  0  0  0
    4.7480   -2.0034    1.3117 H   0  0  0  0  0  0  0  0  0  0  0  0
    4.5534   -0.9987   -1.2354 H   0  0  0  0  0  0  0  0  0  0  0  0
    5.3435   -2.5342   -0.8655 H   0  0  0  0  0  0  0  0  0  0  0  0
    2.5376   -2.0862   -1.9190 H   0  0  0  0  0  0  0  0  0  0  0  0
    3.4795   -4.3366   -2.7248 H   0  0  0  0  0  0  0  0  0  0  0  0
    3.2261   -4.7226   -0.5967 H   0  0  0  0  0  0  0  0  0  0  0  0
    1.6550   -3.9238   -0.7554 H   0  0  0  0  0  0  0  0  0  0  0  0
    0.3770   -1.7232    7.1860 H   0  0  0  0  0  0  0  0  0  0  0  0
    0.2060   -3.2291    6.2951 H   0  0  0  0  0  0  0  0  0  0  0  0
   -0.4619   -1.7620    5.6347 H   0  0  0  0  0  0  0  0  0  0  0  0
    2.8007   -2.5074    7.2777 H   0  0  0  0  0  0  0  0  0  0  0  0
    3.7594   -2.6751    5.8301 H   0  0  0  0  0  0  0  0  0  0  0  0
    2.4858   -3.8208    6.1585 H   0  0  0  0  0  0  0  0  0  0  0  0
    2.2408   -0.2942    6.7262 H   0  0  0  0  0  0  0  0  0  0  0  0
    4.0787   -0.8661    4.7555 H   0  0  0  0  0  0  0  0  0  0  0  0
    5.3331    2.2813    6.6324 H   0  0  0  0  0  0  0  0  0  0  0  0
    5.7055    1.7432    5.0347 H   0  0  0  0  0  0  0  0  0  0  0  0
    4.5952    3.7001    4.5481 H   0  0  0  0  0  0  0  0  0  0  0  0
    2.4849    1.7725    6.5962 H   0  0  0  0  0  0  0  0  0  0  0  0
   -0.0866    2.2140    8.6333 H   0  0  0  0  0  0  0  0  0  0  0  0
    1.6076    2.4161    8.7215 H   0  0  0  0  0  0  0  0  0  0  0  0
    1.0389    1.0193    7.9998 H   0  0  0  0  0  0  0  0  0  0  0  0
    0.6339    4.7571    7.7316 H   0  0  0  0  0  0  0  0  0  0  0  0
    1.7226    4.9264    6.4172 H   0  0  0  0  0  0  0  0  0  0  0  0
    2.2322    4.1064    7.7851 H   0  0  0  0  0  0  0  0  0  0  0  0
    0.4567    2.1232    3.9012 H   0  0  0  0  0  0  0  0  0  0  0  0
   -1.9453    3.1935    3.9186 H   0  0  0  0  0  0  0  0  0  0  0  0
    0.0003    4.9875    3.4002 H   0  0  0  0  0  0  0  0  0  0  0  0
    0.9065    5.8382    4.5509 H   0  0  0  0  0  0  0  0  0  0  0  0
    2.3469    5.6411    2.6664 H   0  0  0  0  0  0  0  0  0  0  0  0
    3.7676    4.7060    2.9308 H   0  0  0  0  0  0  0  0  0  0  0  0
    3.1755    5.7321    4.2111 H   0  0  0  0  0  0  0  0  0  0  0  0
    1.0588    2.9035    2.1923 H   0  0  0  0  0  0  0  0  0  0  0  0
    2.7378    3.0872    2.1198 H   0  0  0  0  0  0  0  0  0  0  0  0
    2.3824    0.8529    2.0183 H   0  0  0  0  0  0  0  0  0  0  0  0
  1  2  1  0
  1 43  1  0
  1 44  1  0
  1 45  1  0
  2 34  1  0
  2  3  1  0
  2 46  1  6
  3  4  1  0
  3 47  1  0
  3 48  1  0
  4  5  1  0
  4 49  1  0
  4 50  1  0
  5 32  1  0
  5  6  1  6
  7  5  1  1
  6 51  1  0
  7 22  1  0
  7 28  1  0
  7  8  1  0
  8 41  1  0
  8  9  1  0
  8 52  1  6
  9 10  1  0
  9 53  1  0
  9 54  1  0
 10 11  1  0
 10 19  1  0
 10 55  1  1
 11 12  1  0
 11 56  1  0
 11 57  1  0
 12 13  2  3
 12 58  1  0
 13 18  1  0
 13 14  1  0
 14 15  1  0
 14 59  1  0
 14 60  1  0
 15 16  1  0
 15 61  1  0
 15 62  1  0
 16 17  1  0
 16 18  1  0
 16 63  1  6
 17 64  1  0
 18 65  1  0
 18 66  1  0
 19 20  1  0
 19 21  1  0
 19 22  1  0
 20 67  1  0
 20 68  1  0
 20 69  1  0
 21 70  1  0
 21 71  1  0
 21 72  1  0
 22 23  1  0
 22 73  1  1
 23 42  1  0
 23 24  1  0
 23 74  1  6
 24 25  1  0
 25 26  1  0
 25 75  1  0
 25 76  1  0
 26 27  2  3
 26 77  1  0
 27 38  1  0
 27 28  1  0
 28 29  1  0
 28 78  1  1
 29 30  1  0
 29 31  1  0
 29 32  1  0
 30 79  1  0
 30 80  1  0
 30 81  1  0
 31 82  1  0
 31 83  1  0
 31 84  1  0
 32 33  1  6
 32 34  1  0
 33 85  1  0
 34 35  1  6
 34 36  1  0
 35 86  1  0
 36 37  1  0
 37 38  1  0
 37 87  1  0
 37 88  1  0
 38 39  1  6
 38 40  1  0
 39 89  1  0
 39 90  1  0
 39 91  1  0
 40 41  1  0
 40 92  1  0
 40 93  1  0
 41 42  1  0
 41 94  1  6
M  END
>  <i_m_ct_stereo_status>  (13) 
1

>  <s_m_source_file>  (13) 
/var/tmp/pbs.5076255.sched01/tmp7dv9smms/08akalw19.sdf

>  <i_m_source_file_index>  (13) 
5

>  <i_lp_mmshare_version>  (13) 
48012

>  <i_f3d_flags>  (13) 
0

>  <s_epik_input>  (13) 
W0NIMl0xW0NIMl1bQ0BASF0oW0NIM10pW0NAXShbT0hdKShbQ0BdMihbT0hdKVtDQF0xKFtDQF0zNDUpW09IXSlPW0NIMl1bQ0BAXTYoW0NIM10pQyhcW0NAQEhdNUMyKFtDSDNdKVtDSDNdKT1bQ0hdXFtDSDJdT1tDQEhdN1tDQEBIXTRDKFtDSDNdKShbQ0gzXSlbQ0BASF0oW0NIMl1bQ0BASF0zW0NASF0oTzcpW0NIMl02KVtDSDJdL1tDSF09QzhcW0NIMl1bQ0gyXVtDQEBIXShbT0hdKVtDSDJdOA==

>  <s_epik_cmdline>  (13) 
J2VwaWtfcHl0aG9uJywgJy1waHQnLCAnMi4wJywgJy1waCcsICc3LjAnLCAnLXRuJywgJzgnLCAnLW1hJywgJzIwMCcsICctaW1hZScsICc8aW5maWxlLm1hZT4nLCAnLW9tYWUnLCAnPG91dGZpbGUubWFlPic=

>  <r_lp_tautomer_probability>  (13) 
1

>  <r_epik_Ionization_Penalty>  (13) 
7.37587e-07

>  <r_epik_Ionization_Penalty_Charging>  (13) 
0

>  <r_epik_Ionization_Penalty_Neutral>  (13) 
7.37587e-07

>  <r_epik_State_Penalty>  (13) 
-0

>  <r_epik_Charging_Adjusted_Penalty>  (13) 
0

>  <i_epik_Tot_Q>  (13) 
0

>  <i_epik_Tot_abs_Q>  (13) 
0

>  <s_epik_Chemistry_Notes>  (13) 
This compound contains an acetal/aminal-like group ( X-CH(R)-Y where X, Y are N, S, or O) that may be acid/base labile, releasing an aldehyde.

>  <s_lp_Force_Field>  (13) 
OPLS3e

>  <r_lp_Energy>  (13) 
384.252

>  <b_lp_Chiralities_Consistent>  (13) 
1

>  <s_lp_Variant>  (13) 
0:0-5

>  <s_i_glide_gridfile>  (13) 
pfpi4k_grid

>  <i_i_glide_lignum>  (13) 
5

>  <i_i_glide_rotatable_bonds>  (13) 
6

>  <r_i_docking_score>  (13) 
-3.15598

>  <r_i_glide_ligand_efficiency>  (13) 
-0.0751424

>  <r_i_glide_ligand_efficiency_sa>  (13) 
-0.261197

>  <r_i_glide_ligand_efficiency_ln>  (13) 
-0.666146

>  <r_i_glide_gscore>  (13) 
-3.15598

>  <r_i_glide_lipo>  (13) 
-0.155292

>  <r_i_glide_hbond>  (13) 
-0.32

>  <r_i_glide_metal>  (13) 
-0

>  <r_i_glide_rewards>  (13) 
-0.500714

>  <r_i_glide_evdw>  (13) 
-25.2879

>  <r_i_glide_ecoul>  (13) 
-6.17177

>  <r_i_glide_erotb>  (13) 
0.0186197

>  <r_i_glide_esite>  (13) 
-0.00843592

>  <r_i_glide_emodel>  (13) 
-40.589

>  <r_i_glide_energy>  (13) 
-31.4597

>  <r_i_glide_einternal>  (13) 
1.78414

>  <r_i_glide_intrahb_reward>  (13) 
-0.5

>  <i_i_glide_confnum>  (13) 
2

>  <i_i_glide_posenum>  (13) 
1

>  <r_i_glide_eff_state_penalty>  (13) 
0

>  <ligand_id>  (13) 
0

>  <original_smiles>  (13) 
CC1CCC2(O)C34C5CC(CC=C6CCC(O)C6)C(C)(C)C3C3OCC=C6C4C(C)(C)C2(O)C1(O)OCC6(C)CC5O3

>  <smiles>  (13) 
[H]OC1([H])C([H])([H])C(=C([H])C([H])([H])C2([H])C([H])([H])C3([H])C4([H])OC5([H])OC([H])([H])C([H])=C6C7([H])C(C([H])([H])[H])(C([H])([H])[H])C8(O[H])C(O[H])(OC([H])([H])C6(C([H])([H])[H])C4([H])[H])C([H])(C([H])([H])[H])C([H])([H])C([H])([H])C8(O[H])C73C5([H])C2(C([H])([H])[H])C([H])([H])[H])C([H])([H])C1([H])[H]

$$$$
0:4:1
     RDKit          3D

 94101  0  0  1  0  0  0  0  0999 V2000
   -1.8685    4.3079    8.2222 C   0  0  0  0  0  0  0  0  0  0  0  0
   -2.2009    3.3738    7.0406 C   0  0  2  0  0  0  0  0  0  0  0  0
   -2.4427    1.8332    7.3602 C   0  0  0  0  0  0  0  0  0  0  0  0
   -1.3929    0.7112    6.9461 C   0  0  0  0  0  0  0  0  0  0  0  0
   -0.5591    0.9624    5.6363 C   0  0  2  0  0  0  0  0  0  0  0  0
   -1.4673    0.3439    4.6806 O   0  0  0  0  0  0  0  0  0  0  0  0
    1.0471    0.6957    5.2441 C   0  0  2  0  0  0  0  0  0  0  0  0
    1.1466    0.3816    3.6761 C   0  0  2  0  0  0  0  0  0  0  0  0
    0.9393   -1.0937    3.2015 C   0  0  0  0  0  0  0  0  0  0  0  0
    1.5658   -2.2553    3.9933 C   0  0  1  0  0  0  0  0  0  0  0  0
    2.7793   -2.9654    3.3244 C   0  0  0  0  0  0  0  0  0  0  0  0
    2.4729   -3.5839    1.9640 C   0  0  0  0  0  0  0  0  0  0  0  0
    2.9722   -3.1502    0.7985 C   0  0  0  0  0  0  0  0  0  0  0  0
    3.8958   -1.9575    0.6293 C   0  0  0  0  0  0  0  0  0  0  0  0
    4.3766   -1.9933   -0.8203 C   0  0  0  0  0  0  0  0  0  0  0  0
    3.3062   -2.7900   -1.5760 C   0  0  1  0  0  0  0  0  0  0  0  0
    3.8429   -3.4592   -2.6978 O   0  0  0  0  0  0  0  0  0  0  0  0
    2.7362   -3.7824   -0.5527 C   0  0  0  0  0  0  0  0  0  0  0  0
    1.7140   -1.8959    5.4948 C   0  0  0  0  0  0  0  0  0  0  0  0
    0.3734   -2.1886    6.1846 C   0  0  0  0  0  0  0  0  0  0  0  0
    2.7209   -2.7942    6.2484 C   0  0  0  0  0  0  0  0  0  0  0  0
    2.0678   -0.3884    5.6881 C   0  0  1  0  0  0  0  0  0  0  0  0
    3.4836   -0.0045    5.0290 C   0  0  2  0  0  0  0  0  0  0  0  0
    4.2480    0.6195    6.0266 O   0  0  0  0  0  0  0  0  0  0  0  0
    4.8648    1.8853    5.7951 C   0  0  0  0  0  0  0  0  0  0  0  0
    3.9857    2.9791    5.1837 C   0  0  0  0  0  0  0  0  0  0  0  0
    2.6300    3.0146    5.0789 C   0  0  0  0  0  0  0  0  0  0  0  0
    1.7764    2.0243    5.8692 C   0  0  1  0  0  0  0  0  0  0  0  0
    0.8003    2.7690    6.6822 C   0  0  0  0  0  0  0  0  0  0  0  0
    0.7959    2.0489    8.0879 C   0  0  0  0  0  0  0  0  0  0  0  0
    1.3451    4.1824    7.1901 C   0  0  0  0  0  0  0  0  0  0  0  0
   -0.3987    2.4980    5.6058 C   0  0  1  0  0  0  0  0  0  0  0  0
   -0.3538    2.4784    4.1955 O   0  0  0  0  0  0  0  0  0  0  0  0
   -1.4410    3.5561    5.6804 C   0  0  1  0  0  0  0  0  0  0  0  0
   -2.4445    3.5064    4.6830 O   0  0  0  0  0  0  0  0  0  0  0  0
   -0.5742    4.7156    5.4684 O   0  0  0  0  0  0  0  0  0  0  0  0
    0.5321    4.8167    4.3850 C   0  0  0  0  0  0  0  0  0  0  0  0
    1.9357    3.8866    4.0210 C   0  0  1  0  0  0  0  0  0  0  0  0
    2.8662    5.0244    3.4958 C   0  0  0  0  0  0  0  0  0  0  0  0
    1.9821    2.7815    2.8466 C   0  0  0  0  0  0  0  0  0  0  0  0
    2.2897    1.1821    3.0884 C   0  0  1  0  0  0  0  0  0  0  0  0
    3.4889    0.6940    3.7444 O   0  0  0  0  0  0  0  0  0  0  0  0
   -1.0531    3.9889    8.8632 H   0  0  0  0  0  0  0  0  0  0  0  0
   -2.7362    4.3728    8.8781 H   0  0  0  0  0  0  0  0  0  0  0  0
   -1.6624    5.3209    7.8750 H   0  0  0  0  0  0  0  0  0  0  0  0
   -3.2130    3.7205    6.8200 H   0  0  0  0  0  0  0  0  0  0  0  0
   -2.7159    1.7347    8.4125 H   0  0  0  0  0  0  0  0  0  0  0  0
   -3.3739    1.5848    6.8528 H   0  0  0  0  0  0  0  0  0  0  0  0
   -0.8558    0.3163    7.7997 H   0  0  0  0  0  0  0  0  0  0  0  0
   -1.9773   -0.1626    6.7126 H   0  0  0  0  0  0  0  0  0  0  0  0
   -1.2152    0.5953    3.7912 H   0  0  0  0  0  0  0  0  0  0  0  0
    0.3753    0.7530    3.0253 H   0  0  0  0  0  0  0  0  0  0  0  0
   -0.1463   -1.2880    3.0976 H   0  0  0  0  0  0  0  0  0  0  0  0
    1.3617   -1.1299    2.2079 H   0  0  0  0  0  0  0  0  0  0  0  0
    0.8326   -3.0481    3.9515 H   0  0  0  0  0  0  0  0  0  0  0  0
    3.6386   -2.3013    3.2759 H   0  0  0  0  0  0  0  0  0  0  0  0
    3.0954   -3.8320    3.9064 H   0  0  0  0  0  0  0  0  0  0  0  0
    1.8318   -4.4624    1.9921 H   0  0  0  0  0  0  0  0  0  0  0  0
    3.3206   -1.0536    0.8019 H   0  0  0  0  0  0  0  0  0  0  0  0
    4.7400   -1.9861    1.3126 H   0  0  0  0  0  0  0  0  0  0  0  0
    4.5210   -0.9874   -1.2238 H   0  0  0  0  0  0  0  0  0  0  0  0
    5.3346   -2.5144   -0.8558 H   0  0  0  0  0  0  0  0  0  0  0  0
    2.5105   -2.1097   -1.8940 H   0  0  0  0  0  0  0  0  0  0  0  0
    3.4312   -4.3246   -2.7522 H   0  0  0  0  0  0  0  0  0  0  0  0
    3.2755   -4.7294   -0.5658 H   0  0  0  0  0  0  0  0  0  0  0  0
    1.6826   -3.9751   -0.7405 H   0  0  0  0  0  0  0  0  0  0  0  0
    0.3635   -1.7652    7.1892 H   0  0  0  0  0  0  0  0  0  0  0  0
    0.1996   -3.2626    6.2816 H   0  0  0  0  0  0  0  0  0  0  0  0
   -0.4662   -1.7846    5.6311 H   0  0  0  0  0  0  0  0  0  0  0  0
    2.7537   -2.5408    7.3084 H   0  0  0  0  0  0  0  0  0  0  0  0
    3.7346   -2.7109    5.8744 H   0  0  0  0  0  0  0  0  0  0  0  0
    2.4483   -3.8487    6.1755 H   0  0  0  0  0  0  0  0  0  0  0  0
    2.2094   -0.3252    6.7655 H   0  0  0  0  0  0  0  0  0  0  0  0
    4.0549   -0.8966    4.8298 H   0  0  0  0  0  0  0  0  0  0  0  0
    5.3063    2.2489    6.7199 H   0  0  0  0  0  0  0  0  0  0  0  0
    5.6990    1.6841    5.1285 H   0  0  0  0  0  0  0  0  0  0  0  0
    4.5914    3.6816    4.6381 H   0  0  0  0  0  0  0  0  0  0  0  0
    2.4606    1.7321    6.6370 H   0  0  0  0  0  0  0  0  0  0  0  0
   -0.1128    2.1770    8.6571 H   0  0  0  0  0  0  0  0  0  0  0  0
    1.5850    2.3783    8.7590 H   0  0  0  0  0  0  0  0  0  0  0  0
    1.0194    0.9875    8.0166 H   0  0  0  0  0  0  0  0  0  0  0  0
    0.6144    4.7193    7.7773 H   0  0  0  0  0  0  0  0  0  0  0  0
    1.7162    4.8971    6.4683 H   0  0  0  0  0  0  0  0  0  0  0  0
    2.2151    4.0630    7.8388 H   0  0  0  0  0  0  0  0  0  0  0  0
   -1.2228    2.1849    3.9267 H   0  0  0  0  0  0  0  0  0  0  0  0
   -2.0041    3.6208    3.8380 H   0  0  0  0  0  0  0  0  0  0  0  0
    0.0097    4.9592    3.4384 H   0  0  0  0  0  0  0  0  0  0  0  0
    0.9129    5.8113    4.6048 H   0  0  0  0  0  0  0  0  0  0  0  0
    2.3467    5.6221    2.7479 H   0  0  0  0  0  0  0  0  0  0  0  0
    3.7762    4.6764    3.0036 H   0  0  0  0  0  0  0  0  0  0  0  0
    3.1760    5.6944    4.2947 H   0  0  0  0  0  0  0  0  0  0  0  0
    1.0830    2.8847    2.2462 H   0  0  0  0  0  0  0  0  0  0  0  0
    2.7586    3.0834    2.1365 H   0  0  0  0  0  0  0  0  0  0  0  0
    2.3993    0.8408    2.0609 H   0  0  0  0  0  0  0  0  0  0  0  0
  1  2  1  0
  1 43  1  0
  1 44  1  0
  1 45  1  0
  2 34  1  0
  2  3  1  0
  2 46  1  6
  3  4  1  0
  3 47  1  0
  3 48  1  0
  4  5  1  0
  4 49  1  0
  4 50  1  0
  5 32  1  0
  5  6  1  6
  7  5  1  1
  6 51  1  0
  7 22  1  0
  7 28  1  0
  7  8  1  0
  8 41  1  0
  8  9  1  0
  8 52  1  6
  9 10  1  0
  9 53  1  0
  9 54  1  0
 10 11  1  0
 10 19  1  0
 10 55  1  1
 11 12  1  0
 11 56  1  0
 11 57  1  0
 12 13  2  3
 12 58  1  0
 13 18  1  0
 13 14  1  0
 14 15  1  0
 14 59  1  0
 14 60  1  0
 15 16  1  0
 15 61  1  0
 15 62  1  0
 16 17  1  0
 16 18  1  0
 16 63  1  6
 17 64  1  0
 18 65  1  0
 18 66  1  0
 19 20  1  0
 19 21  1  0
 19 22  1  0
 20 67  1  0
 20 68  1  0
 20 69  1  0
 21 70  1  0
 21 71  1  0
 21 72  1  0
 22 23  1  0
 22 73  1  1
 23 42  1  0
 23 24  1  0
 23 74  1  6
 24 25  1  0
 25 26  1  0
 25 75  1  0
 25 76  1  0
 26 27  2  3
 26 77  1  0
 27 38  1  0
 27 28  1  0
 28 29  1  0
 28 78  1  1
 29 30  1  0
 29 31  1  0
 29 32  1  0
 30 79  1  0
 30 80  1  0
 30 81  1  0
 31 82  1  0
 31 83  1  0
 31 84  1  0
 32 33  1  6
 32 34  1  0
 33 85  1  0
 34 35  1  6
 34 36  1  0
 35 86  1  0
 36 37  1  0
 37 38  1  0
 37 87  1  0
 37 88  1  0
 38 39  1  6
 38 40  1  0
 39 89  1  0
 39 90  1  0
 39 91  1  0
 40 41  1  0
 40 92  1  0
 40 93  1  0
 41 42  1  0
 41 94  1  6
M  END
>  <i_m_ct_stereo_status>  (14) 
1

>  <s_m_source_file>  (14) 
/var/tmp/pbs.5076255.sched01/tmp7dv9smms/08akalw19.sdf

>  <i_m_source_file_index>  (14) 
5

>  <i_lp_mmshare_version>  (14) 
48012

>  <i_f3d_flags>  (14) 
0

>  <s_epik_input>  (14) 
W0NIMl0xW0NIMl1bQ0BASF0oW0NIM10pW0NAXShbT0hdKShbQ0BdMihbT0hdKVtDQF0xKFtDQF0zNDUpW09IXSlPW0NIMl1bQ0BAXTYoW0NIM10pQyhcW0NAQEhdNUMyKFtDSDNdKVtDSDNdKT1bQ0hdXFtDSDJdT1tDQEhdN1tDQEBIXTRDKFtDSDNdKShbQ0gzXSlbQ0BASF0oW0NIMl1bQ0BASF0zW0NASF0oTzcpW0NIMl02KVtDSDJdL1tDSF09QzhcW0NIMl1bQ0gyXVtDQEBIXShbT0hdKVtDSDJdOA==

>  <s_epik_cmdline>  (14) 
J2VwaWtfcHl0aG9uJywgJy1waHQnLCAnMi4wJywgJy1waCcsICc3LjAnLCAnLXRuJywgJzgnLCAnLW1hJywgJzIwMCcsICctaW1hZScsICc8aW5maWxlLm1hZT4nLCAnLW9tYWUnLCAnPG91dGZpbGUubWFlPic=

>  <r_lp_tautomer_probability>  (14) 
1

>  <r_epik_Ionization_Penalty>  (14) 
7.37587e-07

>  <r_epik_Ionization_Penalty_Charging>  (14) 
0

>  <r_epik_Ionization_Penalty_Neutral>  (14) 
7.37587e-07

>  <r_epik_State_Penalty>  (14) 
-0

>  <r_epik_Charging_Adjusted_Penalty>  (14) 
0

>  <i_epik_Tot_Q>  (14) 
0

>  <i_epik_Tot_abs_Q>  (14) 
0

>  <s_epik_Chemistry_Notes>  (14) 
This compound contains an acetal/aminal-like group ( X-CH(R)-Y where X, Y are N, S, or O) that may be acid/base labile, releasing an aldehyde.

>  <s_lp_Force_Field>  (14) 
OPLS3e

>  <r_lp_Energy>  (14) 
384.252

>  <b_lp_Chiralities_Consistent>  (14) 
1

>  <s_lp_Variant>  (14) 
0:0-5

>  <s_i_glide_gridfile>  (14) 
pfpi4k_grid

>  <i_i_glide_lignum>  (14) 
5

>  <i_i_glide_rotatable_bonds>  (14) 
6

>  <r_i_docking_score>  (14) 
-2.59356

>  <r_i_glide_ligand_efficiency>  (14) 
-0.0617514

>  <r_i_glide_ligand_efficiency_sa>  (14) 
-0.214649

>  <r_i_glide_ligand_efficiency_ln>  (14) 
-0.547433

>  <r_i_glide_gscore>  (14) 
-2.59356

>  <r_i_glide_lipo>  (14) 
-0.15162

>  <r_i_glide_hbond>  (14) 
-0.32

>  <r_i_glide_metal>  (14) 
-0

>  <r_i_glide_rewards>  (14) 
-0.000558743

>  <r_i_glide_evdw>  (14) 
-25.9266

>  <r_i_glide_ecoul>  (14) 
-5.57551

>  <r_i_glide_erotb>  (14) 
0.0186197

>  <r_i_glide_esite>  (14) 
-0.00734015

>  <r_i_glide_emodel>  (14) 
-34.5772

>  <r_i_glide_energy>  (14) 
-31.5021

>  <r_i_glide_einternal>  (14) 
1.52377

>  <r_i_glide_intrahb_reward>  (14) 
-0

>  <i_i_glide_confnum>  (14) 
2

>  <i_i_glide_posenum>  (14) 
6

>  <r_i_glide_eff_state_penalty>  (14) 
0

>  <ligand_id>  (14) 
0

>  <original_smiles>  (14) 
CC1CCC2(O)C34C5CC(CC=C6CCC(O)C6)C(C)(C)C3C3OCC=C6C4C(C)(C)C2(O)C1(O)OCC6(C)CC5O3

>  <smiles>  (14) 
[H]OC1([H])C([H])([H])C(=C([H])C([H])([H])C2([H])C([H])([H])C3([H])C4([H])OC5([H])OC([H])([H])C([H])=C6C7([H])C(C([H])([H])[H])(C([H])([H])[H])C8(O[H])C(O[H])(OC([H])([H])C6(C([H])([H])[H])C4([H])[H])C([H])(C([H])([H])[H])C([H])([H])C([H])([H])C8(O[H])C73C5([H])C2(C([H])([H])[H])C([H])([H])[H])C([H])([H])C1([H])[H]

$$$$
0:4:2
     RDKit          3D

 94101  0  0  1  0  0  0  0  0999 V2000
   -1.7774    3.5707    9.5138 C   0  0  0  0  0  0  0  0  0  0  0  0
   -2.0128    2.9764    8.1109 C   0  0  2  0  0  0  0  0  0  0  0  0
   -1.8307    1.4114    7.8987 C   0  0  0  0  0  0  0  0  0  0  0  0
   -0.5863    0.7636    7.1514 C   0  0  0  0  0  0  0  0  0  0  0  0
    0.0005    1.6176    5.9660 C   0  0  2  0  0  0  0  0  0  0  0  0
   -0.8068    1.0883    4.8984 O   0  0  0  0  0  0  0  0  0  0  0  0
    1.5650    1.9548    5.4469 C   0  0  2  0  0  0  0  0  0  0  0  0
    1.5346    2.1649    3.8534 C   0  0  2  0  0  0  0  0  0  0  0  0
    1.6872    0.9184    2.9272 C   0  0  0  0  0  0  0  0  0  0  0  0
    2.6628   -0.2193    3.2954 C   0  0  1  0  0  0  0  0  0  0  0  0
    3.9212   -0.3219    2.3850 C   0  0  0  0  0  0  0  0  0  0  0  0
    3.6118   -0.5849    0.9174 C   0  0  0  0  0  0  0  0  0  0  0  0
    4.2673   -1.4494    0.1071 C   0  0  0  0  0  0  0  0  0  0  0  0
    5.4222   -2.3421    0.5064 C   0  0  0  0  0  0  0  0  0  0  0  0
    5.6487   -3.2829   -0.6826 C   0  0  0  0  0  0  0  0  0  0  0  0
    5.0725   -2.5449   -1.8953 C   0  0  1  0  0  0  0  0  0  0  0  0
    4.6305   -3.4264   -2.9080 O   0  0  0  0  0  0  0  0  0  0  0  0
    3.9358   -1.6657   -1.3506 C   0  0  0  0  0  0  0  0  0  0  0  0
    2.8982   -0.2963    4.8322 C   0  0  0  0  0  0  0  0  0  0  0  0
    1.7653   -1.1437    5.4526 C   0  0  0  0  0  0  0  0  0  0  0  0
    4.1929   -1.0581    5.2258 C   0  0  0  0  0  0  0  0  0  0  0  0
    2.8798    1.1176    5.4947 C   0  0  1  0  0  0  0  0  0  0  0  0
    4.0532    2.0691    4.9372 C   0  0  2  0  0  0  0  0  0  0  0  0
    4.7685    2.5536    6.0473 O   0  0  0  0  0  0  0  0  0  0  0  0
    5.0225    3.9594    6.1910 C   0  0  0  0  0  0  0  0  0  0  0  0
    3.8179    4.8998    6.0083 C   0  0  0  0  0  0  0  0  0  0  0  0
    2.5077    4.5866    5.9731 C   0  0  0  0  0  0  0  0  0  0  0  0
    2.0141    3.1944    6.4308 C   0  0  1  0  0  0  0  0  0  0  0  0
    0.9807    3.3592    7.4632 C   0  0  0  0  0  0  0  0  0  0  0  0
    1.3288    2.2816    8.5702 C   0  0  0  0  0  0  0  0  0  0  0  0
    1.2144    4.6480    8.3827 C   0  0  0  0  0  0  0  0  0  0  0  0
   -0.2427    3.0860    6.3940 C   0  0  1  0  0  0  0  0  0  0  0  0
   -0.3771    3.5023    5.0365 O   0  0  0  0  0  0  0  0  0  0  0  0
   -1.4753    3.7533    6.8716 C   0  0  1  0  0  0  0  0  0  0  0  0
   -2.5341    3.7304    5.9380 O   0  0  0  0  0  0  0  0  0  0  0  0
   -0.9362    5.1092    6.9996 O   0  0  0  0  0  0  0  0  0  0  0  0
   -0.0394    5.8319    5.9610 C   0  0  0  0  0  0  0  0  0  0  0  0
    1.4746    5.4896    5.2593 C   0  0  1  0  0  0  0  0  0  0  0  0
    2.0242    6.9474    5.0830 C   0  0  0  0  0  0  0  0  0  0  0  0
    1.6281    4.8333    3.7899 C   0  0  0  0  0  0  0  0  0  0  0  0
    2.3523    3.3912    3.5164 C   0  0  1  0  0  0  0  0  0  0  0  0
    3.6841    3.1246    4.0172 O   0  0  0  0  0  0  0  0  0  0  0  0
   -0.8344    3.3248    9.9859 H   0  0  0  0  0  0  0  0  0  0  0  0
   -2.5389    3.1984   10.1977 H   0  0  0  0  0  0  0  0  0  0  0  0
   -1.8858    4.6546    9.4983 H   0  0  0  0  0  0  0  0  0  0  0  0
   -3.0969    3.1143    8.0668 H   0  0  0  0  0  0  0  0  0  0  0  0
   -1.9065    0.9553    8.8776 H   0  0  0  0  0  0  0  0  0  0  0  0
   -2.7091    1.1003    7.3277 H   0  0  0  0  0  0  0  0  0  0  0  0
    0.1250    0.3363    7.8436 H   0  0  0  0  0  0  0  0  0  0  0  0
   -0.9475   -0.1763    6.7438 H   0  0  0  0  0  0  0  0  0  0  0  0
   -0.8072    1.7430    4.2058 H   0  0  0  0  0  0  0  0  0  0  0  0
    0.6026    2.4495    3.3845 H   0  0  0  0  0  0  0  0  0  0  0  0
    0.6953    0.4620    2.7648 H   0  0  0  0  0  0  0  0  0  0  0  0
    1.9652    1.3149    1.9612 H   0  0  0  0  0  0  0  0  0  0  0  0
    2.1399   -1.1348    3.0317 H   0  0  0  0  0  0  0  0  0  0  0  0
    4.5529    0.5552    2.4529 H   0  0  0  0  0  0  0  0  0  0  0  0
    4.5245   -1.1619    2.7174 H   0  0  0  0  0  0  0  0  0  0  0  0
    2.8057   -0.0156    0.4849 H   0  0  0  0  0  0  0  0  0  0  0  0
    6.2977   -1.7179    0.6844 H   0  0  0  0  0  0  0  0  0  0  0  0
    5.2037   -2.9137    1.4072 H   0  0  0  0  0  0  0  0  0  0  0  0
    6.7018   -3.5410   -0.8070 H   0  0  0  0  0  0  0  0  0  0  0  0
    5.1001   -4.2089   -0.5044 H   0  0  0  0  0  0  0  0  0  0  0  0
    5.8458   -1.8942   -2.3083 H   0  0  0  0  0  0  0  0  0  0  0  0
    4.0079   -4.0440   -2.5308 H   0  0  0  0  0  0  0  0  0  0  0  0
    2.9705   -2.1704   -1.4099 H   0  0  0  0  0  0  0  0  0  0  0  0
    3.8622   -0.7182   -1.8879 H   0  0  0  0  0  0  0  0  0  0  0  0
    1.7610   -1.0534    6.5406 H   0  0  0  0  0  0  0  0  0  0  0  0
    1.8741   -2.2055    5.2157 H   0  0  0  0  0  0  0  0  0  0  0  0
    0.7869   -0.8480    5.0833 H   0  0  0  0  0  0  0  0  0  0  0  0
    4.2978   -1.1321    6.3088 H   0  0  0  0  0  0  0  0  0  0  0  0
    5.0981   -0.5831    4.8578 H   0  0  0  0  0  0  0  0  0  0  0  0
    4.1952   -2.0779    4.8355 H   0  0  0  0  0  0  0  0  0  0  0  0
    3.1367    0.8965    6.5307 H   0  0  0  0  0  0  0  0  0  0  0  0
    4.7845    1.4910    4.3909 H   0  0  0  0  0  0  0  0  0  0  0  0
    5.4671    4.1387    7.1633 H   0  0  0  0  0  0  0  0  0  0  0  0
    5.7722    4.2450    5.4557 H   0  0  0  0  0  0  0  0  0  0  0  0
    4.1733    5.8616    5.6578 H   0  0  0  0  0  0  0  0  0  0  0  0
    2.8469    2.9031    7.0490 H   0  0  0  0  0  0  0  0  0  0  0  0
    0.4924    1.9808    9.1881 H   0  0  0  0  0  0  0  0  0  0  0  0
    2.0843    2.6013    9.2890 H   0  0  0  0  0  0  0  0  0  0  0  0
    1.8037    1.3866    8.1722 H   0  0  0  0  0  0  0  0  0  0  0  0
    0.4489    4.7716    9.1347 H   0  0  0  0  0  0  0  0  0  0  0  0
    1.3082    5.6207    7.9209 H   0  0  0  0  0  0  0  0  0  0  0  0
    2.1566    4.5984    8.9309 H   0  0  0  0  0  0  0  0  0  0  0  0
    0.4827    3.3766    4.6450 H   0  0  0  0  0  0  0  0  0  0  0  0
   -2.0579    3.7019    5.1046 H   0  0  0  0  0  0  0  0  0  0  0  0
   -0.6823    6.0861    5.1239 H   0  0  0  0  0  0  0  0  0  0  0  0
    0.0805    6.7861    6.4717 H   0  0  0  0  0  0  0  0  0  0  0  0
    1.2967    7.5797    4.5700 H   0  0  0  0  0  0  0  0  0  0  0  0
    2.9299    7.0268    4.4816 H   0  0  0  0  0  0  0  0  0  0  0  0
    2.2443    7.4191    6.0420 H   0  0  0  0  0  0  0  0  0  0  0  0
    0.6695    4.8763    3.2710 H   0  0  0  0  0  0  0  0  0  0  0  0
    2.2208    5.5160    3.1842 H   0  0  0  0  0  0  0  0  0  0  0  0
    2.4806    3.3942    2.4338 H   0  0  0  0  0  0  0  0  0  0  0  0
  1  2  1  0
  1 43  1  0
  1 44  1  0
  1 45  1  0
  2 34  1  0
  2  3  1  0
  2 46  1  6
  3  4  1  0
  3 47  1  0
  3 48  1  0
  4  5  1  0
  4 49  1  0
  4 50  1  0
  5 32  1  0
  5  6  1  6
  7  5  1  1
  6 51  1  0
  7 22  1  0
  7 28  1  0
  7  8  1  0
  8 41  1  0
  8  9  1  0
  8 52  1  1
  9 10  1  0
  9 53  1  0
  9 54  1  0
 10 11  1  0
 10 19  1  0
 10 55  1  6
 11 12  1  0
 11 56  1  0
 11 57  1  0
 12 13  2  3
 12 58  1  0
 13 18  1  0
 13 14  1  0
 14 15  1  0
 14 59  1  0
 14 60  1  0
 15 16  1  0
 15 61  1  0
 15 62  1  0
 16 17  1  0
 16 18  1  0
 16 63  1  6
 17 64  1  0
 18 65  1  0
 18 66  1  0
 19 20  1  0
 19 21  1  0
 19 22  1  0
 20 67  1  0
 20 68  1  0
 20 69  1  0
 21 70  1  0
 21 71  1  0
 21 72  1  0
 22 23  1  0
 22 73  1  1
 23 42  1  0
 23 24  1  0
 23 74  1  6
 24 25  1  0
 25 26  1  0
 25 75  1  0
 25 76  1  0
 26 27  2  3
 26 77  1  0
 27 38  1  0
 27 28  1  0
 28 29  1  0
 28 78  1  1
 29 30  1  0
 29 31  1  0
 29 32  1  0
 30 79  1  0
 30 80  1  0
 30 81  1  0
 31 82  1  0
 31 83  1  0
 31 84  1  0
 32 33  1  6
 32 34  1  0
 33 85  1  0
 34 35  1  6
 34 36  1  0
 35 86  1  0
 36 37  1  0
 37 38  1  0
 37 87  1  0
 37 88  1  0
 38 39  1  6
 38 40  1  0
 39 89  1  0
 39 90  1  0
 39 91  1  0
 40 41  1  0
 40 92  1  0
 40 93  1  0
 41 42  1  0
 41 94  1  6
M  END
>  <i_m_ct_stereo_status>  (15) 
1

>  <s_m_source_file>  (15) 
/var/tmp/pbs.5076255.sched01/tmp7dv9smms/08akalw19.sdf

>  <i_m_source_file_index>  (15) 
5

>  <i_lp_mmshare_version>  (15) 
48012

>  <i_f3d_flags>  (15) 
0

>  <s_epik_input>  (15) 
W0NIMl0xW0NIMl1bQ0BASF0oW0NIM10pW0NAXShbT0hdKShbQ0BdMihbT0hdKVtDQF0xKFtDQF0zNDUpW09IXSlPW0NIMl1bQ0BAXTYoW0NIM10pQyhcW0NAQEhdNUMyKFtDSDNdKVtDSDNdKT1bQ0hdXFtDSDJdT1tDQEhdN1tDQEBIXTRDKFtDSDNdKShbQ0gzXSlbQ0BASF0oW0NIMl1bQ0BASF0zW0NASF0oTzcpW0NIMl02KVtDSDJdL1tDSF09QzhcW0NIMl1bQ0gyXVtDQEBIXShbT0hdKVtDSDJdOA==

>  <s_epik_cmdline>  (15) 
J2VwaWtfcHl0aG9uJywgJy1waHQnLCAnMi4wJywgJy1waCcsICc3LjAnLCAnLXRuJywgJzgnLCAnLW1hJywgJzIwMCcsICctaW1hZScsICc8aW5maWxlLm1hZT4nLCAnLW9tYWUnLCAnPG91dGZpbGUubWFlPic=

>  <r_lp_tautomer_probability>  (15) 
1

>  <r_epik_Ionization_Penalty>  (15) 
7.37587e-07

>  <r_epik_Ionization_Penalty_Charging>  (15) 
0

>  <r_epik_Ionization_Penalty_Neutral>  (15) 
7.37587e-07

>  <r_epik_State_Penalty>  (15) 
-0

>  <r_epik_Charging_Adjusted_Penalty>  (15) 
0

>  <i_epik_Tot_Q>  (15) 
0

>  <i_epik_Tot_abs_Q>  (15) 
0

>  <s_epik_Chemistry_Notes>  (15) 
This compound contains an acetal/aminal-like group ( X-CH(R)-Y where X, Y are N, S, or O) that may be acid/base labile, releasing an aldehyde.

>  <s_lp_Force_Field>  (15) 
OPLS3e

>  <r_lp_Energy>  (15) 
384.252

>  <b_lp_Chiralities_Consistent>  (15) 
1

>  <s_lp_Variant>  (15) 
0:0-5

>  <s_i_glide_gridfile>  (15) 
pfpi4k_grid

>  <i_i_glide_lignum>  (15) 
5

>  <i_i_glide_rotatable_bonds>  (15) 
6

>  <r_i_docking_score>  (15) 
-2.42088

>  <r_i_glide_ligand_efficiency>  (15) 
-0.0576399

>  <r_i_glide_ligand_efficiency_sa>  (15) 
-0.200358

>  <r_i_glide_ligand_efficiency_ln>  (15) 
-0.510985

>  <r_i_glide_gscore>  (15) 
-2.42088

>  <r_i_glide_lipo>  (15) 
-0.171704

>  <r_i_glide_hbond>  (15) 
-0.0963972

>  <r_i_glide_metal>  (15) 
-0

>  <r_i_glide_rewards>  (15) 
-0.542559

>  <r_i_glide_evdw>  (15) 
-22.6797

>  <r_i_glide_ecoul>  (15) 
-3.23985

>  <r_i_glide_erotb>  (15) 
0.0186197

>  <r_i_glide_esite>  (15) 
-0.00887473

>  <r_i_glide_emodel>  (15) 
-33.6867

>  <r_i_glide_energy>  (15) 
-25.9195

>  <r_i_glide_einternal>  (15) 
0.82835

>  <r_i_glide_intrahb_reward>  (15) 
-0.5

>  <i_i_glide_confnum>  (15) 
3

>  <i_i_glide_posenum>  (15) 
15

>  <r_i_glide_eff_state_penalty>  (15) 
0

>  <ligand_id>  (15) 
0

>  <original_smiles>  (15) 
CC1CCC2(O)C34C5CC(CC=C6CCC(O)C6)C(C)(C)C3C3OCC=C6C4C(C)(C)C2(O)C1(O)OCC6(C)CC5O3

>  <smiles>  (15) 
[H]OC1([H])C([H])([H])C(=C([H])C([H])([H])C2([H])C([H])([H])C3([H])C4([H])OC5([H])OC([H])([H])C([H])=C6C7([H])C(C([H])([H])[H])(C([H])([H])[H])C8(O[H])C(O[H])(OC([H])([H])C6(C([H])([H])[H])C4([H])[H])C([H])(C([H])([H])[H])C([H])([H])C([H])([H])C8(O[H])C73C5([H])C2(C([H])([H])[H])C([H])([H])[H])C([H])([H])C1([H])[H]

$$$$
0:5:0
     RDKit          3D

 94101  0  0  1  0  0  0  0  0999 V2000
   -2.1365    3.5674    9.1005 C   0  0  0  0  0  0  0  0  0  0  0  0
   -2.2963    2.9757    7.6933 C   0  0  2  0  0  0  0  0  0  0  0  0
   -2.2386    1.4139    7.4980 C   0  0  0  0  0  0  0  0  0  0  0  0
   -0.9966    0.6279    6.8947 C   0  0  0  0  0  0  0  0  0  0  0  0
   -0.2329    1.4143    5.7605 C   0  0  2  0  0  0  0  0  0  0  0  0
   -0.9406    0.9231    4.6176 O   0  0  0  0  0  0  0  0  0  0  0  0
    1.4023    1.5857    5.4001 C   0  0  2  0  0  0  0  0  0  0  0  0
    1.5667    1.7781    3.8213 C   0  0  2  0  0  0  0  0  0  0  0  0
    1.6362    0.5101    2.9276 C   0  0  0  0  0  0  0  0  0  0  0  0
    2.5118   -0.6895    3.3632 C   0  0  1  0  0  0  0  0  0  0  0  0
    3.8213   -0.9521    2.5712 C   0  0  0  0  0  0  0  0  0  0  0  0
    3.6695   -1.0071    1.0551 C   0  0  0  0  0  0  0  0  0  0  0  0
    4.4075   -1.7468    0.2124 C   0  0  0  0  0  0  0  0  0  0  0  0
    4.2398   -1.7091   -1.2797 C   0  0  0  0  0  0  0  0  0  0  0  0
    5.0970   -2.8547   -1.8167 C   0  0  0  0  0  0  0  0  0  0  0  0
    6.1697   -3.0996   -0.7417 C   0  0  1  0  0  0  0  0  0  0  0  0
    7.2738   -2.2564   -1.0239 O   0  0  0  0  0  0  0  0  0  0  0  0
    5.5122   -2.6942    0.5872 C   0  0  0  0  0  0  0  0  0  0  0  0
    2.5848   -0.7831    4.9106 C   0  0  0  0  0  0  0  0  0  0  0  0
    1.3276   -1.5220    5.4317 C   0  0  0  0  0  0  0  0  0  0  0  0
    3.7542   -1.6637    5.4303 C   0  0  0  0  0  0  0  0  0  0  0  0
    2.6281    0.6302    5.5726 C   0  0  1  0  0  0  0  0  0  0  0  0
    3.9416    1.4627    5.1252 C   0  0  2  0  0  0  0  0  0  0  0  0
    4.5848    1.9023    6.2909 O   0  0  0  0  0  0  0  0  0  0  0  0
    4.9492    3.2761    6.4486 C   0  0  0  0  0  0  0  0  0  0  0  0
    3.8658    4.3166    6.1402 C   0  0  0  0  0  0  0  0  0  0  0  0
    2.5402    4.1209    5.9849 C   0  0  0  0  0  0  0  0  0  0  0  0
    1.8751    2.7893    6.4091 C   0  0  1  0  0  0  0  0  0  0  0  0
    0.7659    3.0726    7.3343 C   0  0  0  0  0  0  0  0  0  0  0  0
    0.9099    1.9764    8.4720 C   0  0  0  0  0  0  0  0  0  0  0  0
    1.0377    4.3398    8.2652 C   0  0  0  0  0  0  0  0  0  0  0  0
   -0.3652    2.9010    6.1544 C   0  0  1  0  0  0  0  0  0  0  0  0
   -0.3326    3.2810    4.7900 O   0  0  0  0  0  0  0  0  0  0  0  0
   -1.5630    3.6783    6.5156 C   0  0  1  0  0  0  0  0  0  0  0  0
   -2.5145    3.7341    5.4664 O   0  0  0  0  0  0  0  0  0  0  0  0
   -0.9157    4.9765    6.6727 O   0  0  0  0  0  0  0  0  0  0  0  0
    0.1256    5.6006    5.7172 C   0  0  0  0  0  0  0  0  0  0  0  0
    1.6620    5.1057    5.1746 C   0  0  1  0  0  0  0  0  0  0  0  0
    2.3622    6.5059    5.0497 C   0  0  0  0  0  0  0  0  0  0  0  0
    1.9058    4.4234    3.7332 C   0  0  0  0  0  0  0  0  0  0  0  0
    2.5115    2.9175    3.5507 C   0  0  1  0  0  0  0  0  0  0  0  0
    3.7540    2.5059    4.1479 O   0  0  0  0  0  0  0  0  0  0  0  0
   -1.2765    3.2311    9.6666 H   0  0  0  0  0  0  0  0  0  0  0  0
   -2.9963    3.2744    9.7082 H   0  0  0  0  0  0  0  0  0  0  0  0
   -2.1392    4.6567    9.0773 H   0  0  0  0  0  0  0  0  0  0  0  0
   -3.3476    3.2182    7.5244 H   0  0  0  0  0  0  0  0  0  0  0  0
   -2.4761    1.0427    8.4815 H   0  0  0  0  0  0  0  0  0  0  0  0
   -3.0961    1.1542    6.8826 H   0  0  0  0  0  0  0  0  0  0  0  0
   -0.3987    0.1372    7.6458 H   0  0  0  0  0  0  0  0  0  0  0  0
   -1.4058   -0.2739    6.4434 H   0  0  0  0  0  0  0  0  0  0  0  0
   -0.8773    1.5945    3.9476 H   0  0  0  0  0  0  0  0  0  0  0  0
    0.7075    2.1359    3.2553 H   0  0  0  0  0  0  0  0  0  0  0  0
    0.6474    0.1466    2.6679 H   0  0  0  0  0  0  0  0  0  0  0  0
    2.0193    0.9461    2.0115 H   0  0  0  0  0  0  0  0  0  0  0  0
    1.9208   -1.5561    3.0517 H   0  0  0  0  0  0  0  0  0  0  0  0
    4.5962   -0.2346    2.8078 H   0  0  0  0  0  0  0  0  0  0  0  0
    4.2068   -1.9244    2.8826 H   0  0  0  0  0  0  0  0  0  0  0  0
    2.9628   -0.3835    0.5436 H   0  0  0  0  0  0  0  0  0  0  0  0
    3.1854   -1.8066   -1.5552 H   0  0  0  0  0  0  0  0  0  0  0  0
    4.5935   -0.7431   -1.6483 H   0  0  0  0  0  0  0  0  0  0  0  0
    4.4671   -3.7415   -1.9027 H   0  0  0  0  0  0  0  0  0  0  0  0
    5.5054   -2.6430   -2.8071 H   0  0  0  0  0  0  0  0  0  0  0  0
    6.4805   -4.1444   -0.7035 H   0  0  0  0  0  0  0  0  0  0  0  0
    7.7928   -2.6849   -1.6983 H   0  0  0  0  0  0  0  0  0  0  0  0
    6.2080   -2.2444    1.2992 H   0  0  0  0  0  0  0  0  0  0  0  0
    5.0503   -3.5606    1.0656 H   0  0  0  0  0  0  0  0  0  0  0  0
    1.2229   -1.4150    6.5155 H   0  0  0  0  0  0  0  0  0  0  0  0
    1.3524   -2.5920    5.2136 H   0  0  0  0  0  0  0  0  0  0  0  0
    0.4178   -1.1425    4.9718 H   0  0  0  0  0  0  0  0  0  0  0  0
    3.7584   -1.7261    6.5205 H   0  0  0  0  0  0  0  0  0  0  0  0
    4.7330   -1.2812    5.1426 H   0  0  0  0  0  0  0  0  0  0  0  0
    3.7032   -2.6863    5.0526 H   0  0  0  0  0  0  0  0  0  0  0  0
    2.7721    0.3961    6.6304 H   0  0  0  0  0  0  0  0  0  0  0  0
    4.6808    0.8105    4.6795 H   0  0  0  0  0  0  0  0  0  0  0  0
    5.3167    3.4281    7.4598 H   0  0  0  0  0  0  0  0  0  0  0  0
    5.7935    3.4757    5.7879 H   0  0  0  0  0  0  0  0  0  0  0  0
    4.3370    5.2372    5.8297 H   0  0  0  0  0  0  0  0  0  0  0  0
    2.6150    2.4352    7.1088 H   0  0  0  0  0  0  0  0  0  0  0  0
   -0.0069    1.7613    9.0096 H   0  0  0  0  0  0  0  0  0  0  0  0
    1.6160    2.2326    9.2605 H   0  0  0  0  0  0  0  0  0  0  0  0
    1.3317    1.0341    8.1282 H   0  0  0  0  0  0  0  0  0  0  0  0
    0.2152    4.5413    8.9378 H   0  0  0  0  0  0  0  0  0  0  0  0
    1.2589    5.2909    7.8069 H   0  0  0  0  0  0  0  0  0  0  0  0
    1.9098    4.2087    8.9054 H   0  0  0  0  0  0  0  0  0  0  0  0
    0.5477    3.0939    4.4776 H   0  0  0  0  0  0  0  0  0  0  0  0
   -1.9559    3.6317    4.6896 H   0  0  0  0  0  0  0  0  0  0  0  0
   -0.4267    5.9200    4.8354 H   0  0  0  0  0  0  0  0  0  0  0  0
    0.2936    6.5456    6.2390 H   0  0  0  0  0  0  0  0  0  0  0  0
    1.7485    7.1982    4.4679 H   0  0  0  0  0  0  0  0  0  0  0  0
    3.3263    6.4982    4.5390 H   0  0  0  0  0  0  0  0  0  0  0  0
    2.5315    6.9683    6.0232 H   0  0  0  0  0  0  0  0  0  0  0  0
    1.0092    4.5445    3.1243 H   0  0  0  0  0  0  0  0  0  0  0  0
    2.6195    5.0385    3.1897 H   0  0  0  0  0  0  0  0  0  0  0  0
    2.7316    2.9001    2.4816 H   0  0  0  0  0  0  0  0  0  0  0  0
  1  2  1  0
  1 43  1  0
  1 44  1  0
  1 45  1  0
  2 34  1  0
  2  3  1  0
  2 46  1  6
  3  4  1  0
  3 47  1  0
  3 48  1  0
  4  5  1  0
  4 49  1  0
  4 50  1  0
  5 32  1  0
  5  6  1  6
  7  5  1  6
  6 51  1  0
  7 22  1  0
  7 28  1  0
  7  8  1  0
  8 41  1  0
  8  9  1  0
  8 52  1  6
  9 10  1  0
  9 53  1  0
  9 54  1  0
 10 11  1  0
 10 19  1  0
 10 55  1  6
 11 12  1  0
 11 56  1  0
 11 57  1  0
 12 13  2  3
 12 58  1  0
 13 18  1  0
 13 14  1  0
 14 15  1  0
 14 59  1  0
 14 60  1  0
 15 16  1  0
 15 61  1  0
 15 62  1  0
 16 17  1  0
 16 18  1  0
 16 63  1  1
 17 64  1  0
 18 65  1  0
 18 66  1  0
 19 20  1  0
 19 21  1  0
 19 22  1  0
 20 67  1  0
 20 68  1  0
 20 69  1  0
 21 70  1  0
 21 71  1  0
 21 72  1  0
 22 23  1  0
 22 73  1  1
 23 42  1  0
 23 24  1  0
 23 74  1  6
 24 25  1  0
 25 26  1  0
 25 75  1  0
 25 76  1  0
 26 27  2  3
 26 77  1  0
 27 38  1  0
 27 28  1  0
 28 29  1  0
 28 78  1  1
 29 30  1  0
 29 31  1  0
 29 32  1  0
 30 79  1  0
 30 80  1  0
 30 81  1  0
 31 82  1  0
 31 83  1  0
 31 84  1  0
 32 33  1  6
 32 34  1  0
 33 85  1  0
 34 35  1  6
 34 36  1  0
 35 86  1  0
 36 37  1  0
 37 38  1  0
 37 87  1  0
 37 88  1  0
 38 39  1  6
 38 40  1  0
 39 89  1  0
 39 90  1  0
 39 91  1  0
 40 41  1  0
 40 92  1  0
 40 93  1  0
 41 42  1  0
 41 94  1  6
M  END
>  <i_m_ct_stereo_status>  (16) 
1

>  <s_m_source_file>  (16) 
/var/tmp/pbs.5076255.sched01/tmp7dv9smms/08akalw19.sdf

>  <i_m_source_file_index>  (16) 
6

>  <i_lp_mmshare_version>  (16) 
48012

>  <i_f3d_flags>  (16) 
0

>  <s_epik_input>  (16) 
W0NIMl0xW0NIMl1bQ0BASF0oW0NIM10pW0NAXShbT0hdKShbQ0BdMihbT0hdKVtDQF0xKFtDQF0zNDUpW09IXSlPW0NIMl1bQ0BAXTYoW0NIM10pQyhcW0NAQEhdNUMyKFtDSDNdKVtDSDNdKT1bQ0hdXFtDSDJdT1tDQEhdN1tDQEBIXTRDKFtDSDNdKShbQ0gzXSlbQ0BASF0oW0NIMl1bQ0BASF0zW0NASF0oTzcpW0NIMl02KVtDSDJdL1tDSF09QzhcW0NIMl1bQ0gyXVtDQEBIXShbT0hdKVtDSDJdOA==

>  <s_epik_cmdline>  (16) 
J2VwaWtfcHl0aG9uJywgJy1waHQnLCAnMi4wJywgJy1waCcsICc3LjAnLCAnLXRuJywgJzgnLCAnLW1hJywgJzIwMCcsICctaW1hZScsICc8aW5maWxlLm1hZT4nLCAnLW9tYWUnLCAnPG91dGZpbGUubWFlPic=

>  <r_lp_tautomer_probability>  (16) 
1

>  <r_epik_Ionization_Penalty>  (16) 
7.37587e-07

>  <r_epik_Ionization_Penalty_Charging>  (16) 
0

>  <r_epik_Ionization_Penalty_Neutral>  (16) 
7.37587e-07

>  <r_epik_State_Penalty>  (16) 
-0

>  <r_epik_Charging_Adjusted_Penalty>  (16) 
0

>  <i_epik_Tot_Q>  (16) 
0

>  <i_epik_Tot_abs_Q>  (16) 
0

>  <s_epik_Chemistry_Notes>  (16) 
This compound contains an acetal/aminal-like group ( X-CH(R)-Y where X, Y are N, S, or O) that may be acid/base labile, releasing an aldehyde.

>  <s_lp_Force_Field>  (16) 
OPLS3e

>  <r_lp_Energy>  (16) 
377.303

>  <b_lp_Chiralities_Consistent>  (16) 
1

>  <s_lp_Variant>  (16) 
0:0-6

>  <s_i_glide_gridfile>  (16) 
pfpi4k_grid

>  <i_i_glide_lignum>  (16) 
6

>  <i_i_glide_rotatable_bonds>  (16) 
6

>  <r_i_docking_score>  (16) 
-2.73569

>  <r_i_glide_ligand_efficiency>  (16) 
-0.0651355

>  <r_i_glide_ligand_efficiency_sa>  (16) 
-0.226413

>  <r_i_glide_ligand_efficiency_ln>  (16) 
-0.577434

>  <r_i_glide_gscore>  (16) 
-2.73569

>  <r_i_glide_lipo>  (16) 
-0.240479

>  <r_i_glide_hbond>  (16) 
-0.16

>  <r_i_glide_metal>  (16) 
-0

>  <r_i_glide_rewards>  (16) 
-0.559007

>  <r_i_glide_evdw>  (16) 
-23.0423

>  <r_i_glide_ecoul>  (16) 
-4.2666

>  <r_i_glide_erotb>  (16) 
0.0186197

>  <r_i_glide_esite>  (16) 
-0.00271995

>  <r_i_glide_emodel>  (16) 
-35.3706

>  <r_i_glide_energy>  (16) 
-27.3089

>  <r_i_glide_einternal>  (16) 
2.05739

>  <r_i_glide_intrahb_reward>  (16) 
-0.5

>  <i_i_glide_confnum>  (16) 
5

>  <i_i_glide_posenum>  (16) 
16

>  <r_i_glide_eff_state_penalty>  (16) 
0

>  <ligand_id>  (16) 
0

>  <original_smiles>  (16) 
CC1CCC2(O)C34C5CC(CC=C6CCC(O)C6)C(C)(C)C3C3OCC=C6C4C(C)(C)C2(O)C1(O)OCC6(C)CC5O3

>  <smiles>  (16) 
[H]OC1([H])C([H])([H])C(=C([H])C([H])([H])C2([H])C([H])([H])C3([H])C4([H])OC5([H])OC([H])([H])C([H])=C6C7([H])C(C([H])([H])[H])(C([H])([H])[H])C8(O[H])C(O[H])(OC([H])([H])C6(C([H])([H])[H])C4([H])[H])C([H])(C([H])([H])[H])C([H])([H])C([H])([H])C8(O[H])C73C5([H])C2(C([H])([H])[H])C([H])([H])[H])C([H])([H])C1([H])[H]

$$$$
0:5:1
     RDKit          3D

 94101  0  0  1  0  0  0  0  0999 V2000
   -1.6120    3.7894    8.6509 C   0  0  0  0  0  0  0  0  0  0  0  0
   -1.8843    3.1965    7.2697 C   0  0  2  0  0  0  0  0  0  0  0  0
   -2.1608    1.6369    7.1615 C   0  0  0  0  0  0  0  0  0  0  0  0
   -1.1378    0.5938    6.5469 C   0  0  0  0  0  0  0  0  0  0  0  0
   -0.2156    1.1536    5.3909 C   0  0  2  0  0  0  0  0  0  0  0  0
   -1.0564    0.8334    4.2561 O   0  0  0  0  0  0  0  0  0  0  0  0
    1.4117    0.9188    5.0591 C   0  0  2  0  0  0  0  0  0  0  0  0
    1.6344    1.0075    3.4757 C   0  0  2  0  0  0  0  0  0  0  0  0
    1.4183   -0.2953    2.6287 C   0  0  0  0  0  0  0  0  0  0  0  0
    2.0002   -1.6229    3.1464 C   0  0  1  0  0  0  0  0  0  0  0  0
    3.2325   -2.1931    2.3916 C   0  0  0  0  0  0  0  0  0  0  0  0
    3.0126   -2.4178    0.9052 C   0  0  0  0  0  0  0  0  0  0  0  0
    4.0109   -2.5473    0.0125 C   0  0  0  0  0  0  0  0  0  0  0  0
    3.8301   -2.7759   -1.4660 C   0  0  0  0  0  0  0  0  0  0  0  0
    5.2233   -2.6260   -2.0939 C   0  0  0  0  0  0  0  0  0  0  0  0
    6.1998   -2.9419   -0.9619 C   0  0  1  0  0  0  0  0  0  0  0  0
    7.4359   -2.2645   -1.1205 O   0  0  0  0  0  0  0  0  0  0  0  0
    5.4949   -2.4925    0.3246 C   0  0  0  0  0  0  0  0  0  0  0  0
    2.0295   -1.6680    4.6933 C   0  0  0  0  0  0  0  0  0  0  0  0
    0.6343   -2.0795    5.1945 C   0  0  0  0  0  0  0  0  0  0  0  0
    2.9485   -2.7704    5.2643 C   0  0  0  0  0  0  0  0  0  0  0  0
    2.3834   -0.2794    5.3013 C   0  0  1  0  0  0  0  0  0  0  0  0
    3.8546    0.1936    4.8637 C   0  0  2  0  0  0  0  0  0  0  0  0
    4.5626    0.5283    6.0261 O   0  0  0  0  0  0  0  0  0  0  0  0
    5.2369    1.7785    6.1357 C   0  0  0  0  0  0  0  0  0  0  0  0
    4.4299    3.0273    5.7647 C   0  0  0  0  0  0  0  0  0  0  0  0
    3.0893    3.1408    5.5914 C   0  0  0  0  0  0  0  0  0  0  0  0
    2.1381    2.0203    6.0453 C   0  0  1  0  0  0  0  0  0  0  0  0
    1.1205    2.5843    6.9462 C   0  0  0  0  0  0  0  0  0  0  0  0
    0.9994    1.5316    8.1243 C   0  0  0  0  0  0  0  0  0  0  0  0
    1.6670    3.7956    7.8393 C   0  0  0  0  0  0  0  0  0  0  0  0
   -0.0055    2.6369    5.7672 C   0  0  1  0  0  0  0  0  0  0  0  0
    0.1545    2.9556    4.4093 O   0  0  0  0  0  0  0  0  0  0  0  0
   -1.0164    3.6823    6.0517 C   0  0  1  0  0  0  0  0  0  0  0  0
   -1.9298    3.9442    5.0099 O   0  0  0  0  0  0  0  0  0  0  0  0
   -0.0958    4.8196    6.1903 O   0  0  0  0  0  0  0  0  0  0  0  0
    1.0779    5.1392    5.2395 C   0  0  0  0  0  0  0  0  0  0  0  0
    2.4764    4.2745    4.7475 C   0  0  1  0  0  0  0  0  0  0  0  0
    3.4634    5.4842    4.6080 C   0  0  0  0  0  0  0  0  0  0  0  0
    2.5866    3.4995    3.3390 C   0  0  0  0  0  0  0  0  0  0  0  0
    2.8342    1.8760    3.1991 C   0  0  1  0  0  0  0  0  0  0  0  0
    3.9471    1.1761    3.7950 O   0  0  0  0  0  0  0  0  0  0  0  0
   -0.8551    3.2895    9.2453 H   0  0  0  0  0  0  0  0  0  0  0  0
   -2.5223    3.7284    9.2476 H   0  0  0  0  0  0  0  0  0  0  0  0
   -1.3600    4.8503    8.5774 H   0  0  0  0  0  0  0  0  0  0  0  0
   -2.8639    3.6465    7.0709 H   0  0  0  0  0  0  0  0  0  0  0  0
   -2.5705    1.2967    8.1092 H   0  0  0  0  0  0  0  0  0  0  0  0
   -3.0047    1.5985    6.4784 H   0  0  0  0  0  0  0  0  0  0  0  0
   -0.6613   -0.0158    7.3033 H   0  0  0  0  0  0  0  0  0  0  0  0
   -1.7508   -0.1812    6.0980 H   0  0  0  0  0  0  0  0  0  0  0  0
   -0.6351    1.1108    3.4329 H   0  0  0  0  0  0  0  0  0  0  0  0
    0.9170    1.5740    2.8911 H   0  0  0  0  0  0  0  0  0  0  0  0
    0.3741   -0.4182    2.3396 H   0  0  0  0  0  0  0  0  0  0  0  0
    1.9576   -0.0965    1.7039 H   0  0  0  0  0  0  0  0  0  0  0  0
    1.2495   -2.3590    2.8652 H   0  0  0  0  0  0  0  0  0  0  0  0
    4.1318   -1.6086    2.5497 H   0  0  0  0  0  0  0  0  0  0  0  0
    3.4333   -3.2019    2.7466 H   0  0  0  0  0  0  0  0  0  0  0  0
    1.9900   -2.5334    0.5736 H   0  0  0  0  0  0  0  0  0  0  0  0
    3.4551   -3.7912   -1.6151 H   0  0  0  0  0  0  0  0  0  0  0  0
    3.1086   -2.0655   -1.8791 H   0  0  0  0  0  0  0  0  0  0  0  0
    5.3569   -3.2800   -2.9602 H   0  0  0  0  0  0  0  0  0  0  0  0
    5.3432   -1.5951   -2.4305 H   0  0  0  0  0  0  0  0  0  0  0  0
    6.3442   -4.0162   -0.9026 H   0  0  0  0  0  0  0  0  0  0  0  0
    7.9876   -2.7792   -1.7305 H   0  0  0  0  0  0  0  0  0  0  0  0
    5.7427   -1.4668    0.5903 H   0  0  0  0  0  0  0  0  0  0  0  0
    5.7494   -3.1445    1.1612 H   0  0  0  0  0  0  0  0  0  0  0  0
    0.5574   -1.9229    6.2757 H   0  0  0  0  0  0  0  0  0  0  0  0
    0.4317   -3.1370    5.0027 H   0  0  0  0  0  0  0  0  0  0  0  0
   -0.1549   -1.5129    4.7080 H   0  0  0  0  0  0  0  0  0  0  0  0
    2.9137   -2.7901    6.3566 H   0  0  0  0  0  0  0  0  0  0  0  0
    3.9929   -2.6437    4.9876 H   0  0  0  0  0  0  0  0  0  0  0  0
    2.6570   -3.7631    4.9121 H   0  0  0  0  0  0  0  0  0  0  0  0
    2.4469   -0.4977    6.3722 H   0  0  0  0  0  0  0  0  0  0  0  0
    4.4143   -0.6468    4.4801 H   0  0  0  0  0  0  0  0  0  0  0  0
    5.6156    1.8894    7.1485 H   0  0  0  0  0  0  0  0  0  0  0  0
    6.1169    1.7210    5.4934 H   0  0  0  0  0  0  0  0  0  0  0  0
    5.0891    3.8178    5.4547 H   0  0  0  0  0  0  0  0  0  0  0  0
    2.7635    1.5269    6.7629 H   0  0  0  0  0  0  0  0  0  0  0  0
    0.0511    1.5480    8.6489 H   0  0  0  0  0  0  0  0  0  0  0  0
    1.7454    1.6483    8.9097 H   0  0  0  0  0  0  0  0  0  0  0  0
    1.2040    0.5117    7.8019 H   0  0  0  0  0  0  0  0  0  0  0  0
    0.9057    4.1982    8.4928 H   0  0  0  0  0  0  0  0  0  0  0  0
    2.1066    4.6508    7.3510 H   0  0  0  0  0  0  0  0  0  0  0  0
    2.4812    3.4819    8.4941 H   0  0  0  0  0  0  0  0  0  0  0  0
   -0.6446    2.6379    3.9734 H   0  0  0  0  0  0  0  0  0  0  0  0
   -1.4104    3.9955    4.1935 H   0  0  0  0  0  0  0  0  0  0  0  0
    0.6255    5.5327    4.3311 H   0  0  0  0  0  0  0  0  0  0  0  0
    1.4631    6.0389    5.7351 H   0  0  0  0  0  0  0  0  0  0  0  0
    3.0191    6.2661    3.9920 H   0  0  0  0  0  0  0  0  0  0  0  0
    4.4070    5.2585    4.1175 H   0  0  0  0  0  0  0  0  0  0  0  0
    3.7167    5.9155    5.5771 H   0  0  0  0  0  0  0  0  0  0  0  0
    1.7476    3.7914    2.7164 H   0  0  0  0  0  0  0  0  0  0  0  0
    3.4263    3.9354    2.7962 H   0  0  0  0  0  0  0  0  0  0  0  0
    3.0106    1.7836    2.1262 H   0  0  0  0  0  0  0  0  0  0  0  0
  1  2  1  0
  1 43  1  0
  1 44  1  0
  1 45  1  0
  2 34  1  0
  2  3  1  0
  2 46  1  6
  3  4  1  0
  3 47  1  0
  3 48  1  0
  4  5  1  0
  4 49  1  0
  4 50  1  0
  5 32  1  0
  5  6  1  6
  7  5  1  6
  6 51  1  0
  7 22  1  0
  7 28  1  0
  7  8  1  0
  8 41  1  0
  8  9  1  0
  8 52  1  6
  9 10  1  0
  9 53  1  0
  9 54  1  0
 10 11  1  0
 10 19  1  0
 10 55  1  6
 11 12  1  0
 11 56  1  0
 11 57  1  0
 12 13  2  3
 12 58  1  0
 13 18  1  0
 13 14  1  0
 14 15  1  0
 14 59  1  0
 14 60  1  0
 15 16  1  0
 15 61  1  0
 15 62  1  0
 16 17  1  0
 16 18  1  0
 16 63  1  1
 17 64  1  0
 18 65  1  0
 18 66  1  0
 19 20  1  0
 19 21  1  0
 19 22  1  0
 20 67  1  0
 20 68  1  0
 20 69  1  0
 21 70  1  0
 21 71  1  0
 21 72  1  0
 22 23  1  0
 22 73  1  1
 23 42  1  0
 23 24  1  0
 23 74  1  6
 24 25  1  0
 25 26  1  0
 25 75  1  0
 25 76  1  0
 26 27  2  3
 26 77  1  0
 27 38  1  0
 27 28  1  0
 28 29  1  0
 28 78  1  1
 29 30  1  0
 29 31  1  0
 29 32  1  0
 30 79  1  0
 30 80  1  0
 30 81  1  0
 31 82  1  0
 31 83  1  0
 31 84  1  0
 32 33  1  6
 32 34  1  0
 33 85  1  0
 34 35  1  6
 34 36  1  0
 35 86  1  0
 36 37  1  0
 37 38  1  0
 37 87  1  0
 37 88  1  0
 38 39  1  6
 38 40  1  0
 39 89  1  0
 39 90  1  0
 39 91  1  0
 40 41  1  0
 40 92  1  0
 40 93  1  0
 41 42  1  0
 41 94  1  6
M  END
>  <i_m_ct_stereo_status>  (17) 
1

>  <s_m_source_file>  (17) 
/var/tmp/pbs.5076255.sched01/tmp7dv9smms/08akalw19.sdf

>  <i_m_source_file_index>  (17) 
6

>  <i_lp_mmshare_version>  (17) 
48012

>  <i_f3d_flags>  (17) 
0

>  <s_epik_input>  (17) 
W0NIMl0xW0NIMl1bQ0BASF0oW0NIM10pW0NAXShbT0hdKShbQ0BdMihbT0hdKVtDQF0xKFtDQF0zNDUpW09IXSlPW0NIMl1bQ0BAXTYoW0NIM10pQyhcW0NAQEhdNUMyKFtDSDNdKVtDSDNdKT1bQ0hdXFtDSDJdT1tDQEhdN1tDQEBIXTRDKFtDSDNdKShbQ0gzXSlbQ0BASF0oW0NIMl1bQ0BASF0zW0NASF0oTzcpW0NIMl02KVtDSDJdL1tDSF09QzhcW0NIMl1bQ0gyXVtDQEBIXShbT0hdKVtDSDJdOA==

>  <s_epik_cmdline>  (17) 
J2VwaWtfcHl0aG9uJywgJy1waHQnLCAnMi4wJywgJy1waCcsICc3LjAnLCAnLXRuJywgJzgnLCAnLW1hJywgJzIwMCcsICctaW1hZScsICc8aW5maWxlLm1hZT4nLCAnLW9tYWUnLCAnPG91dGZpbGUubWFlPic=

>  <r_lp_tautomer_probability>  (17) 
1

>  <r_epik_Ionization_Penalty>  (17) 
7.37587e-07

>  <r_epik_Ionization_Penalty_Charging>  (17) 
0

>  <r_epik_Ionization_Penalty_Neutral>  (17) 
7.37587e-07

>  <r_epik_State_Penalty>  (17) 
-0

>  <r_epik_Charging_Adjusted_Penalty>  (17) 
0

>  <i_epik_Tot_Q>  (17) 
0

>  <i_epik_Tot_abs_Q>  (17) 
0

>  <s_epik_Chemistry_Notes>  (17) 
This compound contains an acetal/aminal-like group ( X-CH(R)-Y where X, Y are N, S, or O) that may be acid/base labile, releasing an aldehyde.

>  <s_lp_Force_Field>  (17) 
OPLS3e

>  <r_lp_Energy>  (17) 
377.303

>  <b_lp_Chiralities_Consistent>  (17) 
1

>  <s_lp_Variant>  (17) 
0:0-6

>  <s_i_glide_gridfile>  (17) 
pfpi4k_grid

>  <i_i_glide_lignum>  (17) 
6

>  <i_i_glide_rotatable_bonds>  (17) 
6

>  <r_i_docking_score>  (17) 
-2.31487

>  <r_i_glide_ligand_efficiency>  (17) 
-0.0551158

>  <r_i_glide_ligand_efficiency_sa>  (17) 
-0.191584

>  <r_i_glide_ligand_efficiency_ln>  (17) 
-0.488608

>  <r_i_glide_gscore>  (17) 
-2.31487

>  <r_i_glide_lipo>  (17) 
-0.18465

>  <r_i_glide_hbond>  (17) 
-0.16

>  <r_i_glide_metal>  (17) 
-0

>  <r_i_glide_rewards>  (17) 
-0.00257812

>  <r_i_glide_evdw>  (17) 
-24.6499

>  <r_i_glide_ecoul>  (17) 
-5.0022

>  <r_i_glide_erotb>  (17) 
0.0186197

>  <r_i_glide_esite>  (17) 
-0.00343237

>  <r_i_glide_emodel>  (17) 
-32.4533

>  <r_i_glide_energy>  (17) 
-29.6521

>  <r_i_glide_einternal>  (17) 
2.79722

>  <r_i_glide_intrahb_reward>  (17) 
-0

>  <i_i_glide_confnum>  (17) 
2

>  <i_i_glide_posenum>  (17) 
33

>  <r_i_glide_eff_state_penalty>  (17) 
0

>  <ligand_id>  (17) 
0

>  <original_smiles>  (17) 
CC1CCC2(O)C34C5CC(CC=C6CCC(O)C6)C(C)(C)C3C3OCC=C6C4C(C)(C)C2(O)C1(O)OCC6(C)CC5O3

>  <smiles>  (17) 
[H]OC1([H])C([H])([H])C(=C([H])C([H])([H])C2([H])C([H])([H])C3([H])C4([H])OC5([H])OC([H])([H])C([H])=C6C7([H])C(C([H])([H])[H])(C([H])([H])[H])C8(O[H])C(O[H])(OC([H])([H])C6(C([H])([H])[H])C4([H])[H])C([H])(C([H])([H])[H])C([H])([H])C([H])([H])C8(O[H])C73C5([H])C2(C([H])([H])[H])C([H])([H])[H])C([H])([H])C1([H])[H]

$$$$
0:5:2
     RDKit          3D

 94101  0  0  1  0  0  0  0  0999 V2000
   -1.8506    4.2755    8.1082 C   0  0  0  0  0  0  0  0  0  0  0  0
   -2.1961    3.3160    6.9640 C   0  0  2  0  0  0  0  0  0  0  0  0
   -2.4027    1.7759    7.3067 C   0  0  0  0  0  0  0  0  0  0  0  0
   -1.3467    0.6609    6.9055 C   0  0  0  0  0  0  0  0  0  0  0  0
   -0.5377    0.9066    5.5768 C   0  0  2  0  0  0  0  0  0  0  0  0
   -1.3780    0.1932    4.6391 O   0  0  0  0  0  0  0  0  0  0  0  0
    1.0796    0.6453    5.1796 C   0  0  2  0  0  0  0  0  0  0  0  0
    1.1858    0.3032    3.6177 C   0  0  2  0  0  0  0  0  0  0  0  0
    1.0092   -1.1843    3.1639 C   0  0  0  0  0  0  0  0  0  0  0  0
    1.6461   -2.3257    3.9776 C   0  0  1  0  0  0  0  0  0  0  0  0
    2.8528   -3.0446    3.3297 C   0  0  0  0  0  0  0  0  0  0  0  0
    2.5971   -3.5835    1.9341 C   0  0  0  0  0  0  0  0  0  0  0  0
    3.3176   -3.2660    0.8523 C   0  0  0  0  0  0  0  0  0  0  0  0
    3.0845   -3.8027   -0.5404 C   0  0  0  0  0  0  0  0  0  0  0  0
    3.9962   -2.9938   -1.4676 C   0  0  0  0  0  0  0  0  0  0  0  0
    5.1209   -2.4729   -0.5686 C   0  0  1  0  0  0  0  0  0  0  0  0
    5.6748   -1.2644   -1.0453 O   0  0  0  0  0  0  0  0  0  0  0  0
    4.4917   -2.3081    0.8184 C   0  0  0  0  0  0  0  0  0  0  0  0
    1.7978   -1.9314    5.4680 C   0  0  0  0  0  0  0  0  0  0  0  0
    0.4675   -2.2293    6.1918 C   0  0  0  0  0  0  0  0  0  0  0  0
    2.8261   -2.8015    6.2339 C   0  0  0  0  0  0  0  0  0  0  0  0
    2.1257   -0.4163    5.6390 C   0  0  1  0  0  0  0  0  0  0  0  0
    3.5361   -0.0238    4.9558 C   0  0  2  0  0  0  0  0  0  0  0  0
    4.2964    0.6301    5.9390 O   0  0  0  0  0  0  0  0  0  0  0  0
    4.8921    1.8959    5.6764 C   0  0  0  0  0  0  0  0  0  0  0  0
    3.9923    2.9749    5.0614 C   0  0  0  0  0  0  0  0  0  0  0  0
    2.6477    2.9834    4.9614 C   0  0  0  0  0  0  0  0  0  0  0  0
    1.8019    1.9925    5.7763 C   0  0  1  0  0  0  0  0  0  0  0  0
    0.8146    2.7468    6.5709 C   0  0  0  0  0  0  0  0  0  0  0  0
    0.8422    2.0512    7.9985 C   0  0  0  0  0  0  0  0  0  0  0  0
    1.3462    4.1755    7.0504 C   0  0  0  0  0  0  0  0  0  0  0  0
   -0.3953    2.4433    5.5142 C   0  0  1  0  0  0  0  0  0  0  0  0
   -0.3132    2.3905    4.1137 O   0  0  0  0  0  0  0  0  0  0  0  0
   -1.4427    3.4809    5.5817 C   0  0  1  0  0  0  0  0  0  0  0  0
   -2.4589    3.4044    4.6159 O   0  0  0  0  0  0  0  0  0  0  0  0
   -0.5884    4.6536    5.3346 O   0  0  0  0  0  0  0  0  0  0  0  0
    0.5104    4.7546    4.2427 C   0  0  0  0  0  0  0  0  0  0  0  0
    1.9133    3.8312    3.8924 C   0  0  1  0  0  0  0  0  0  0  0  0
    2.8339    4.9664    3.3266 C   0  0  0  0  0  0  0  0  0  0  0  0
    1.9535    2.6969    2.7494 C   0  0  0  0  0  0  0  0  0  0  0  0
    2.2981    1.1161    3.0076 C   0  0  1  0  0  0  0  0  0  0  0  0
    3.5019    0.6518    3.6658 O   0  0  0  0  0  0  0  0  0  0  0  0
   -1.0279    3.9765    8.7478 H   0  0  0  0  0  0  0  0  0  0  0  0
   -2.7086    4.3486    8.7749 H   0  0  0  0  0  0  0  0  0  0  0  0
   -1.6538    5.2865    7.7428 H   0  0  0  0  0  0  0  0  0  0  0  0
   -3.2035    3.6727    6.7333 H   0  0  0  0  0  0  0  0  0  0  0  0
   -2.6535    1.7038    8.3630 H   0  0  0  0  0  0  0  0  0  0  0  0
   -3.3408    1.5115    6.8388 H   0  0  0  0  0  0  0  0  0  0  0  0
   -0.8000    0.2982    7.7684 H   0  0  0  0  0  0  0  0  0  0  0  0
   -1.9263   -0.2297    6.7103 H   0  0  0  0  0  0  0  0  0  0  0  0
   -1.9165    0.8056    4.1476 H   0  0  0  0  0  0  0  0  0  0  0  0
    0.3729    0.6438    2.9922 H   0  0  0  0  0  0  0  0  0  0  0  0
   -0.0558   -1.3978    3.0744 H   0  0  0  0  0  0  0  0  0  0  0  0
    1.4120   -1.2288    2.1571 H   0  0  0  0  0  0  0  0  0  0  0  0
    0.8976   -3.1156    3.9571 H   0  0  0  0  0  0  0  0  0  0  0  0
    3.7267   -2.4082    3.3391 H   0  0  0  0  0  0  0  0  0  0  0  0
    3.1036   -3.9330    3.9058 H   0  0  0  0  0  0  0  0  0  0  0  0
    1.7951   -4.3056    1.8482 H   0  0  0  0  0  0  0  0  0  0  0  0
    3.3693   -4.8545   -0.5552 H   0  0  0  0  0  0  0  0  0  0  0  0
    2.0382   -3.7175   -0.8383 H   0  0  0  0  0  0  0  0  0  0  0  0
    4.3743   -3.5916   -2.3008 H   0  0  0  0  0  0  0  0  0  0  0  0
    3.4236   -2.1616   -1.8828 H   0  0  0  0  0  0  0  0  0  0  0  0
    5.9065   -3.2313   -0.5024 H   0  0  0  0  0  0  0  0  0  0  0  0
    4.9661   -0.6272   -1.0995 H   0  0  0  0  0  0  0  0  0  0  0  0
    4.1047   -1.3028    0.9830 H   0  0  0  0  0  0  0  0  0  0  0  0
    5.2161   -2.5368    1.5979 H   0  0  0  0  0  0  0  0  0  0  0  0
    0.4548   -1.7811    7.1896 H   0  0  0  0  0  0  0  0  0  0  0  0
    0.3022   -3.3027    6.3158 H   0  0  0  0  0  0  0  0  0  0  0  0
   -0.3878   -1.8513    5.6399 H   0  0  0  0  0  0  0  0  0  0  0  0
    2.8779   -2.5229    7.2881 H   0  0  0  0  0  0  0  0  0  0  0  0
    3.8349   -2.7134    5.8398 H   0  0  0  0  0  0  0  0  0  0  0  0
    2.5709   -3.8628    6.1923 H   0  0  0  0  0  0  0  0  0  0  0  0
    2.2866   -0.3312    6.7140 H   0  0  0  0  0  0  0  0  0  0  0  0
    4.1342   -0.9074    4.7655 H   0  0  0  0  0  0  0  0  0  0  0  0
    5.3501    2.2847    6.5807 H   0  0  0  0  0  0  0  0  0  0  0  0
    5.7025    1.6741    4.9913 H   0  0  0  0  0  0  0  0  0  0  0  0
    4.5837    3.6898    4.5187 H   0  0  0  0  0  0  0  0  0  0  0  0
    2.5071    1.7363    6.5486 H   0  0  0  0  0  0  0  0  0  0  0  0
   -0.0631    2.1762    8.5793 H   0  0  0  0  0  0  0  0  0  0  0  0
    1.6345    2.4038    8.6616 H   0  0  0  0  0  0  0  0  0  0  0  0
    1.0762    0.9878    7.9538 H   0  0  0  0  0  0  0  0  0  0  0  0
    0.6152    4.7175    7.6326 H   0  0  0  0  0  0  0  0  0  0  0  0
    1.6993    4.8777    6.3115 H   0  0  0  0  0  0  0  0  0  0  0  0
    2.2247    4.0881    7.6915 H   0  0  0  0  0  0  0  0  0  0  0  0
   -1.1400    2.0850    3.7395 H   0  0  0  0  0  0  0  0  0  0  0  0
   -2.0387    3.4474    3.7244 H   0  0  0  0  0  0  0  0  0  0  0  0
   -0.0225    4.8692    3.2960 H   0  0  0  0  0  0  0  0  0  0  0  0
    0.8733    5.7744    4.4380 H   0  0  0  0  0  0  0  0  0  0  0  0
    2.3060    5.5348    2.5580 H   0  0  0  0  0  0  0  0  0  0  0  0
    3.7480    4.6234    2.8385 H   0  0  0  0  0  0  0  0  0  0  0  0
    3.1380    5.6675    4.1026 H   0  0  0  0  0  0  0  0  0  0  0  0
    1.0562    2.7695    2.1377 H   0  0  0  0  0  0  0  0  0  0  0  0
    2.7325    2.9996    2.0699 H   0  0  0  0  0  0  0  0  0  0  0  0
    2.4069    0.7456    1.9885 H   0  0  0  0  0  0  0  0  0  0  0  0
  1  2  1  0
  1 43  1  0
  1 44  1  0
  1 45  1  0
  2 34  1  0
  2  3  1  0
  2 46  1  6
  3  4  1  0
  3 47  1  0
  3 48  1  0
  4  5  1  0
  4 49  1  0
  4 50  1  0
  5 32  1  0
  5  6  1  6
  7  5  1  1
  6 51  1  0
  7 22  1  0
  7 28  1  0
  7  8  1  0
  8 41  1  0
  8  9  1  0
  8 52  1  6
  9 10  1  0
  9 53  1  0
  9 54  1  0
 10 11  1  0
 10 19  1  0
 10 55  1  1
 11 12  1  0
 11 56  1  0
 11 57  1  0
 12 13  2  3
 12 58  1  0
 13 18  1  0
 13 14  1  0
 14 15  1  0
 14 59  1  0
 14 60  1  0
 15 16  1  0
 15 61  1  0
 15 62  1  0
 16 17  1  0
 16 18  1  0
 16 63  1  1
 17 64  1  0
 18 65  1  0
 18 66  1  0
 19 20  1  0
 19 21  1  0
 19 22  1  0
 20 67  1  0
 20 68  1  0
 20 69  1  0
 21 70  1  0
 21 71  1  0
 21 72  1  0
 22 23  1  0
 22 73  1  1
 23 42  1  0
 23 24  1  0
 23 74  1  6
 24 25  1  0
 25 26  1  0
 25 75  1  0
 25 76  1  0
 26 27  2  3
 26 77  1  0
 27 38  1  0
 27 28  1  0
 28 29  1  0
 28 78  1  1
 29 30  1  0
 29 31  1  0
 29 32  1  0
 30 79  1  0
 30 80  1  0
 30 81  1  0
 31 82  1  0
 31 83  1  0
 31 84  1  0
 32 33  1  6
 32 34  1  0
 33 85  1  0
 34 35  1  6
 34 36  1  0
 35 86  1  0
 36 37  1  0
 37 38  1  0
 37 87  1  0
 37 88  1  0
 38 39  1  6
 38 40  1  0
 39 89  1  0
 39 90  1  0
 39 91  1  0
 40 41  1  0
 40 92  1  0
 40 93  1  0
 41 42  1  0
 41 94  1  6
M  END
>  <i_m_ct_stereo_status>  (18) 
1

>  <s_m_source_file>  (18) 
/var/tmp/pbs.5076255.sched01/tmp7dv9smms/08akalw19.sdf

>  <i_m_source_file_index>  (18) 
6

>  <i_lp_mmshare_version>  (18) 
48012

>  <i_f3d_flags>  (18) 
0

>  <s_epik_input>  (18) 
W0NIMl0xW0NIMl1bQ0BASF0oW0NIM10pW0NAXShbT0hdKShbQ0BdMihbT0hdKVtDQF0xKFtDQF0zNDUpW09IXSlPW0NIMl1bQ0BAXTYoW0NIM10pQyhcW0NAQEhdNUMyKFtDSDNdKVtDSDNdKT1bQ0hdXFtDSDJdT1tDQEhdN1tDQEBIXTRDKFtDSDNdKShbQ0gzXSlbQ0BASF0oW0NIMl1bQ0BASF0zW0NASF0oTzcpW0NIMl02KVtDSDJdL1tDSF09QzhcW0NIMl1bQ0gyXVtDQEBIXShbT0hdKVtDSDJdOA==

>  <s_epik_cmdline>  (18) 
J2VwaWtfcHl0aG9uJywgJy1waHQnLCAnMi4wJywgJy1waCcsICc3LjAnLCAnLXRuJywgJzgnLCAnLW1hJywgJzIwMCcsICctaW1hZScsICc8aW5maWxlLm1hZT4nLCAnLW9tYWUnLCAnPG91dGZpbGUubWFlPic=

>  <r_lp_tautomer_probability>  (18) 
1

>  <r_epik_Ionization_Penalty>  (18) 
7.37587e-07

>  <r_epik_Ionization_Penalty_Charging>  (18) 
0

>  <r_epik_Ionization_Penalty_Neutral>  (18) 
7.37587e-07

>  <r_epik_State_Penalty>  (18) 
-0

>  <r_epik_Charging_Adjusted_Penalty>  (18) 
0

>  <i_epik_Tot_Q>  (18) 
0

>  <i_epik_Tot_abs_Q>  (18) 
0

>  <s_epik_Chemistry_Notes>  (18) 
This compound contains an acetal/aminal-like group ( X-CH(R)-Y where X, Y are N, S, or O) that may be acid/base labile, releasing an aldehyde.

>  <s_lp_Force_Field>  (18) 
OPLS3e

>  <r_lp_Energy>  (18) 
377.303

>  <b_lp_Chiralities_Consistent>  (18) 
1

>  <s_lp_Variant>  (18) 
0:0-6

>  <s_i_glide_gridfile>  (18) 
pfpi4k_grid

>  <i_i_glide_lignum>  (18) 
6

>  <i_i_glide_rotatable_bonds>  (18) 
6

>  <r_i_docking_score>  (18) 
-2.01438

>  <r_i_glide_ligand_efficiency>  (18) 
-0.0479613

>  <r_i_glide_ligand_efficiency_sa>  (18) 
-0.166715

>  <r_i_glide_ligand_efficiency_ln>  (18) 
-0.425183

>  <r_i_glide_gscore>  (18) 
-2.01438

>  <r_i_glide_lipo>  (18) 
-0.15024

>  <r_i_glide_hbond>  (18) 
-0.0349633

>  <r_i_glide_metal>  (18) 
-0

>  <r_i_glide_rewards>  (18) 
-0.000729076

>  <r_i_glide_evdw>  (18) 
-25.4425

>  <r_i_glide_ecoul>  (18) 
-3.7764

>  <r_i_glide_erotb>  (18) 
0.0186197

>  <r_i_glide_esite>  (18) 
-0.00847707

>  <r_i_glide_emodel>  (18) 
-32.505

>  <r_i_glide_energy>  (18) 
-29.2189

>  <r_i_glide_einternal>  (18) 
1.18737

>  <r_i_glide_intrahb_reward>  (18) 
-0

>  <i_i_glide_confnum>  (18) 
2

>  <i_i_glide_posenum>  (18) 
22

>  <r_i_glide_eff_state_penalty>  (18) 
0

>  <ligand_id>  (18) 
0

>  <original_smiles>  (18) 
CC1CCC2(O)C34C5CC(CC=C6CCC(O)C6)C(C)(C)C3C3OCC=C6C4C(C)(C)C2(O)C1(O)OCC6(C)CC5O3

>  <smiles>  (18) 
[H]OC1([H])C([H])([H])C(=C([H])C([H])([H])C2([H])C([H])([H])C3([H])C4([H])OC5([H])OC([H])([H])C([H])=C6C7([H])C(C([H])([H])[H])(C([H])([H])[H])C8(O[H])C(O[H])(OC([H])([H])C6(C([H])([H])[H])C4([H])[H])C([H])(C([H])([H])[H])C([H])([H])C([H])([H])C8(O[H])C73C5([H])C2(C([H])([H])[H])C([H])([H])[H])C([H])([H])C1([H])[H]

$$$$
0:6:0
     RDKit          3D

 94101  0  0  1  0  0  0  0  0999 V2000
    3.8100  -12.0443    3.6566 C   0  0  0  0  0  0  0  0  0  0  0  0
    3.0024  -11.6909    4.9164 C   0  0  2  0  0  0  0  0  0  0  0  0
    1.6199  -11.0626    4.5942 C   0  0  0  0  0  0  0  0  0  0  0  0
    1.6880   -9.5972    4.1144 C   0  0  0  0  0  0  0  0  0  0  0  0
    2.2310   -8.5811    5.1817 C   0  0  2  0  0  0  0  0  0  0  0  0
    1.0391   -8.0108    5.6969 O   0  0  0  0  0  0  0  0  0  0  0  0
    3.2878   -7.4112    4.5695 C   0  0  2  0  0  0  0  0  0  0  0  0
    3.8130   -6.0196    5.1323 C   0  0  2  0  0  0  0  0  0  0  0  0
    2.9532   -4.7750    4.7392 C   0  0  0  0  0  0  0  0  0  0  0  0
    2.2934   -4.6865    3.3352 C   0  0  1  0  0  0  0  0  0  0  0  0
    2.6130   -3.3729    2.5524 C   0  0  0  0  0  0  0  0  0  0  0  0
    4.0722   -3.2581    2.1224 C   0  0  0  0  0  0  0  0  0  0  0  0
    4.5094   -3.0471    0.8676 C   0  0  0  0  0  0  0  0  0  0  0  0
    3.6533   -2.7386   -0.3387 C   0  0  0  0  0  0  0  0  0  0  0  0
    4.6297   -2.3156   -1.4331 C   0  0  0  0  0  0  0  0  0  0  0  0
    5.9561   -2.9946   -1.0661 C   0  0  1  0  0  0  0  0  0  0  0  0
    7.0745   -2.2617   -1.5226 O   0  0  0  0  0  0  0  0  0  0  0  0
    5.9667   -3.0978    0.4646 C   0  0  0  0  0  0  0  0  0  0  0  0
    2.2160   -6.0517    2.5465 C   0  0  0  0  0  0  0  0  0  0  0  0
    0.8120   -6.6563    2.7663 C   0  0  0  0  0  0  0  0  0  0  0  0
    2.2362   -5.9002    0.9938 C   0  0  0  0  0  0  0  0  0  0  0  0
    3.3485   -7.0402    3.0115 C   0  0  1  0  0  0  0  0  0  0  0  0
    4.7583   -6.3901    2.5288 C   0  0  2  0  0  0  0  0  0  0  0  0
    5.4085   -7.1599    1.5406 O   0  0  0  0  0  0  0  0  0  0  0  0
    6.3902   -8.0768    1.9913 C   0  0  0  0  0  0  0  0  0  0  0  0
    5.6842   -8.9307    2.9926 C   0  0  0  0  0  0  0  0  0  0  0  0
    5.6014   -8.5494    4.3063 C   0  0  0  0  0  0  0  0  0  0  0  0
    4.3126   -8.3129    5.1246 C   0  0  1  0  0  0  0  0  0  0  0  0
    3.9873   -8.5122    6.7887 C   0  0  0  0  0  0  0  0  0  0  0  0
    4.9241   -8.9891    7.9807 C   0  0  0  0  0  0  0  0  0  0  0  0
    3.2544   -7.4040    7.6589 C   0  0  0  0  0  0  0  0  0  0  0  0
    2.9634   -9.4972    6.3771 C   0  0  1  0  0  0  0  0  0  0  0  0
    2.0054   -9.8130    7.4080 O   0  0  0  0  0  0  0  0  0  0  0  0
    3.8100  -10.8797    6.0074 C   0  0  1  0  0  0  0  0  0  0  0  0
    3.8262  -11.7153    7.1474 O   0  0  0  0  0  0  0  0  0  0  0  0
    5.2272  -10.7343    5.5314 O   0  0  0  0  0  0  0  0  0  0  0  0
    6.4403   -9.8660    5.8743 C   0  0  0  0  0  0  0  0  0  0  0  0
    6.7071   -8.3944    5.1999 C   0  0  1  0  0  0  0  0  0  0  0  0
    8.1376   -8.4181    4.5987 C   0  0  0  0  0  0  0  0  0  0  0  0
    6.4052   -6.8896    5.7331 C   0  0  0  0  0  0  0  0  0  0  0  0
    5.3778   -5.9044    4.9087 C   0  0  1  0  0  0  0  0  0  0  0  0
    5.6540   -5.8515    3.4998 O   0  0  0  0  0  0  0  0  0  0  0  0
    4.0818  -11.1749    3.0661 H   0  0  0  0  0  0  0  0  0  0  0  0
    3.2227  -12.6830    2.9965 H   0  0  0  0  0  0  0  0  0  0  0  0
    4.7172  -12.5955    3.9057 H   0  0  0  0  0  0  0  0  0  0  0  0
    2.7611  -12.6597    5.3503 H   0  0  0  0  0  0  0  0  0  0  0  0
    1.1405  -11.6534    3.8114 H   0  0  0  0  0  0  0  0  0  0  0  0
    0.9443  -11.1459    5.4436 H   0  0  0  0  0  0  0  0  0  0  0  0
    2.2981   -9.5959    3.2177 H   0  0  0  0  0  0  0  0  0  0  0  0
    0.6903   -9.3145    3.7832 H   0  0  0  0  0  0  0  0  0  0  0  0
    0.5319   -8.7269    6.0576 H   0  0  0  0  0  0  0  0  0  0  0  0
    3.8458   -5.8320    6.1795 H   0  0  0  0  0  0  0  0  0  0  0  0
    2.1474   -4.6944    5.4840 H   0  0  0  0  0  0  0  0  0  0  0  0
    3.5463   -3.8768    4.8921 H   0  0  0  0  0  0  0  0  0  0  0  0
    1.2582   -4.4655    3.5832 H   0  0  0  0  0  0  0  0  0  0  0  0
    1.9607   -3.2799    1.6904 H   0  0  0  0  0  0  0  0  0  0  0  0
    2.3651   -2.4988    3.1629 H   0  0  0  0  0  0  0  0  0  0  0  0
    4.7968   -3.4130    2.9099 H   0  0  0  0  0  0  0  0  0  0  0  0
    3.1064   -3.6234   -0.6650 H   0  0  0  0  0  0  0  0  0  0  0  0
    2.9269   -1.9501   -0.1185 H   0  0  0  0  0  0  0  0  0  0  0  0
    4.2781   -2.5981   -2.4282 H   0  0  0  0  0  0  0  0  0  0  0  0
    4.7372   -1.2324   -1.4021 H   0  0  0  0  0  0  0  0  0  0  0  0
    5.9653   -3.9960   -1.5067 H   0  0  0  0  0  0  0  0  0  0  0  0
    7.8070   -2.8599   -1.6186 H   0  0  0  0  0  0  0  0  0  0  0  0
    6.4940   -2.2664    0.9305 H   0  0  0  0  0  0  0  0  0  0  0  0
    6.4261   -4.0299    0.7949 H   0  0  0  0  0  0  0  0  0  0  0  0
    0.7386   -7.6500    2.3303 H   0  0  0  0  0  0  0  0  0  0  0  0
    0.0294   -6.0638    2.2962 H   0  0  0  0  0  0  0  0  0  0  0  0
    0.5324   -6.7027    3.8107 H   0  0  0  0  0  0  0  0  0  0  0  0
    2.2389   -6.8725    0.5136 H   0  0  0  0  0  0  0  0  0  0  0  0
    3.0971   -5.3767    0.6126 H   0  0  0  0  0  0  0  0  0  0  0  0
    1.3805   -5.3536    0.6180 H   0  0  0  0  0  0  0  0  0  0  0  0
    3.1920   -7.9279    2.4090 H   0  0  0  0  0  0  0  0  0  0  0  0
    4.5933   -5.5505    1.9016 H   0  0  0  0  0  0  0  0  0  0  0  0
    6.6942   -8.6562    1.1204 H   0  0  0  0  0  0  0  0  0  0  0  0
    7.2490   -7.5197    2.3438 H   0  0  0  0  0  0  0  0  0  0  0  0
    4.7751   -9.2503    2.5084 H   0  0  0  0  0  0  0  0  0  0  0  0
    4.1014   -9.1632    4.5027 H   0  0  0  0  0  0  0  0  0  0  0  0
    4.4488   -8.9172    8.9614 H   0  0  0  0  0  0  0  0  0  0  0  0
    5.8325   -8.4043    8.0941 H   0  0  0  0  0  0  0  0  0  0  0  0
    5.2080  -10.0313    8.0149 H   0  0  0  0  0  0  0  0  0  0  0  0
    2.7662   -7.8040    8.5466 H   0  0  0  0  0  0  0  0  0  0  0  0
    2.4431   -6.8596    7.1894 H   0  0  0  0  0  0  0  0  0  0  0  0
    3.9630   -6.6721    8.0517 H   0  0  0  0  0  0  0  0  0  0  0  0
    1.7502  -10.7372    7.3449 H   0  0  0  0  0  0  0  0  0  0  0  0
    2.9232  -11.9717    7.3539 H   0  0  0  0  0  0  0  0  0  0  0  0
    6.8735   -9.9685    6.8679 H   0  0  0  0  0  0  0  0  0  0  0  0
    7.1681  -10.4900    5.3598 H   0  0  0  0  0  0  0  0  0  0  0  0
    8.8693   -8.5679    5.3914 H   0  0  0  0  0  0  0  0  0  0  0  0
    8.4090   -7.4817    4.1140 H   0  0  0  0  0  0  0  0  0  0  0  0
    8.2812   -9.2222    3.8774 H   0  0  0  0  0  0  0  0  0  0  0  0
    6.1069   -6.8678    6.7743 H   0  0  0  0  0  0  0  0  0  0  0  0
    7.3640   -6.3739    5.7654 H   0  0  0  0  0  0  0  0  0  0  0  0
    5.6593   -4.9118    5.2679 H   0  0  0  0  0  0  0  0  0  0  0  0
  1  2  1  0
  1 43  1  0
  1 44  1  0
  1 45  1  0
  2 34  1  0
  2  3  1  0
  2 46  1  1
  3  4  1  0
  3 47  1  0
  3 48  1  0
  4  5  1  0
  4 49  1  0
  4 50  1  0
  5 32  1  0
  5  6  1  1
  7  5  1  1
  6 51  1  0
  7 22  1  0
  7 28  1  0
  7  8  1  0
  8 41  1  0
  8  9  1  0
  8 52  1  1
  9 10  1  0
  9 53  1  0
  9 54  1  0
 10 11  1  0
 10 19  1  0
 10 55  1  1
 11 12  1  0
 11 56  1  0
 11 57  1  0
 12 13  2  3
 12 58  1  0
 13 18  1  0
 13 14  1  0
 14 15  1  0
 14 59  1  0
 14 60  1  0
 15 16  1  0
 15 61  1  0
 15 62  1  0
 16 17  1  0
 16 18  1  0
 16 63  1  6
 17 64  1  0
 18 65  1  0
 18 66  1  0
 19 20  1  0
 19 21  1  0
 19 22  1  0
 20 67  1  0
 20 68  1  0
 20 69  1  0
 21 70  1  0
 21 71  1  0
 21 72  1  0
 22 23  1  0
 22 73  1  6
 23 42  1  0
 23 24  1  0
 23 74  1  6
 24 25  1  0
 25 26  1  0
 25 75  1  0
 25 76  1  0
 26 27  2  3
 26 77  1  0
 27 38  1  0
 27 28  1  0
 28 29  1  0
 28 78  1  6
 29 30  1  0
 29 31  1  0
 29 32  1  0
 30 79  1  0
 30 80  1  0
 30 81  1  0
 31 82  1  0
 31 83  1  0
 31 84  1  0
 32 33  1  1
 32 34  1  0
 33 85  1  0
 34 35  1  1
 34 36  1  0
 35 86  1  0
 36 37  1  0
 37 38  1  0
 37 87  1  0
 37 88  1  0
 38 39  1  6
 38 40  1  0
 39 89  1  0
 39 90  1  0
 39 91  1  0
 40 41  1  0
 40 92  1  0
 40 93  1  0
 41 42  1  0
 41 94  1  1
M  END
>  <i_m_ct_stereo_status>  (19) 
1

>  <s_m_source_file>  (19) 
/var/tmp/pbs.5076255.sched01/tmp7dv9smms/08akalw19.sdf

>  <i_m_source_file_index>  (19) 
7

>  <i_lp_mmshare_version>  (19) 
48012

>  <i_f3d_flags>  (19) 
0

>  <s_epik_input>  (19) 
W0NIMl0xW0NIMl1bQ0BASF0oW0NIM10pW0NAXShbT0hdKShbQ0BdMihbT0hdKVtDQF0xKFtDQF0zNDUpW09IXSlPW0NIMl1bQ0BAXTYoW0NIM10pQyhcW0NAQEhdNUMyKFtDSDNdKVtDSDNdKT1bQ0hdXFtDSDJdT1tDQEhdN1tDQEBIXTRDKFtDSDNdKShbQ0gzXSlbQ0BASF0oW0NIMl1bQ0BASF0zW0NASF0oTzcpW0NIMl02KVtDSDJdL1tDSF09QzhcW0NIMl1bQ0gyXVtDQEBIXShbT0hdKVtDSDJdOA==

>  <s_epik_cmdline>  (19) 
J2VwaWtfcHl0aG9uJywgJy1waHQnLCAnMi4wJywgJy1waCcsICc3LjAnLCAnLXRuJywgJzgnLCAnLW1hJywgJzIwMCcsICctaW1hZScsICc8aW5maWxlLm1hZT4nLCAnLW9tYWUnLCAnPG91dGZpbGUubWFlPic=

>  <r_lp_tautomer_probability>  (19) 
1

>  <r_epik_Ionization_Penalty>  (19) 
7.37587e-07

>  <r_epik_Ionization_Penalty_Charging>  (19) 
0

>  <r_epik_Ionization_Penalty_Neutral>  (19) 
7.37587e-07

>  <r_epik_State_Penalty>  (19) 
-0

>  <r_epik_Charging_Adjusted_Penalty>  (19) 
0

>  <i_epik_Tot_Q>  (19) 
0

>  <i_epik_Tot_abs_Q>  (19) 
0

>  <s_epik_Chemistry_Notes>  (19) 
This compound contains an acetal/aminal-like group ( X-CH(R)-Y where X, Y are N, S, or O) that may be acid/base labile, releasing an aldehyde.

>  <s_lp_Force_Field>  (19) 
OPLS3e

>  <r_lp_Energy>  (19) 
411.71

>  <b_lp_Chiralities_Consistent>  (19) 
1

>  <s_lp_Variant>  (19) 
0:0-7

>  <s_i_glide_gridfile>  (19) 
pfpi4k_grid

>  <i_i_glide_lignum>  (19) 
7

>  <i_i_glide_rotatable_bonds>  (19) 
6

>  <r_i_docking_score>  (19) 
-3.39387

>  <r_i_glide_ligand_efficiency>  (19) 
-0.0808064

>  <r_i_glide_ligand_efficiency_sa>  (19) 
-0.280885

>  <r_i_glide_ligand_efficiency_ln>  (19) 
-0.716358

>  <r_i_glide_gscore>  (19) 
-3.39387

>  <r_i_glide_lipo>  (19) 
-0.202545

>  <r_i_glide_hbond>  (19) 
-0.152

>  <r_i_glide_metal>  (19) 
-0

>  <r_i_glide_rewards>  (19) 
0

>  <r_i_glide_evdw>  (19) 
-18.5863

>  <r_i_glide_ecoul>  (19) 
-13.8211

>  <r_i_glide_erotb>  (19) 
0.0186197

>  <r_i_glide_esite>  (19) 
-0.0554711

>  <r_i_glide_emodel>  (19) 
-37.9019

>  <r_i_glide_energy>  (19) 
-32.4073

>  <r_i_glide_einternal>  (19) 
4.53807

>  <r_i_glide_intrahb_reward>  (19) 
-0

>  <i_i_glide_confnum>  (19) 
4

>  <i_i_glide_posenum>  (19) 
30

>  <r_i_glide_eff_state_penalty>  (19) 
0

>  <ligand_id>  (19) 
0

>  <original_smiles>  (19) 
CC1CCC2(O)C34C5CC(CC=C6CCC(O)C6)C(C)(C)C3C3OCC=C6C4C(C)(C)C2(O)C1(O)OCC6(C)CC5O3

>  <smiles>  (19) 
[H]OC1([H])C([H])([H])C(=C([H])C([H])([H])C2([H])C([H])([H])C3([H])C4([H])OC5([H])OC([H])([H])C([H])=C6C7([H])C(C([H])([H])[H])(C([H])([H])[H])C8(O[H])C(O[H])(OC([H])([H])C6(C([H])([H])[H])C4([H])[H])C([H])(C([H])([H])[H])C([H])([H])C([H])([H])C8(O[H])C73C5([H])C2(C([H])([H])[H])C([H])([H])[H])C([H])([H])C1([H])[H]

$$$$
0:6:1
     RDKit          3D

 94101  0  0  1  0  0  0  0  0999 V2000
    4.6883   -9.5349    3.1112 C   0  0  0  0  0  0  0  0  0  0  0  0
    3.2382   -9.6026    2.6026 C   0  0  2  0  0  0  0  0  0  0  0  0
    2.9735   -8.6606    1.4054 C   0  0  0  0  0  0  0  0  0  0  0  0
    2.8690   -7.1667    1.7644 C   0  0  0  0  0  0  0  0  0  0  0  0
    1.6558   -6.7875    2.6816 C   0  0  2  0  0  0  0  0  0  0  0  0
    0.6964   -6.2825    1.7500 O   0  0  0  0  0  0  0  0  0  0  0  0
    2.0094   -5.6703    3.8961 C   0  0  2  0  0  0  0  0  0  0  0  0
    1.1087   -4.7554    4.8262 C   0  0  2  0  0  0  0  0  0  0  0  0
    0.8098   -3.3356    4.2534 C   0  0  0  0  0  0  0  0  0  0  0  0
    1.8929   -2.5578    3.4294 C   0  0  1  0  0  0  0  0  0  0  0  0
    2.1897   -1.1322    4.0091 C   0  0  0  0  0  0  0  0  0  0  0  0
    1.7243   -0.0047    3.0964 C   0  0  0  0  0  0  0  0  0  0  0  0
    0.6758    0.7797    3.3271 C   0  0  0  0  0  0  0  0  0  0  0  0
   -0.2702    0.6614    4.4975 C   0  0  0  0  0  0  0  0  0  0  0  0
   -1.1648    1.9004    4.4530 C   0  0  0  0  0  0  0  0  0  0  0  0
   -1.1259    2.3739    2.9971 C   0  0  1  0  0  0  0  0  0  0  0  0
   -1.3574    3.7746    2.9278 O   0  0  0  0  0  0  0  0  0  0  0  0
    0.2573    1.9538    2.4619 C   0  0  0  0  0  0  0  0  0  0  0  0
    3.0961   -3.4307    2.9137 C   0  0  0  0  0  0  0  0  0  0  0  0
    2.7956   -3.8407    1.4590 C   0  0  0  0  0  0  0  0  0  0  0  0
    4.4578   -2.6980    2.7291 C   0  0  0  0  0  0  0  0  0  0  0  0
    3.2795   -4.6880    3.8333 C   0  0  1  0  0  0  0  0  0  0  0  0
    3.7557   -4.1011    5.2804 C   0  0  2  0  0  0  0  0  0  0  0  0
    5.0941   -4.4489    5.5703 O   0  0  0  0  0  0  0  0  0  0  0  0
    5.2719   -5.6499    6.3107 C   0  0  0  0  0  0  0  0  0  0  0  0
    4.5277   -6.7345    5.5803 C   0  0  0  0  0  0  0  0  0  0  0  0
    3.2218   -6.9654    5.7886 C   0  0  0  0  0  0  0  0  0  0  0  0
    2.0850   -6.8844    4.7324 C   0  0  1  0  0  0  0  0  0  0  0  0
    0.6029   -7.7049    4.6206 C   0  0  0  0  0  0  0  0  0  0  0  0
   -0.0804   -8.7995    5.5595 C   0  0  0  0  0  0  0  0  0  0  0  0
   -0.7749   -6.9645    4.3315 C   0  0  0  0  0  0  0  0  0  0  0  0
    1.1044   -8.2304    3.3347 C   0  0  1  0  0  0  0  0  0  0  0  0
    0.0628   -8.7069    2.4792 O   0  0  0  0  0  0  0  0  0  0  0  0
    2.1477   -9.4559    3.7379 C   0  0  1  0  0  0  0  0  0  0  0  0
    1.4236  -10.6819    3.6957 O   0  0  0  0  0  0  0  0  0  0  0  0
    2.8429   -9.3707    5.0584 O   0  0  0  0  0  0  0  0  0  0  0  0
    2.4865   -8.9490    6.4920 C   0  0  0  0  0  0  0  0  0  0  0  0
    2.5985   -7.3979    7.0089 C   0  0  1  0  0  0  0  0  0  0  0  0
    3.4774   -7.4185    8.2899 C   0  0  0  0  0  0  0  0  0  0  0  0
    1.4821   -6.2371    7.1752 C   0  0  0  0  0  0  0  0  0  0  0  0
    1.6120   -4.8379    6.3276 C   0  0  1  0  0  0  0  0  0  0  0  0
    2.9118   -4.2715    6.4145 O   0  0  0  0  0  0  0  0  0  0  0  0
    4.9520   -8.5584    3.5036 H   0  0  0  0  0  0  0  0  0  0  0  0
    5.3818   -9.7531    2.2969 H   0  0  0  0  0  0  0  0  0  0  0  0
    4.8761  -10.2792    3.8903 H   0  0  0  0  0  0  0  0  0  0  0  0
    3.1551  -10.6091    2.1914 H   0  0  0  0  0  0  0  0  0  0  0  0
    3.7751   -8.7978    0.6808 H   0  0  0  0  0  0  0  0  0  0  0  0
    2.0744   -9.0011    0.8890 H   0  0  0  0  0  0  0  0  0  0  0  0
    3.8168   -6.8922    2.2157 H   0  0  0  0  0  0  0  0  0  0  0  0
    2.8310   -6.6113    0.8226 H   0  0  0  0  0  0  0  0  0  0  0  0
    0.4176   -7.0437    1.2617 H   0  0  0  0  0  0  0  0  0  0  0  0
    0.1074   -5.0343    5.0501 H   0  0  0  0  0  0  0  0  0  0  0  0
   -0.0905   -3.4148    3.6678 H   0  0  0  0  0  0  0  0  0  0  0  0
    0.4704   -2.7242    5.0853 H   0  0  0  0  0  0  0  0  0  0  0  0
    1.3252   -2.3346    2.5264 H   0  0  0  0  0  0  0  0  0  0  0  0
    1.7226   -1.0186    4.9859 H   0  0  0  0  0  0  0  0  0  0  0  0
    3.2197   -0.8886    4.2266 H   0  0  0  0  0  0  0  0  0  0  0  0
    2.3088    0.1479    2.2044 H   0  0  0  0  0  0  0  0  0  0  0  0
   -0.8505   -0.2503    4.3665 H   0  0  0  0  0  0  0  0  0  0  0  0
    0.2738    0.6106    5.4375 H   0  0  0  0  0  0  0  0  0  0  0  0
   -2.1803    1.6935    4.8059 H   0  0  0  0  0  0  0  0  0  0  0  0
   -0.7314    2.6640    5.1025 H   0  0  0  0  0  0  0  0  0  0  0  0
   -1.8952    1.8471    2.4249 H   0  0  0  0  0  0  0  0  0  0  0  0
   -0.8519    4.0879    2.1686 H   0  0  0  0  0  0  0  0  0  0  0  0
    0.9854    2.7622    2.5691 H   0  0  0  0  0  0  0  0  0  0  0  0
    0.2061    1.6790    1.4029 H   0  0  0  0  0  0  0  0  0  0  0  0
    3.5573   -4.5203    1.0656 H   0  0  0  0  0  0  0  0  0  0  0  0
    2.7842   -2.9788    0.7933 H   0  0  0  0  0  0  0  0  0  0  0  0
    1.8185   -4.2840    1.3405 H   0  0  0  0  0  0  0  0  0  0  0  0
    5.2012   -3.3791    2.3157 H   0  0  0  0  0  0  0  0  0  0  0  0
    4.9126   -2.2868    3.6290 H   0  0  0  0  0  0  0  0  0  0  0  0
    4.3624   -1.8734    2.0274 H   0  0  0  0  0  0  0  0  0  0  0  0
    4.1329   -5.2054    3.4084 H   0  0  0  0  0  0  0  0  0  0  0  0
    3.7861   -3.0117    5.2435 H   0  0  0  0  0  0  0  0  0  0  0  0
    6.3284   -5.8997    6.3353 H   0  0  0  0  0  0  0  0  0  0  0  0
    4.9498   -5.5127    7.3344 H   0  0  0  0  0  0  0  0  0  0  0  0
    4.8789   -6.6885    4.5651 H   0  0  0  0  0  0  0  0  0  0  0  0
    2.9112   -7.3594    4.2228 H   0  0  0  0  0  0  0  0  0  0  0  0
   -1.0978   -9.0699    5.2680 H   0  0  0  0  0  0  0  0  0  0  0  0
   -0.1871   -8.4897    6.5941 H   0  0  0  0  0  0  0  0  0  0  0  0
    0.3359   -9.7945    5.5663 H   0  0  0  0  0  0  0  0  0  0  0  0
   -1.5427   -7.6044    3.8876 H   0  0  0  0  0  0  0  0  0  0  0  0
   -0.7320   -6.1518    3.6157 H   0  0  0  0  0  0  0  0  0  0  0  0
   -1.2385   -6.5932    5.2510 H   0  0  0  0  0  0  0  0  0  0  0  0
    0.4300   -9.3076    1.8495 H   0  0  0  0  0  0  0  0  0  0  0  0
    2.0386  -11.3773    3.8184 H   0  0  0  0  0  0  0  0  0  0  0  0
    1.7392   -9.5434    7.0084 H   0  0  0  0  0  0  0  0  0  0  0  0
    3.3544   -9.4234    6.9566 H   0  0  0  0  0  0  0  0  0  0  0  0
    2.9919   -8.0090    9.0630 H   0  0  0  0  0  0  0  0  0  0  0  0
    3.6237   -6.4321    8.7113 H   0  0  0  0  0  0  0  0  0  0  0  0
    4.4557   -7.8612    8.1198 H   0  0  0  0  0  0  0  0  0  0  0  0
    0.4752   -6.5967    7.0510 H   0  0  0  0  0  0  0  0  0  0  0  0
    1.4905   -5.9458    8.2258 H   0  0  0  0  0  0  0  0  0  0  0  0
    0.9798   -4.1359    6.8855 H   0  0  0  0  0  0  0  0  0  0  0  0
  1  2  1  0
  1 43  1  0
  1 44  1  0
  1 45  1  0
  2 34  1  0
  2  3  1  0
  2 46  1  6
  3  4  1  0
  3 47  1  0
  3 48  1  0
  4  5  1  0
  4 49  1  0
  4 50  1  0
  5 32  1  0
  5  6  1  6
  7  5  1  6
  6 51  1  0
  7 22  1  0
  7 28  1  0
  7  8  1  0
  8 41  1  0
  8  9  1  0
  8 52  1  1
  9 10  1  0
  9 53  1  0
  9 54  1  0
 10 11  1  0
 10 19  1  0
 10 55  1  6
 11 12  1  0
 11 56  1  0
 11 57  1  0
 12 13  2  3
 12 58  1  0
 13 18  1  0
 13 14  1  0
 14 15  1  0
 14 59  1  0
 14 60  1  0
 15 16  1  0
 15 61  1  0
 15 62  1  0
 16 17  1  0
 16 18  1  0
 16 63  1  6
 17 64  1  0
 18 65  1  0
 18 66  1  0
 19 20  1  0
 19 21  1  0
 19 22  1  0
 20 67  1  0
 20 68  1  0
 20 69  1  0
 21 70  1  0
 21 71  1  0
 21 72  1  0
 22 23  1  0
 22 73  1  6
 23 42  1  0
 23 24  1  0
 23 74  1  6
 24 25  1  0
 25 26  1  0
 25 75  1  0
 25 76  1  0
 26 27  2  3
 26 77  1  0
 27 38  1  0
 27 28  1  0
 28 29  1  0
 28 78  1  6
 29 30  1  0
 29 31  1  0
 29 32  1  0
 30 79  1  0
 30 80  1  0
 30 81  1  0
 31 82  1  0
 31 83  1  0
 31 84  1  0
 32 33  1  6
 32 34  1  0
 33 85  1  0
 34 35  1  1
 34 36  1  0
 35 86  1  0
 36 37  1  0
 37 38  1  0
 37 87  1  0
 37 88  1  0
 38 39  1  1
 38 40  1  0
 39 89  1  0
 39 90  1  0
 39 91  1  0
 40 41  1  0
 40 92  1  0
 40 93  1  0
 41 42  1  0
 41 94  1  1
M  END
>  <i_m_ct_stereo_status>  (20) 
1

>  <s_m_source_file>  (20) 
/var/tmp/pbs.5076255.sched01/tmp7dv9smms/08akalw19.sdf

>  <i_m_source_file_index>  (20) 
7

>  <i_lp_mmshare_version>  (20) 
48012

>  <i_f3d_flags>  (20) 
0

>  <s_epik_input>  (20) 
W0NIMl0xW0NIMl1bQ0BASF0oW0NIM10pW0NAXShbT0hdKShbQ0BdMihbT0hdKVtDQF0xKFtDQF0zNDUpW09IXSlPW0NIMl1bQ0BAXTYoW0NIM10pQyhcW0NAQEhdNUMyKFtDSDNdKVtDSDNdKT1bQ0hdXFtDSDJdT1tDQEhdN1tDQEBIXTRDKFtDSDNdKShbQ0gzXSlbQ0BASF0oW0NIMl1bQ0BASF0zW0NASF0oTzcpW0NIMl02KVtDSDJdL1tDSF09QzhcW0NIMl1bQ0gyXVtDQEBIXShbT0hdKVtDSDJdOA==

>  <s_epik_cmdline>  (20) 
J2VwaWtfcHl0aG9uJywgJy1waHQnLCAnMi4wJywgJy1waCcsICc3LjAnLCAnLXRuJywgJzgnLCAnLW1hJywgJzIwMCcsICctaW1hZScsICc8aW5maWxlLm1hZT4nLCAnLW9tYWUnLCAnPG91dGZpbGUubWFlPic=

>  <r_lp_tautomer_probability>  (20) 
1

>  <r_epik_Ionization_Penalty>  (20) 
7.37587e-07

>  <r_epik_Ionization_Penalty_Charging>  (20) 
0

>  <r_epik_Ionization_Penalty_Neutral>  (20) 
7.37587e-07

>  <r_epik_State_Penalty>  (20) 
-0

>  <r_epik_Charging_Adjusted_Penalty>  (20) 
0

>  <i_epik_Tot_Q>  (20) 
0

>  <i_epik_Tot_abs_Q>  (20) 
0

>  <s_epik_Chemistry_Notes>  (20) 
This compound contains an acetal/aminal-like group ( X-CH(R)-Y where X, Y are N, S, or O) that may be acid/base labile, releasing an aldehyde.

>  <s_lp_Force_Field>  (20) 
OPLS3e

>  <r_lp_Energy>  (20) 
411.71

>  <b_lp_Chiralities_Consistent>  (20) 
1

>  <s_lp_Variant>  (20) 
0:0-7

>  <s_i_glide_gridfile>  (20) 
pfpi4k_grid

>  <i_i_glide_lignum>  (20) 
7

>  <i_i_glide_rotatable_bonds>  (20) 
6

>  <r_i_docking_score>  (20) 
-2.94438

>  <r_i_glide_ligand_efficiency>  (20) 
-0.0701042

>  <r_i_glide_ligand_efficiency_sa>  (20) 
-0.243684

>  <r_i_glide_ligand_efficiency_ln>  (20) 
-0.621482

>  <r_i_glide_gscore>  (20) 
-2.94438

>  <r_i_glide_lipo>  (20) 
-0.0813765

>  <r_i_glide_hbond>  (20) 
-0.16

>  <r_i_glide_metal>  (20) 
-0

>  <r_i_glide_rewards>  (20) 
0

>  <r_i_glide_evdw>  (20) 
-24.8508

>  <r_i_glide_ecoul>  (20) 
-9.80045

>  <r_i_glide_erotb>  (20) 
0.0186197

>  <r_i_glide_esite>  (20) 
-0.00901254

>  <r_i_glide_emodel>  (20) 
-38.3358

>  <r_i_glide_energy>  (20) 
-34.6512

>  <r_i_glide_einternal>  (20) 
6.11393

>  <r_i_glide_intrahb_reward>  (20) 
-0

>  <i_i_glide_confnum>  (20) 
4

>  <i_i_glide_posenum>  (20) 
2

>  <r_i_glide_eff_state_penalty>  (20) 
0

>  <ligand_id>  (20) 
0

>  <original_smiles>  (20) 
CC1CCC2(O)C34C5CC(CC=C6CCC(O)C6)C(C)(C)C3C3OCC=C6C4C(C)(C)C2(O)C1(O)OCC6(C)CC5O3

>  <smiles>  (20) 
[H]OC1([H])C([H])([H])C(=C([H])C([H])([H])C2([H])C([H])([H])C3([H])C4([H])OC5([H])OC([H])([H])C([H])=C6C7([H])C(C([H])([H])[H])(C([H])([H])[H])C8(O[H])C(O[H])(OC([H])([H])C6(C([H])([H])[H])C4([H])[H])C([H])(C([H])([H])[H])C([H])([H])C([H])([H])C8(O[H])C73C5([H])C2(C([H])([H])[H])C([H])([H])[H])C([H])([H])C1([H])[H]

$$$$
0:6:2
     RDKit          3D

 94101  0  0  1  0  0  0  0  0999 V2000
    4.4840   -9.6224    3.1457 C   0  0  0  0  0  0  0  0  0  0  0  0
    3.0356   -9.6532    2.6208 C   0  0  2  0  0  0  0  0  0  0  0  0
    2.8092   -8.7015    1.4251 C   0  0  0  0  0  0  0  0  0  0  0  0
    2.7329   -7.2052    1.7945 C   0  0  0  0  0  0  0  0  0  0  0  0
    1.5185   -6.8095    2.7011 C   0  0  2  0  0  0  0  0  0  0  0  0
    0.5770   -6.2848    1.7559 O   0  0  0  0  0  0  0  0  0  0  0  0
    1.8789   -5.7065    3.9266 C   0  0  2  0  0  0  0  0  0  0  0  0
    0.9833   -4.7809    4.8514 C   0  0  2  0  0  0  0  0  0  0  0  0
    0.7244   -3.3516    4.2830 C   0  0  0  0  0  0  0  0  0  0  0  0
    1.8316   -2.5900    3.4756 C   0  0  1  0  0  0  0  0  0  0  0  0
    2.1573   -1.1774    4.0709 C   0  0  0  0  0  0  0  0  0  0  0  0
    1.6785   -0.0375    3.1920 C   0  0  0  0  0  0  0  0  0  0  0  0
    0.7336    0.8615    3.5383 C   0  0  0  0  0  0  0  0  0  0  0  0
   -0.0303    0.8581    4.8327 C   0  0  0  0  0  0  0  0  0  0  0  0
   -0.8031    2.1755    4.8669 C   0  0  0  0  0  0  0  0  0  0  0  0
   -0.9248    2.6042    3.4016 C   0  0  1  0  0  0  0  0  0  0  0  0
   -0.9946    4.0140    3.2861 O   0  0  0  0  0  0  0  0  0  0  0  0
    0.3217    2.0417    2.6979 C   0  0  0  0  0  0  0  0  0  0  0  0
    3.0279   -3.4830    2.9787 C   0  0  0  0  0  0  0  0  0  0  0  0
    2.7561   -3.8751    1.5119 C   0  0  0  0  0  0  0  0  0  0  0  0
    4.4101   -2.7747    2.8171 C   0  0  0  0  0  0  0  0  0  0  0  0
    3.1702   -4.7526    3.8873 C   0  0  1  0  0  0  0  0  0  0  0  0
    3.6399   -4.1855    5.3446 C   0  0  2  0  0  0  0  0  0  0  0  0
    4.9640   -4.5627    5.6489 O   0  0  0  0  0  0  0  0  0  0  0  0
    5.1096   -5.7748    6.3846 C   0  0  0  0  0  0  0  0  0  0  0  0
    4.3544   -6.8377    5.6342 C   0  0  0  0  0  0  0  0  0  0  0  0
    3.0410   -7.0399    5.8231 C   0  0  0  0  0  0  0  0  0  0  0  0
    1.9199   -6.9317    4.7516 C   0  0  1  0  0  0  0  0  0  0  0  0
    0.4234   -7.7166    4.6223 C   0  0  0  0  0  0  0  0  0  0  0  0
   -0.2887   -8.8097    5.5391 C   0  0  0  0  0  0  0  0  0  0  0  0
   -0.9376   -6.9504    4.3206 C   0  0  0  0  0  0  0  0  0  0  0  0
    0.9179   -8.2441    3.3352 C   0  0  1  0  0  0  0  0  0  0  0  0
   -0.1213   -8.7132    2.4710 O   0  0  0  0  0  0  0  0  0  0  0  0
    1.9427   -9.4872    3.7464 C   0  0  1  0  0  0  0  0  0  0  0  0
    1.1871  -10.7045    3.6931 O   0  0  0  0  0  0  0  0  0  0  0  0
    2.6143   -9.4302    5.0733 O   0  0  0  0  0  0  0  0  0  0  0  0
    2.2607   -9.0153    6.5058 C   0  0  0  0  0  0  0  0  0  0  0  0
    2.3911   -7.4697    7.0337 C   0  0  1  0  0  0  0  0  0  0  0  0
    3.2536   -7.5196    8.3242 C   0  0  0  0  0  0  0  0  0  0  0  0
    1.2968   -6.2882    7.1931 C   0  0  0  0  0  0  0  0  0  0  0  0
    1.4652   -4.8871    6.3552 C   0  0  1  0  0  0  0  0  0  0  0  0
    2.7783   -4.3470    6.4678 O   0  0  0  0  0  0  0  0  0  0  0  0
    4.7641   -8.6548    3.5460 H   0  0  0  0  0  0  0  0  0  0  0  0
    5.1798   -9.8484    2.3363 H   0  0  0  0  0  0  0  0  0  0  0  0
    4.6462  -10.3757    3.9175 H   0  0  0  0  0  0  0  0  0  0  0  0
    2.9358  -10.6583    2.2077 H   0  0  0  0  0  0  0  0  0  0  0  0
    3.6194   -8.8489    0.7140 H   0  0  0  0  0  0  0  0  0  0  0  0
    1.9129   -9.0118    0.8923 H   0  0  0  0  0  0  0  0  0  0  0  0
    3.6800   -6.9546    2.2574 H   0  0  0  0  0  0  0  0  0  0  0  0
    2.7195   -6.6431    0.8578 H   0  0  0  0  0  0  0  0  0  0  0  0
    0.2932   -7.0413    1.2607 H   0  0  0  0  0  0  0  0  0  0  0  0
   -0.0290   -5.0426    5.0582 H   0  0  0  0  0  0  0  0  0  0  0  0
   -0.1744   -3.4043    3.6898 H   0  0  0  0  0  0  0  0  0  0  0  0
    0.3842   -2.7351    5.1131 H   0  0  0  0  0  0  0  0  0  0  0  0
    1.2818   -2.3495    2.5661 H   0  0  0  0  0  0  0  0  0  0  0  0
    1.7246   -1.0882    5.0727 H   0  0  0  0  0  0  0  0  0  0  0  0
    3.1989   -0.9394    4.2443 H   0  0  0  0  0  0  0  0  0  0  0  0
    2.1496    0.0552    2.2347 H   0  0  0  0  0  0  0  0  0  0  0  0
   -0.7031    0.0006    4.8216 H   0  0  0  0  0  0  0  0  0  0  0  0
    0.6365    0.7755    5.6908 H   0  0  0  0  0  0  0  0  0  0  0  0
   -1.7701    2.0723    5.3656 H   0  0  0  0  0  0  0  0  0  0  0  0
   -0.2168    2.9098    5.4267 H   0  0  0  0  0  0  0  0  0  0  0  0
   -1.8120    2.1390    2.9629 H   0  0  0  0  0  0  0  0  0  0  0  0
   -0.6879    4.1989    2.3941 H   0  0  0  0  0  0  0  0  0  0  0  0
    1.1322    2.7819    2.6791 H   0  0  0  0  0  0  0  0  0  0  0  0
    0.1001    1.7519    1.6627 H   0  0  0  0  0  0  0  0  0  0  0  0
    3.5052   -4.5686    1.1243 H   0  0  0  0  0  0  0  0  0  0  0  0
    2.7482   -3.0060    0.8520 H   0  0  0  0  0  0  0  0  0  0  0  0
    1.7892   -4.3267    1.3867 H   0  0  0  0  0  0  0  0  0  0  0  0
    5.1396   -3.4706    2.4120 H   0  0  0  0  0  0  0  0  0  0  0  0
    4.8440   -2.3729    3.7295 H   0  0  0  0  0  0  0  0  0  0  0  0
    4.3350   -1.9481    2.1173 H   0  0  0  0  0  0  0  0  0  0  0  0
    4.0173   -5.2836    3.4693 H   0  0  0  0  0  0  0  0  0  0  0  0
    3.6927   -3.0977    5.3178 H   0  0  0  0  0  0  0  0  0  0  0  0
    6.1593   -6.0458    6.4185 H   0  0  0  0  0  0  0  0  0  0  0  0
    4.7778   -5.6382    7.4013 H   0  0  0  0  0  0  0  0  0  0  0  0
    4.7184   -6.7906    4.6225 H   0  0  0  0  0  0  0  0  0  0  0  0
    2.7435   -7.4201    4.2535 H   0  0  0  0  0  0  0  0  0  0  0  0
   -1.3090   -9.0525    5.2305 H   0  0  0  0  0  0  0  0  0  0  0  0
   -0.4013   -8.5059    6.5740 H   0  0  0  0  0  0  0  0  0  0  0  0
    0.1049   -9.8138    5.5589 H   0  0  0  0  0  0  0  0  0  0  0  0
   -1.7124   -7.5684    3.8616 H   0  0  0  0  0  0  0  0  0  0  0  0
   -0.8626   -6.1365    3.6116 H   0  0  0  0  0  0  0  0  0  0  0  0
   -1.4023   -6.5748    5.2382 H   0  0  0  0  0  0  0  0  0  0  0  0
    0.2524   -9.2757    1.8139 H   0  0  0  0  0  0  0  0  0  0  0  0
    0.4728  -10.6415    4.2759 H   0  0  0  0  0  0  0  0  0  0  0  0
    1.4932   -9.5981    7.0132 H   0  0  0  0  0  0  0  0  0  0  0  0
    3.1099   -9.5121    6.9746 H   0  0  0  0  0  0  0  0  0  0  0  0
    2.7440   -8.1066    9.0863 H   0  0  0  0  0  0  0  0  0  0  0  0
    3.4140   -6.5386    8.7559 H   0  0  0  0  0  0  0  0  0  0  0  0
    4.2238   -7.9819    8.1629 H   0  0  0  0  0  0  0  0  0  0  0  0
    0.2850   -6.6253    7.0517 H   0  0  0  0  0  0  0  0  0  0  0  0
    1.2965   -6.0058    8.2444 H   0  0  0  0  0  0  0  0  0  0  0  0
    0.8425   -4.1737    6.9141 H   0  0  0  0  0  0  0  0  0  0  0  0
  1  2  1  0
  1 43  1  0
  1 44  1  0
  1 45  1  0
  2 34  1  0
  2  3  1  0
  2 46  1  6
  3  4  1  0
  3 47  1  0
  3 48  1  0
  4  5  1  0
  4 49  1  0
  4 50  1  0
  5 32  1  0
  5  6  1  6
  7  5  1  6
  6 51  1  0
  7 22  1  0
  7 28  1  0
  7  8  1  0
  8 41  1  0
  8  9  1  0
  8 52  1  1
  9 10  1  0
  9 53  1  0
  9 54  1  0
 10 11  1  0
 10 19  1  0
 10 55  1  6
 11 12  1  0
 11 56  1  0
 11 57  1  0
 12 13  2  3
 12 58  1  0
 13 18  1  0
 13 14  1  0
 14 15  1  0
 14 59  1  0
 14 60  1  0
 15 16  1  0
 15 61  1  0
 15 62  1  0
 16 17  1  0
 16 18  1  0
 16 63  1  6
 17 64  1  0
 18 65  1  0
 18 66  1  0
 19 20  1  0
 19 21  1  0
 19 22  1  0
 20 67  1  0
 20 68  1  0
 20 69  1  0
 21 70  1  0
 21 71  1  0
 21 72  1  0
 22 23  1  0
 22 73  1  6
 23 42  1  0
 23 24  1  0
 23 74  1  6
 24 25  1  0
 25 26  1  0
 25 75  1  0
 25 76  1  0
 26 27  2  3
 26 77  1  0
 27 38  1  0
 27 28  1  0
 28 29  1  0
 28 78  1  6
 29 30  1  0
 29 31  1  0
 29 32  1  0
 30 79  1  0
 30 80  1  0
 30 81  1  0
 31 82  1  0
 31 83  1  0
 31 84  1  0
 32 33  1  6
 32 34  1  0
 33 85  1  0
 34 35  1  1
 34 36  1  0
 35 86  1  0
 36 37  1  0
 37 38  1  0
 37 87  1  0
 37 88  1  0
 38 39  1  1
 38 40  1  0
 39 89  1  0
 39 90  1  0
 39 91  1  0
 40 41  1  0
 40 92  1  0
 40 93  1  0
 41 42  1  0
 41 94  1  1
M  END
>  <i_m_ct_stereo_status>  (21) 
1

>  <s_m_source_file>  (21) 
/var/tmp/pbs.5076255.sched01/tmp7dv9smms/08akalw19.sdf

>  <i_m_source_file_index>  (21) 
7

>  <i_lp_mmshare_version>  (21) 
48012

>  <i_f3d_flags>  (21) 
0

>  <s_epik_input>  (21) 
W0NIMl0xW0NIMl1bQ0BASF0oW0NIM10pW0NAXShbT0hdKShbQ0BdMihbT0hdKVtDQF0xKFtDQF0zNDUpW09IXSlPW0NIMl1bQ0BAXTYoW0NIM10pQyhcW0NAQEhdNUMyKFtDSDNdKVtDSDNdKT1bQ0hdXFtDSDJdT1tDQEhdN1tDQEBIXTRDKFtDSDNdKShbQ0gzXSlbQ0BASF0oW0NIMl1bQ0BASF0zW0NASF0oTzcpW0NIMl02KVtDSDJdL1tDSF09QzhcW0NIMl1bQ0gyXVtDQEBIXShbT0hdKVtDSDJdOA==

>  <s_epik_cmdline>  (21) 
J2VwaWtfcHl0aG9uJywgJy1waHQnLCAnMi4wJywgJy1waCcsICc3LjAnLCAnLXRuJywgJzgnLCAnLW1hJywgJzIwMCcsICctaW1hZScsICc8aW5maWxlLm1hZT4nLCAnLW9tYWUnLCAnPG91dGZpbGUubWFlPic=

>  <r_lp_tautomer_probability>  (21) 
1

>  <r_epik_Ionization_Penalty>  (21) 
7.37587e-07

>  <r_epik_Ionization_Penalty_Charging>  (21) 
0

>  <r_epik_Ionization_Penalty_Neutral>  (21) 
7.37587e-07

>  <r_epik_State_Penalty>  (21) 
-0

>  <r_epik_Charging_Adjusted_Penalty>  (21) 
0

>  <i_epik_Tot_Q>  (21) 
0

>  <i_epik_Tot_abs_Q>  (21) 
0

>  <s_epik_Chemistry_Notes>  (21) 
This compound contains an acetal/aminal-like group ( X-CH(R)-Y where X, Y are N, S, or O) that may be acid/base labile, releasing an aldehyde.

>  <s_lp_Force_Field>  (21) 
OPLS3e

>  <r_lp_Energy>  (21) 
411.71

>  <b_lp_Chiralities_Consistent>  (21) 
1

>  <s_lp_Variant>  (21) 
0:0-7

>  <s_i_glide_gridfile>  (21) 
pfpi4k_grid

>  <i_i_glide_lignum>  (21) 
7

>  <i_i_glide_rotatable_bonds>  (21) 
6

>  <r_i_docking_score>  (21) 
-2.92161

>  <r_i_glide_ligand_efficiency>  (21) 
-0.069562

>  <r_i_glide_ligand_efficiency_sa>  (21) 
-0.2418

>  <r_i_glide_ligand_efficiency_ln>  (21) 
-0.616676

>  <r_i_glide_gscore>  (21) 
-2.92161

>  <r_i_glide_lipo>  (21) 
-0.0662996

>  <r_i_glide_hbond>  (21) 
-0.16

>  <r_i_glide_metal>  (21) 
-0

>  <r_i_glide_rewards>  (21) 
0

>  <r_i_glide_evdw>  (21) 
-24.8812

>  <r_i_glide_ecoul>  (21) 
-9.73581

>  <r_i_glide_erotb>  (21) 
0.0186197

>  <r_i_glide_esite>  (21) 
-0.00949248

>  <r_i_glide_emodel>  (21) 
-38.5839

>  <r_i_glide_energy>  (21) 
-34.617

>  <r_i_glide_einternal>  (21) 
5.47003

>  <r_i_glide_intrahb_reward>  (21) 
-0

>  <i_i_glide_confnum>  (21) 
4

>  <i_i_glide_posenum>  (21) 
25

>  <r_i_glide_eff_state_penalty>  (21) 
0

>  <ligand_id>  (21) 
0

>  <original_smiles>  (21) 
CC1CCC2(O)C34C5CC(CC=C6CCC(O)C6)C(C)(C)C3C3OCC=C6C4C(C)(C)C2(O)C1(O)OCC6(C)CC5O3

>  <smiles>  (21) 
[H]OC1([H])C([H])([H])C(=C([H])C([H])([H])C2([H])C([H])([H])C3([H])C4([H])OC5([H])OC([H])([H])C([H])=C6C7([H])C(C([H])([H])[H])(C([H])([H])[H])C8(O[H])C(O[H])(OC([H])([H])C6(C([H])([H])[H])C4([H])[H])C([H])(C([H])([H])[H])C([H])([H])C([H])([H])C8(O[H])C73C5([H])C2(C([H])([H])[H])C([H])([H])[H])C([H])([H])C1([H])[H]

$$$$
0:7:0
     RDKit          3D

 94101  0  0  1  0  0  0  0  0999 V2000
    4.1597  -10.4361    3.3412 C   0  0  0  0  0  0  0  0  0  0  0  0
    2.6582  -10.3805    2.9881 C   0  0  2  0  0  0  0  0  0  0  0  0
    2.3812   -9.5521    1.7026 C   0  0  0  0  0  0  0  0  0  0  0  0
    2.4652   -8.0246    1.8938 C   0  0  0  0  0  0  0  0  0  0  0  0
    1.4013   -7.4037    2.8695 C   0  0  2  0  0  0  0  0  0  0  0  0
    0.4072   -6.9152    1.9836 O   0  0  0  0  0  0  0  0  0  0  0  0
    2.0056   -6.2192    3.9056 C   0  0  2  0  0  0  0  0  0  0  0  0
    1.3077   -5.1094    4.7974 C   0  0  2  0  0  0  0  0  0  0  0  0
    1.1190   -3.7301    4.0949 C   0  0  0  0  0  0  0  0  0  0  0  0
    2.1562   -3.1794    3.0721 C   0  0  1  0  0  0  0  0  0  0  0  0
    2.6833   -1.7499    3.4544 C   0  0  0  0  0  0  0  0  0  0  0  0
    2.1608   -0.6543    2.5370 C   0  0  0  0  0  0  0  0  0  0  0  0
    1.1599    0.1896    2.8230 C   0  0  0  0  0  0  0  0  0  0  0  0
    0.6868    1.3089    1.9195 C   0  0  0  0  0  0  0  0  0  0  0  0
   -0.6216    1.8125    2.5522 C   0  0  0  0  0  0  0  0  0  0  0  0
   -0.5210    1.4253    4.0300 C   0  0  1  0  0  0  0  0  0  0  0  0
   -1.7932    1.2204    4.6153 O   0  0  0  0  0  0  0  0  0  0  0  0
    0.3224    0.1499    4.0785 C   0  0  0  0  0  0  0  0  0  0  0  0
    3.2027   -4.2399    2.5594 C   0  0  0  0  0  0  0  0  0  0  0  0
    2.7059   -4.7659    1.1959 C   0  0  0  0  0  0  0  0  0  0  0  0
    4.5956   -3.6663    2.1765 C   0  0  0  0  0  0  0  0  0  0  0  0
    3.3568   -5.4025    3.6098 C   0  0  1  0  0  0  0  0  0  0  0  0
    4.0437   -4.7225    4.9161 C   0  0  2  0  0  0  0  0  0  0  0  0
    5.3609   -5.1905    5.1241 O   0  0  0  0  0  0  0  0  0  0  0  0
    5.4954   -6.3213    5.9815 C   0  0  0  0  0  0  0  0  0  0  0  0
    4.5642   -7.3835    5.4589 C   0  0  0  0  0  0  0  0  0  0  0  0
    3.2679   -7.4330    5.8130 C   0  0  0  0  0  0  0  0  0  0  0  0
    2.0429   -7.3398    4.8638 C   0  0  1  0  0  0  0  0  0  0  0  0
    0.4737   -7.9791    4.9920 C   0  0  0  0  0  0  0  0  0  0  0  0
   -0.2024   -8.8861    6.1174 C   0  0  0  0  0  0  0  0  0  0  0  0
   -0.8375   -7.1114    4.7442 C   0  0  0  0  0  0  0  0  0  0  0  0
    0.7606   -8.6987    3.7393 C   0  0  1  0  0  0  0  0  0  0  0  0
   -0.4062   -9.1689    3.0685 O   0  0  0  0  0  0  0  0  0  0  0  0
    1.7058   -9.9928    4.1838 C   0  0  1  0  0  0  0  0  0  0  0  0
    0.8550  -11.1123    4.3454 O   0  0  0  0  0  0  0  0  0  0  0  0
    2.5468   -9.8475    5.4188 O   0  0  0  0  0  0  0  0  0  0  0  0
    2.4112   -9.2313    6.8233 C   0  0  0  0  0  0  0  0  0  0  0  0
    2.7417   -7.6576    7.1331 C   0  0  1  0  0  0  0  0  0  0  0  0
    3.7428   -7.6386    8.3169 C   0  0  0  0  0  0  0  0  0  0  0  0
    1.7791   -6.3592    7.2641 C   0  0  0  0  0  0  0  0  0  0  0  0
    1.9618   -5.0812    6.2471 C   0  0  1  0  0  0  0  0  0  0  0  0
    3.3223   -4.6667    6.1464 O   0  0  0  0  0  0  0  0  0  0  0  0
    4.5692   -9.4614    3.5830 H   0  0  0  0  0  0  0  0  0  0  0  0
    4.7268  -10.8212    2.4982 H   0  0  0  0  0  0  0  0  0  0  0  0
    4.3465  -11.1080    4.1783 H   0  0  0  0  0  0  0  0  0  0  0  0
    2.4294  -11.4114    2.7117 H   0  0  0  0  0  0  0  0  0  0  0  0
    3.0920   -9.8506    0.9369 H   0  0  0  0  0  0  0  0  0  0  0  0
    1.4082   -9.8294    1.3029 H   0  0  0  0  0  0  0  0  0  0  0  0
    3.4824   -7.8116    2.2243 H   0  0  0  0  0  0  0  0  0  0  0  0
    2.3858   -7.5696    0.9105 H   0  0  0  0  0  0  0  0  0  0  0  0
    0.0465   -7.6917    1.5657 H   0  0  0  0  0  0  0  0  0  0  0  0
    0.3213   -5.2384    5.1487 H   0  0  0  0  0  0  0  0  0  0  0  0
    0.1750   -3.8130    3.5466 H   0  0  0  0  0  0  0  0  0  0  0  0
    0.9056   -2.9939    4.8542 H   0  0  0  0  0  0  0  0  0  0  0  0
    1.5342   -2.9795    2.2115 H   0  0  0  0  0  0  0  0  0  0  0  0
    2.4438   -1.5142    4.4899 H   0  0  0  0  0  0  0  0  0  0  0  0
    3.7756   -1.6372    3.4083 H   0  0  0  0  0  0  0  0  0  0  0  0
    2.6477   -0.5629    1.5775 H   0  0  0  0  0  0  0  0  0  0  0  0
    1.4300    2.1083    1.9083 H   0  0  0  0  0  0  0  0  0  0  0  0
    0.5357    0.9631    0.8987 H   0  0  0  0  0  0  0  0  0  0  0  0
   -0.7649    2.8906    2.4292 H   0  0  0  0  0  0  0  0  0  0  0  0
   -1.4610    1.3055    2.0723 H   0  0  0  0  0  0  0  0  0  0  0  0
    0.0047    2.2080    4.5766 H   0  0  0  0  0  0  0  0  0  0  0  0
   -2.3684    0.8730    3.9493 H   0  0  0  0  0  0  0  0  0  0  0  0
   -0.2918   -0.7481    4.0418 H   0  0  0  0  0  0  0  0  0  0  0  0
    0.9377    0.1217    4.9711 H   0  0  0  0  0  0  0  0  0  0  0  0
    3.3344   -5.5765    0.8274 H   0  0  0  0  0  0  0  0  0  0  0  0
    2.7279   -3.9857    0.4315 H   0  0  0  0  0  0  0  0  0  0  0  0
    1.6796   -5.0972    1.2208 H   0  0  0  0  0  0  0  0  0  0  0  0
    5.2524   -4.4682    1.8234 H   0  0  0  0  0  0  0  0  0  0  0  0
    5.1263   -3.1689    2.9736 H   0  0  0  0  0  0  0  0  0  0  0  0
    4.5150   -2.9422    1.3690 H   0  0  0  0  0  0  0  0  0  0  0  0
    4.0954   -6.0540    3.1653 H   0  0  0  0  0  0  0  0  0  0  0  0
    4.1884   -3.6599    4.7569 H   0  0  0  0  0  0  0  0  0  0  0  0
    6.5135   -6.6838    5.9345 H   0  0  0  0  0  0  0  0  0  0  0  0
    5.3031   -6.0336    7.0083 H   0  0  0  0  0  0  0  0  0  0  0  0
    4.8111   -7.4907    4.4121 H   0  0  0  0  0  0  0  0  0  0  0  0
    2.7550   -7.9558    4.3471 H   0  0  0  0  0  0  0  0  0  0  0  0
   -1.2631   -9.0732    5.9368 H   0  0  0  0  0  0  0  0  0  0  0  0
   -0.1835   -8.4449    7.1089 H   0  0  0  0  0  0  0  0  0  0  0  0
    0.1180   -9.9121    6.2259 H   0  0  0  0  0  0  0  0  0  0  0  0
   -1.7186   -7.7007    4.4716 H   0  0  0  0  0  0  0  0  0  0  0  0
   -0.7976   -6.3937    3.9326 H   0  0  0  0  0  0  0  0  0  0  0  0
   -1.1440   -6.5797    5.6472 H   0  0  0  0  0  0  0  0  0  0  0  0
   -0.8021   -9.8379    3.6149 H   0  0  0  0  0  0  0  0  0  0  0  0
    0.1934  -10.9324    4.9960 H   0  0  0  0  0  0  0  0  0  0  0  0
    1.6725   -9.6677    7.4842 H   0  0  0  0  0  0  0  0  0  0  0  0
    3.2689   -9.7493    7.2466 H   0  0  0  0  0  0  0  0  0  0  0  0
    3.2843   -8.0781    9.2015 H   0  0  0  0  0  0  0  0  0  0  0  0
    4.0403   -6.6334    8.6033 H   0  0  0  0  0  0  0  0  0  0  0  0
    4.6480   -8.2107    8.1146 H   0  0  0  0  0  0  0  0  0  0  0  0
    0.7289   -6.6119    7.2728 H   0  0  0  0  0  0  0  0  0  0  0  0
    1.9257   -5.9619    8.2644 H   0  0  0  0  0  0  0  0  0  0  0  0
    1.4759   -4.2637    6.7712 H   0  0  0  0  0  0  0  0  0  0  0  0
  1  2  1  0
  1 43  1  0
  1 44  1  0
  1 45  1  0
  2 34  1  0
  2  3  1  0
  2 46  1  6
  3  4  1  0
  3 47  1  0
  3 48  1  0
  4  5  1  0
  4 49  1  0
  4 50  1  0
  5 32  1  0
  5  6  1  6
  7  5  1  6
  6 51  1  0
  7 22  1  0
  7 28  1  0
  7  8  1  0
  8 41  1  0
  8  9  1  0
  8 52  1  1
  9 10  1  0
  9 53  1  0
  9 54  1  0
 10 11  1  0
 10 19  1  0
 10 55  1  6
 11 12  1  0
 11 56  1  0
 11 57  1  0
 12 13  2  3
 12 58  1  0
 13 18  1  0
 13 14  1  0
 14 15  1  0
 14 59  1  0
 14 60  1  0
 15 16  1  0
 15 61  1  0
 15 62  1  0
 16 17  1  0
 16 18  1  0
 16 63  1  1
 17 64  1  0
 18 65  1  0
 18 66  1  0
 19 20  1  0
 19 21  1  0
 19 22  1  0
 20 67  1  0
 20 68  1  0
 20 69  1  0
 21 70  1  0
 21 71  1  0
 21 72  1  0
 22 23  1  0
 22 73  1  6
 23 42  1  0
 23 24  1  0
 23 74  1  6
 24 25  1  0
 25 26  1  0
 25 75  1  0
 25 76  1  0
 26 27  2  3
 26 77  1  0
 27 38  1  0
 27 28  1  0
 28 29  1  0
 28 78  1  6
 29 30  1  0
 29 31  1  0
 29 32  1  0
 30 79  1  0
 30 80  1  0
 30 81  1  0
 31 82  1  0
 31 83  1  0
 31 84  1  0
 32 33  1  6
 32 34  1  0
 33 85  1  0
 34 35  1  1
 34 36  1  0
 35 86  1  0
 36 37  1  0
 37 38  1  0
 37 87  1  0
 37 88  1  0
 38 39  1  1
 38 40  1  0
 39 89  1  0
 39 90  1  0
 39 91  1  0
 40 41  1  0
 40 92  1  0
 40 93  1  0
 41 42  1  0
 41 94  1  1
M  END
>  <i_m_ct_stereo_status>  (22) 
1

>  <s_m_source_file>  (22) 
/var/tmp/pbs.5076255.sched01/tmp7dv9smms/08akalw19.sdf

>  <i_m_source_file_index>  (22) 
8

>  <i_lp_mmshare_version>  (22) 
48012

>  <i_f3d_flags>  (22) 
0

>  <s_epik_input>  (22) 
W0NIMl0xW0NIMl1bQ0BASF0oW0NIM10pW0NAXShbT0hdKShbQ0BdMihbT0hdKVtDQF0xKFtDQF0zNDUpW09IXSlPW0NIMl1bQ0BAXTYoW0NIM10pQyhcW0NAQEhdNUMyKFtDSDNdKVtDSDNdKT1bQ0hdXFtDSDJdT1tDQEhdN1tDQEBIXTRDKFtDSDNdKShbQ0gzXSlbQ0BASF0oW0NIMl1bQ0BASF0zW0NASF0oTzcpW0NIMl02KVtDSDJdL1tDSF09QzhcW0NIMl1bQ0gyXVtDQEBIXShbT0hdKVtDSDJdOA==

>  <s_epik_cmdline>  (22) 
J2VwaWtfcHl0aG9uJywgJy1waHQnLCAnMi4wJywgJy1waCcsICc3LjAnLCAnLXRuJywgJzgnLCAnLW1hJywgJzIwMCcsICctaW1hZScsICc8aW5maWxlLm1hZT4nLCAnLW9tYWUnLCAnPG91dGZpbGUubWFlPic=

>  <r_lp_tautomer_probability>  (22) 
1

>  <r_epik_Ionization_Penalty>  (22) 
7.37587e-07

>  <r_epik_Ionization_Penalty_Charging>  (22) 
0

>  <r_epik_Ionization_Penalty_Neutral>  (22) 
7.37587e-07

>  <r_epik_State_Penalty>  (22) 
-0

>  <r_epik_Charging_Adjusted_Penalty>  (22) 
0

>  <i_epik_Tot_Q>  (22) 
0

>  <i_epik_Tot_abs_Q>  (22) 
0

>  <s_epik_Chemistry_Notes>  (22) 
This compound contains an acetal/aminal-like group ( X-CH(R)-Y where X, Y are N, S, or O) that may be acid/base labile, releasing an aldehyde.

>  <s_lp_Force_Field>  (22) 
OPLS3e

>  <r_lp_Energy>  (22) 
409.765

>  <b_lp_Chiralities_Consistent>  (22) 
1

>  <s_lp_Variant>  (22) 
0:0-8

>  <s_i_glide_gridfile>  (22) 
pfpi4k_grid

>  <i_i_glide_lignum>  (22) 
8

>  <i_i_glide_rotatable_bonds>  (22) 
6

>  <r_i_docking_score>  (22) 
-2.73205

>  <r_i_glide_ligand_efficiency>  (22) 
-0.0650487

>  <r_i_glide_ligand_efficiency_sa>  (22) 
-0.226111

>  <r_i_glide_ligand_efficiency_ln>  (22) 
-0.576664

>  <r_i_glide_gscore>  (22) 
-2.73205

>  <r_i_glide_lipo>  (22) 
-0.0629342

>  <r_i_glide_hbond>  (22) 
-0.242431

>  <r_i_glide_metal>  (22) 
-0

>  <r_i_glide_rewards>  (22) 
0

>  <r_i_glide_evdw>  (22) 
-27.7962

>  <r_i_glide_ecoul>  (22) 
-6.93273

>  <r_i_glide_erotb>  (22) 
0.0186197

>  <r_i_glide_esite>  (22) 
-0.0155804

>  <r_i_glide_emodel>  (22) 
-37.4697

>  <r_i_glide_energy>  (22) 
-34.7289

>  <r_i_glide_einternal>  (22) 
6.11226

>  <r_i_glide_intrahb_reward>  (22) 
-0

>  <i_i_glide_confnum>  (22) 
6

>  <i_i_glide_posenum>  (22) 
14

>  <r_i_glide_eff_state_penalty>  (22) 
0

>  <ligand_id>  (22) 
0

>  <original_smiles>  (22) 
CC1CCC2(O)C34C5CC(CC=C6CCC(O)C6)C(C)(C)C3C3OCC=C6C4C(C)(C)C2(O)C1(O)OCC6(C)CC5O3

>  <smiles>  (22) 
[H]OC1([H])C([H])([H])C(=C([H])C([H])([H])C2([H])C([H])([H])C3([H])C4([H])OC5([H])OC([H])([H])C([H])=C6C7([H])C(C([H])([H])[H])(C([H])([H])[H])C8(O[H])C(O[H])(OC([H])([H])C6(C([H])([H])[H])C4([H])[H])C([H])(C([H])([H])[H])C([H])([H])C([H])([H])C8(O[H])C73C5([H])C2(C([H])([H])[H])C([H])([H])[H])C([H])([H])C1([H])[H]

$$$$
0:7:1
     RDKit          3D

 94101  0  0  1  0  0  0  0  0999 V2000
    4.4466   -9.9743    3.0224 C   0  0  0  0  0  0  0  0  0  0  0  0
    2.9841   -9.9504    2.5585 C   0  0  2  0  0  0  0  0  0  0  0  0
    2.7534   -9.0198    1.3384 C   0  0  0  0  0  0  0  0  0  0  0  0
    2.7564   -7.5168    1.6662 C   0  0  0  0  0  0  0  0  0  0  0  0
    1.5897   -7.0365    2.5965 C   0  0  2  0  0  0  0  0  0  0  0  0
    0.6433   -6.4881    1.6899 O   0  0  0  0  0  0  0  0  0  0  0  0
    2.0518   -5.9205    3.7712 C   0  0  2  0  0  0  0  0  0  0  0  0
    1.2453   -4.9244    4.6986 C   0  0  2  0  0  0  0  0  0  0  0  0
    1.0362   -3.5087    4.0768 C   0  0  0  0  0  0  0  0  0  0  0  0
    2.1179   -2.8125    3.2004 C   0  0  1  0  0  0  0  0  0  0  0  0
    2.5450   -1.4137    3.7495 C   0  0  0  0  0  0  0  0  0  0  0  0
    1.6320   -0.2884    3.3024 C   0  0  0  0  0  0  0  0  0  0  0  0
    0.7431    0.3489    4.0700 C   0  0  0  0  0  0  0  0  0  0  0  0
   -0.1096    1.5121    3.6150 C   0  0  0  0  0  0  0  0  0  0  0  0
   -1.1586    1.6988    4.7235 C   0  0  0  0  0  0  0  0  0  0  0  0
   -0.5201    1.1152    5.9859 C   0  0  1  0  0  0  0  0  0  0  0  0
   -1.4907    0.6284    6.8842 O   0  0  0  0  0  0  0  0  0  0  0  0
    0.3974   -0.0021    5.5009 C   0  0  0  0  0  0  0  0  0  0  0  0
    3.2455   -3.7838    2.7012 C   0  0  0  0  0  0  0  0  0  0  0  0
    2.8792   -4.2046    1.2623 C   0  0  0  0  0  0  0  0  0  0  0  0
    4.6327   -3.1211    2.4761 C   0  0  0  0  0  0  0  0  0  0  0  0
    3.3818   -5.0258    3.6571 C   0  0  1  0  0  0  0  0  0  0  0  0
    3.9402   -4.4371    5.0656 C   0  0  2  0  0  0  0  0  0  0  0  0
    5.2610   -4.8661    5.3304 O   0  0  0  0  0  0  0  0  0  0  0  0
    5.3805   -6.0588    6.0958 C   0  0  0  0  0  0  0  0  0  0  0  0
    4.5452   -7.1041    5.4138 C   0  0  0  0  0  0  0  0  0  0  0  0
    3.2261   -7.2461    5.6658 C   0  0  0  0  0  0  0  0  0  0  0  0
    2.0708   -7.1082    4.6458 C   0  0  1  0  0  0  0  0  0  0  0  0
    0.5375   -7.8346    4.5883 C   0  0  0  0  0  0  0  0  0  0  0  0
   -0.1831   -8.8579    5.5781 C   0  0  0  0  0  0  0  0  0  0  0  0
   -0.7944   -7.0134    4.3202 C   0  0  0  0  0  0  0  0  0  0  0  0
    0.9613   -8.4262    3.3032 C   0  0  1  0  0  0  0  0  0  0  0  0
   -0.1260   -8.8450    2.4784 O   0  0  0  0  0  0  0  0  0  0  0  0
    1.9307   -9.7140    3.7096 C   0  0  1  0  0  0  0  0  0  0  0  0
    1.1332  -10.8745    3.7253 O   0  0  0  0  0  0  0  0  0  0  0  0
    2.6766   -9.6276    5.0164 O   0  0  0  0  0  0  0  0  0  0  0  0
    2.3868   -9.1526    6.4454 C   0  0  0  0  0  0  0  0  0  0  0  0
    2.6149   -7.6012    6.9151 C   0  0  1  0  0  0  0  0  0  0  0  0
    3.5283   -7.6462    8.1680 C   0  0  0  0  0  0  0  0  0  0  0  0
    1.5875   -6.3588    7.0810 C   0  0  0  0  0  0  0  0  0  0  0  0
    1.7871   -4.9965    6.1906 C   0  0  1  0  0  0  0  0  0  0  0  0
    3.1250   -4.5244    6.2312 O   0  0  0  0  0  0  0  0  0  0  0  0
    4.7874   -9.0074    3.3787 H   0  0  0  0  0  0  0  0  0  0  0  0
    5.0888  -10.2622    2.1941 H   0  0  0  0  0  0  0  0  0  0  0  0
    4.6001  -10.7112    3.8133 H   0  0  0  0  0  0  0  0  0  0  0  0
    2.8181  -10.9585    2.1728 H   0  0  0  0  0  0  0  0  0  0  0  0
    3.5203   -9.2323    0.5990 H   0  0  0  0  0  0  0  0  0  0  0  0
    1.8235   -9.3084    0.8627 H   0  0  0  0  0  0  0  0  0  0  0  0
    3.7310   -7.2942    2.0920 H   0  0  0  0  0  0  0  0  0  0  0  0
    2.7225   -6.9735    0.7259 H   0  0  0  0  0  0  0  0  0  0  0  0
    0.2979   -7.2386    1.2202 H   0  0  0  0  0  0  0  0  0  0  0  0
    0.2420   -5.1276    4.9589 H   0  0  0  0  0  0  0  0  0  0  0  0
    0.1301   -3.5534    3.4701 H   0  0  0  0  0  0  0  0  0  0  0  0
    0.7916   -2.8683    4.9100 H   0  0  0  0  0  0  0  0  0  0  0  0
    1.5696   -2.5552    2.3010 H   0  0  0  0  0  0  0  0  0  0  0  0
    2.6704   -1.4452    4.8282 H   0  0  0  0  0  0  0  0  0  0  0  0
    3.4850   -1.0306    3.3628 H   0  0  0  0  0  0  0  0  0  0  0  0
    1.7621    0.0399    2.2776 H   0  0  0  0  0  0  0  0  0  0  0  0
    0.5141    2.4048    3.5241 H   0  0  0  0  0  0  0  0  0  0  0  0
   -0.5726    1.3149    2.6474 H   0  0  0  0  0  0  0  0  0  0  0  0
   -1.4437    2.7469    4.8528 H   0  0  0  0  0  0  0  0  0  0  0  0
   -2.0554    1.1357    4.4522 H   0  0  0  0  0  0  0  0  0  0  0  0
    0.0945    1.8716    6.4733 H   0  0  0  0  0  0  0  0  0  0  0  0
   -1.9711    1.3847    7.1982 H   0  0  0  0  0  0  0  0  0  0  0  0
   -0.1473   -0.9420    5.4927 H   0  0  0  0  0  0  0  0  0  0  0  0
    1.2876   -0.1018    6.1159 H   0  0  0  0  0  0  0  0  0  0  0  0
    3.5718   -4.9554    0.8727 H   0  0  0  0  0  0  0  0  0  0  0  0
    2.9189   -3.3567    0.5722 H   0  0  0  0  0  0  0  0  0  0  0  0
    1.8670   -4.5705    1.1772 H   0  0  0  0  0  0  0  0  0  0  0  0
    5.3760   -3.8581    2.1518 H   0  0  0  0  0  0  0  0  0  0  0  0
    5.0593   -2.6439    3.3489 H   0  0  0  0  0  0  0  0  0  0  0  0
    4.5820   -2.3525    1.7034 H   0  0  0  0  0  0  0  0  0  0  0  0
    4.1850   -5.6037    3.2123 H   0  0  0  0  0  0  0  0  0  0  0  0
    4.0455   -3.3577    5.0024 H   0  0  0  0  0  0  0  0  0  0  0  0
    6.4166   -6.3734    6.0947 H   0  0  0  0  0  0  0  0  0  0  0  0
    5.1030   -5.8708    7.1262 H   0  0  0  0  0  0  0  0  0  0  0  0
    4.8694   -7.1108    4.3867 H   0  0  0  0  0  0  0  0  0  0  0  0
    2.8444   -7.6429    4.1271 H   0  0  0  0  0  0  0  0  0  0  0  0
   -1.2258   -9.0574    5.3227 H   0  0  0  0  0  0  0  0  0  0  0  0
   -0.2278   -8.5135    6.6043 H   0  0  0  0  0  0  0  0  0  0  0  0
    0.1669   -9.8755    5.5984 H   0  0  0  0  0  0  0  0  0  0  0  0
   -1.6170   -7.6131    3.9163 H   0  0  0  0  0  0  0  0  0  0  0  0
   -0.7234   -6.2247    3.5793 H   0  0  0  0  0  0  0  0  0  0  0  0
   -1.2063   -6.5826    5.2379 H   0  0  0  0  0  0  0  0  0  0  0  0
    0.1990   -9.4690    1.8365 H   0  0  0  0  0  0  0  0  0  0  0  0
    1.7110  -11.6231    3.8541 H   0  0  0  0  0  0  0  0  0  0  0  0
    1.6212   -9.6789    7.0006 H   0  0  0  0  0  0  0  0  0  0  0  0
    3.2332   -9.6690    6.8970 H   0  0  0  0  0  0  0  0  0  0  0  0
    3.0296   -8.1800    8.9762 H   0  0  0  0  0  0  0  0  0  0  0  0
    3.7584   -6.6582    8.5616 H   0  0  0  0  0  0  0  0  0  0  0  0
    4.4739   -8.1619    7.9883 H   0  0  0  0  0  0  0  0  0  0  0  0
    0.5549   -6.6543    6.9901 H   0  0  0  0  0  0  0  0  0  0  0  0
    1.6499   -6.0464    8.1208 H   0  0  0  0  0  0  0  0  0  0  0  0
    1.2226   -4.2476    6.7397 H   0  0  0  0  0  0  0  0  0  0  0  0
  1  2  1  0
  1 43  1  0
  1 44  1  0
  1 45  1  0
  2 34  1  0
  2  3  1  0
  2 46  1  6
  3  4  1  0
  3 47  1  0
  3 48  1  0
  4  5  1  0
  4 49  1  0
  4 50  1  0
  5 32  1  0
  5  6  1  6
  7  5  1  6
  6 51  1  0
  7 22  1  0
  7 28  1  0
  7  8  1  0
  8 41  1  0
  8  9  1  0
  8 52  1  1
  9 10  1  0
  9 53  1  0
  9 54  1  0
 10 11  1  0
 10 19  1  0
 10 55  1  6
 11 12  1  0
 11 56  1  0
 11 57  1  0
 12 13  2  3
 12 58  1  0
 13 18  1  0
 13 14  1  0
 14 15  1  0
 14 59  1  0
 14 60  1  0
 15 16  1  0
 15 61  1  0
 15 62  1  0
 16 17  1  0
 16 18  1  0
 16 63  1  1
 17 64  1  0
 18 65  1  0
 18 66  1  0
 19 20  1  0
 19 21  1  0
 19 22  1  0
 20 67  1  0
 20 68  1  0
 20 69  1  0
 21 70  1  0
 21 71  1  0
 21 72  1  0
 22 23  1  0
 22 73  1  6
 23 42  1  0
 23 24  1  0
 23 74  1  6
 24 25  1  0
 25 26  1  0
 25 75  1  0
 25 76  1  0
 26 27  2  3
 26 77  1  0
 27 38  1  0
 27 28  1  0
 28 29  1  0
 28 78  1  6
 29 30  1  0
 29 31  1  0
 29 32  1  0
 30 79  1  0
 30 80  1  0
 30 81  1  0
 31 82  1  0
 31 83  1  0
 31 84  1  0
 32 33  1  6
 32 34  1  0
 33 85  1  0
 34 35  1  1
 34 36  1  0
 35 86  1  0
 36 37  1  0
 37 38  1  0
 37 87  1  0
 37 88  1  0
 38 39  1  1
 38 40  1  0
 39 89  1  0
 39 90  1  0
 39 91  1  0
 40 41  1  0
 40 92  1  0
 40 93  1  0
 41 42  1  0
 41 94  1  1
M  END
>  <i_m_ct_stereo_status>  (23) 
1

>  <s_m_source_file>  (23) 
/var/tmp/pbs.5076255.sched01/tmp7dv9smms/08akalw19.sdf

>  <i_m_source_file_index>  (23) 
8

>  <i_lp_mmshare_version>  (23) 
48012

>  <i_f3d_flags>  (23) 
0

>  <s_epik_input>  (23) 
W0NIMl0xW0NIMl1bQ0BASF0oW0NIM10pW0NAXShbT0hdKShbQ0BdMihbT0hdKVtDQF0xKFtDQF0zNDUpW09IXSlPW0NIMl1bQ0BAXTYoW0NIM10pQyhcW0NAQEhdNUMyKFtDSDNdKVtDSDNdKT1bQ0hdXFtDSDJdT1tDQEhdN1tDQEBIXTRDKFtDSDNdKShbQ0gzXSlbQ0BASF0oW0NIMl1bQ0BASF0zW0NASF0oTzcpW0NIMl02KVtDSDJdL1tDSF09QzhcW0NIMl1bQ0gyXVtDQEBIXShbT0hdKVtDSDJdOA==

>  <s_epik_cmdline>  (23) 
J2VwaWtfcHl0aG9uJywgJy1waHQnLCAnMi4wJywgJy1waCcsICc3LjAnLCAnLXRuJywgJzgnLCAnLW1hJywgJzIwMCcsICctaW1hZScsICc8aW5maWxlLm1hZT4nLCAnLW9tYWUnLCAnPG91dGZpbGUubWFlPic=

>  <r_lp_tautomer_probability>  (23) 
1

>  <r_epik_Ionization_Penalty>  (23) 
7.37587e-07

>  <r_epik_Ionization_Penalty_Charging>  (23) 
0

>  <r_epik_Ionization_Penalty_Neutral>  (23) 
7.37587e-07

>  <r_epik_State_Penalty>  (23) 
-0

>  <r_epik_Charging_Adjusted_Penalty>  (23) 
0

>  <i_epik_Tot_Q>  (23) 
0

>  <i_epik_Tot_abs_Q>  (23) 
0

>  <s_epik_Chemistry_Notes>  (23) 
This compound contains an acetal/aminal-like group ( X-CH(R)-Y where X, Y are N, S, or O) that may be acid/base labile, releasing an aldehyde.

>  <s_lp_Force_Field>  (23) 
OPLS3e

>  <r_lp_Energy>  (23) 
409.765

>  <b_lp_Chiralities_Consistent>  (23) 
1

>  <s_lp_Variant>  (23) 
0:0-8

>  <s_i_glide_gridfile>  (23) 
pfpi4k_grid

>  <i_i_glide_lignum>  (23) 
8

>  <i_i_glide_rotatable_bonds>  (23) 
6

>  <r_i_docking_score>  (23) 
-2.66904

>  <r_i_glide_ligand_efficiency>  (23) 
-0.0635485

>  <r_i_glide_ligand_efficiency_sa>  (23) 
-0.220896

>  <r_i_glide_ligand_efficiency_ln>  (23) 
-0.563365

>  <r_i_glide_gscore>  (23) 
-2.66904

>  <r_i_glide_lipo>  (23) 
-0.0567993

>  <r_i_glide_hbond>  (23) 
-0.16

>  <r_i_glide_metal>  (23) 
-0

>  <r_i_glide_rewards>  (23) 
0

>  <r_i_glide_evdw>  (23) 
-24.2234

>  <r_i_glide_ecoul>  (23) 
-8.36081

>  <r_i_glide_erotb>  (23) 
0.0186197

>  <r_i_glide_esite>  (23) 
-0.00556253

>  <r_i_glide_emodel>  (23) 
-36.02

>  <r_i_glide_energy>  (23) 
-32.5843

>  <r_i_glide_einternal>  (23) 
3.93067

>  <r_i_glide_intrahb_reward>  (23) 
-0

>  <i_i_glide_confnum>  (23) 
6

>  <i_i_glide_posenum>  (23) 
1

>  <r_i_glide_eff_state_penalty>  (23) 
0

>  <ligand_id>  (23) 
0

>  <original_smiles>  (23) 
CC1CCC2(O)C34C5CC(CC=C6CCC(O)C6)C(C)(C)C3C3OCC=C6C4C(C)(C)C2(O)C1(O)OCC6(C)CC5O3

>  <smiles>  (23) 
[H]OC1([H])C([H])([H])C(=C([H])C([H])([H])C2([H])C([H])([H])C3([H])C4([H])OC5([H])OC([H])([H])C([H])=C6C7([H])C(C([H])([H])[H])(C([H])([H])[H])C8(O[H])C(O[H])(OC([H])([H])C6(C([H])([H])[H])C4([H])[H])C([H])(C([H])([H])[H])C([H])([H])C([H])([H])C8(O[H])C73C5([H])C2(C([H])([H])[H])C([H])([H])[H])C([H])([H])C1([H])[H]

$$$$
0:7:2
     RDKit          3D

 94101  0  0  1  0  0  0  0  0999 V2000
    4.4422  -10.0479    3.0720 C   0  0  0  0  0  0  0  0  0  0  0  0
    2.9706  -10.0348    2.6216 C   0  0  2  0  0  0  0  0  0  0  0  0
    2.7464   -9.1674    1.3520 C   0  0  0  0  0  0  0  0  0  0  0  0
    2.7592   -7.6425    1.6068 C   0  0  0  0  0  0  0  0  0  0  0  0
    1.6022   -7.1039    2.5185 C   0  0  2  0  0  0  0  0  0  0  0  0
    0.6476   -6.6123    1.5869 O   0  0  0  0  0  0  0  0  0  0  0  0
    2.0814   -5.9388    3.6355 C   0  0  2  0  0  0  0  0  0  0  0  0
    1.2814   -4.8935    4.5161 C   0  0  2  0  0  0  0  0  0  0  0  0
    1.1082   -3.4916    3.8554 C   0  0  0  0  0  0  0  0  0  0  0  0
    2.1740   -2.8664    2.9148 C   0  0  1  0  0  0  0  0  0  0  0  0
    2.6081   -1.4350    3.3813 C   0  0  0  0  0  0  0  0  0  0  0  0
    1.9884   -0.3222    2.5496 C   0  0  0  0  0  0  0  0  0  0  0  0
    1.0103    0.5011    2.9528 C   0  0  0  0  0  0  0  0  0  0  0  0
    0.4521    1.6428    2.1323 C   0  0  0  0  0  0  0  0  0  0  0  0
   -0.8013    2.1031    2.8897 C   0  0  0  0  0  0  0  0  0  0  0  0
   -0.5709    1.6764    4.3436 C   0  0  1  0  0  0  0  0  0  0  0  0
   -1.7791    1.4265    5.0316 O   0  0  0  0  0  0  0  0  0  0  0  0
    0.2917    0.4142    4.2774 C   0  0  0  0  0  0  0  0  0  0  0  0
    3.2864   -3.8699    2.4409 C   0  0  0  0  0  0  0  0  0  0  0  0
    2.8987   -4.3608    1.0297 C   0  0  0  0  0  0  0  0  0  0  0  0
    4.6766   -3.2312    2.1752 C   0  0  0  0  0  0  0  0  0  0  0  0
    3.4152   -5.0619    3.4608 C   0  0  1  0  0  0  0  0  0  0  0  0
    3.9834   -4.4056    4.8343 C   0  0  2  0  0  0  0  0  0  0  0  0
    5.3009   -4.8301    5.1142 O   0  0  0  0  0  0  0  0  0  0  0  0
    5.4221   -5.9860    5.9389 C   0  0  0  0  0  0  0  0  0  0  0  0
    4.5739   -7.0634    5.3170 C   0  0  0  0  0  0  0  0  0  0  0  0
    3.2583   -7.1743    5.5810 C   0  0  0  0  0  0  0  0  0  0  0  0
    2.0957   -7.0907    4.5568 C   0  0  1  0  0  0  0  0  0  0  0  0
    0.5521   -7.8005    4.5504 C   0  0  0  0  0  0  0  0  0  0  0  0
   -0.1659   -8.7706    5.5958 C   0  0  0  0  0  0  0  0  0  0  0  0
   -0.7754   -6.9881    4.2448 C   0  0  0  0  0  0  0  0  0  0  0  0
    0.9592   -8.4554    3.2938 C   0  0  1  0  0  0  0  0  0  0  0  0
   -0.1308   -8.9361    2.5093 O   0  0  0  0  0  0  0  0  0  0  0  0
    1.9281   -9.7255    3.7614 C   0  0  1  0  0  0  0  0  0  0  0  0
    1.1215  -10.8836    3.8361 O   0  0  0  0  0  0  0  0  0  0  0  0
    2.6763   -9.5933    5.0542 O   0  0  0  0  0  0  0  0  0  0  0  0
    2.4109   -9.0408    6.4636 C   0  0  0  0  0  0  0  0  0  0  0  0
    2.6544   -7.4690    6.8519 C   0  0  1  0  0  0  0  0  0  0  0  0
    3.5725   -7.4557    8.1019 C   0  0  0  0  0  0  0  0  0  0  0  0
    1.6331   -6.2143    6.9614 C   0  0  0  0  0  0  0  0  0  0  0  0
    1.8340   -4.8952    6.0051 C   0  0  1  0  0  0  0  0  0  0  0  0
    3.1790   -4.4263    6.0118 O   0  0  0  0  0  0  0  0  0  0  0  0
    4.7941   -9.0669    3.3763 H   0  0  0  0  0  0  0  0  0  0  0  0
    5.0786  -10.3805    2.2548 H   0  0  0  0  0  0  0  0  0  0  0  0
    4.5981  -10.7448    3.8965 H   0  0  0  0  0  0  0  0  0  0  0  0
    2.7990  -11.0625    2.2935 H   0  0  0  0  0  0  0  0  0  0  0  0
    3.5086   -9.4192    0.6193 H   0  0  0  0  0  0  0  0  0  0  0  0
    1.8133   -9.4749    0.8875 H   0  0  0  0  0  0  0  0  0  0  0  0
    3.7380   -7.4157    2.0216 H   0  0  0  0  0  0  0  0  0  0  0  0
    2.7413   -7.1179    0.6553 H   0  0  0  0  0  0  0  0  0  0  0  0
    0.2930   -7.3807    1.1540 H   0  0  0  0  0  0  0  0  0  0  0  0
    0.2737   -5.0765    4.7829 H   0  0  0  0  0  0  0  0  0  0  0  0
    0.2326   -3.5998    3.2045 H   0  0  0  0  0  0  0  0  0  0  0  0
    0.7937   -2.7888    4.6141 H   0  0  0  0  0  0  0  0  0  0  0  0
    1.6001   -2.6597    2.0186 H   0  0  0  0  0  0  0  0  0  0  0  0
    2.3915   -1.2997    4.4401 H   0  0  0  0  0  0  0  0  0  0  0  0
    3.6809   -1.2315    3.2968 H   0  0  0  0  0  0  0  0  0  0  0  0
    2.3952   -0.1897    1.5572 H   0  0  0  0  0  0  0  0  0  0  0  0
    1.1857    2.4508    2.0879 H   0  0  0  0  0  0  0  0  0  0  0  0
    0.2134    1.3333    1.1164 H   0  0  0  0  0  0  0  0  0  0  0  0
   -0.9644    3.1806    2.7943 H   0  0  0  0  0  0  0  0  0  0  0  0
   -1.6714    1.5921    2.4730 H   0  0  0  0  0  0  0  0  0  0  0  0
   -0.0107    2.4580    4.8597 H   0  0  0  0  0  0  0  0  0  0  0  0
   -2.4147    2.0650    4.7345 H   0  0  0  0  0  0  0  0  0  0  0  0
   -0.3149   -0.4904    4.2612 H   0  0  0  0  0  0  0  0  0  0  0  0
    0.9846    0.3612    5.1119 H   0  0  0  0  0  0  0  0  0  0  0  0
    3.5851   -5.1301    0.6766 H   0  0  0  0  0  0  0  0  0  0  0  0
    2.9417   -3.5526    0.2969 H   0  0  0  0  0  0  0  0  0  0  0  0
    1.8852   -4.7275    0.9693 H   0  0  0  0  0  0  0  0  0  0  0  0
    5.3900   -3.9941    1.8479 H   0  0  0  0  0  0  0  0  0  0  0  0
    5.1282   -2.7410    3.0252 H   0  0  0  0  0  0  0  0  0  0  0  0
    4.6199   -2.4834    1.3869 H   0  0  0  0  0  0  0  0  0  0  0  0
    4.2072   -5.6685    3.0449 H   0  0  0  0  0  0  0  0  0  0  0  0
    4.0932   -3.3329    4.7187 H   0  0  0  0  0  0  0  0  0  0  0  0
    6.4557   -6.3075    5.9498 H   0  0  0  0  0  0  0  0  0  0  0  0
    5.1502   -5.7443    6.9602 H   0  0  0  0  0  0  0  0  0  0  0  0
    4.8948   -7.1215    4.2871 H   0  0  0  0  0  0  0  0  0  0  0  0
    2.8695   -7.6561    4.0683 H   0  0  0  0  0  0  0  0  0  0  0  0
   -1.2113   -8.9788    5.3561 H   0  0  0  0  0  0  0  0  0  0  0  0
   -0.1981   -8.3673    6.6015 H   0  0  0  0  0  0  0  0  0  0  0  0
    0.1808   -9.7877    5.6835 H   0  0  0  0  0  0  0  0  0  0  0  0
   -1.6004   -7.6054    3.8784 H   0  0  0  0  0  0  0  0  0  0  0  0
   -0.7008   -6.2465    3.4625 H   0  0  0  0  0  0  0  0  0  0  0  0
   -1.1766   -6.5096    5.1404 H   0  0  0  0  0  0  0  0  0  0  0  0
    0.2076   -9.5065    1.8265 H   0  0  0  0  0  0  0  0  0  0  0  0
    0.4091  -10.7298    4.4373 H   0  0  0  0  0  0  0  0  0  0  0  0
    1.6460   -9.5318    7.0532 H   0  0  0  0  0  0  0  0  0  0  0  0
    3.2571   -9.5400    6.9314 H   0  0  0  0  0  0  0  0  0  0  0  0
    3.0732   -7.9456    8.9367 H   0  0  0  0  0  0  0  0  0  0  0  0
    3.8086   -6.4508    8.4423 H   0  0  0  0  0  0  0  0  0  0  0  0
    4.5118   -7.9852    7.9419 H   0  0  0  0  0  0  0  0  0  0  0  0
    0.5955   -6.5050    6.8876 H   0  0  0  0  0  0  0  0  0  0  0  0
    1.6968   -5.8493    7.9826 H   0  0  0  0  0  0  0  0  0  0  0  0
    1.2783   -4.1165    6.5199 H   0  0  0  0  0  0  0  0  0  0  0  0
  1  2  1  0
  1 43  1  0
  1 44  1  0
  1 45  1  0
  2 34  1  0
  2  3  1  0
  2 46  1  6
  3  4  1  0
  3 47  1  0
  3 48  1  0
  4  5  1  0
  4 49  1  0
  4 50  1  0
  5 32  1  0
  5  6  1  6
  7  5  1  6
  6 51  1  0
  7 22  1  0
  7 28  1  0
  7  8  1  0
  8 41  1  0
  8  9  1  0
  8 52  1  1
  9 10  1  0
  9 53  1  0
  9 54  1  0
 10 11  1  0
 10 19  1  0
 10 55  1  6
 11 12  1  0
 11 56  1  0
 11 57  1  0
 12 13  2  3
 12 58  1  0
 13 18  1  0
 13 14  1  0
 14 15  1  0
 14 59  1  0
 14 60  1  0
 15 16  1  0
 15 61  1  0
 15 62  1  0
 16 17  1  0
 16 18  1  0
 16 63  1  1
 17 64  1  0
 18 65  1  0
 18 66  1  0
 19 20  1  0
 19 21  1  0
 19 22  1  0
 20 67  1  0
 20 68  1  0
 20 69  1  0
 21 70  1  0
 21 71  1  0
 21 72  1  0
 22 23  1  0
 22 73  1  6
 23 42  1  0
 23 24  1  0
 23 74  1  6
 24 25  1  0
 25 26  1  0
 25 75  1  0
 25 76  1  0
 26 27  2  3
 26 77  1  0
 27 38  1  0
 27 28  1  0
 28 29  1  0
 28 78  1  6
 29 30  1  0
 29 31  1  0
 29 32  1  0
 30 79  1  0
 30 80  1  0
 30 81  1  0
 31 82  1  0
 31 83  1  0
 31 84  1  0
 32 33  1  6
 32 34  1  0
 33 85  1  0
 34 35  1  1
 34 36  1  0
 35 86  1  0
 36 37  1  0
 37 38  1  0
 37 87  1  0
 37 88  1  0
 38 39  1  1
 38 40  1  0
 39 89  1  0
 39 90  1  0
 39 91  1  0
 40 41  1  0
 40 92  1  0
 40 93  1  0
 41 42  1  0
 41 94  1  1
M  END
>  <i_m_ct_stereo_status>  (24) 
1

>  <s_m_source_file>  (24) 
/var/tmp/pbs.5076255.sched01/tmp7dv9smms/08akalw19.sdf

>  <i_m_source_file_index>  (24) 
8

>  <i_lp_mmshare_version>  (24) 
48012

>  <i_f3d_flags>  (24) 
0

>  <s_epik_input>  (24) 
W0NIMl0xW0NIMl1bQ0BASF0oW0NIM10pW0NAXShbT0hdKShbQ0BdMihbT0hdKVtDQF0xKFtDQF0zNDUpW09IXSlPW0NIMl1bQ0BAXTYoW0NIM10pQyhcW0NAQEhdNUMyKFtDSDNdKVtDSDNdKT1bQ0hdXFtDSDJdT1tDQEhdN1tDQEBIXTRDKFtDSDNdKShbQ0gzXSlbQ0BASF0oW0NIMl1bQ0BASF0zW0NASF0oTzcpW0NIMl02KVtDSDJdL1tDSF09QzhcW0NIMl1bQ0gyXVtDQEBIXShbT0hdKVtDSDJdOA==

>  <s_epik_cmdline>  (24) 
J2VwaWtfcHl0aG9uJywgJy1waHQnLCAnMi4wJywgJy1waCcsICc3LjAnLCAnLXRuJywgJzgnLCAnLW1hJywgJzIwMCcsICctaW1hZScsICc8aW5maWxlLm1hZT4nLCAnLW9tYWUnLCAnPG91dGZpbGUubWFlPic=

>  <r_lp_tautomer_probability>  (24) 
1

>  <r_epik_Ionization_Penalty>  (24) 
7.37587e-07

>  <r_epik_Ionization_Penalty_Charging>  (24) 
0

>  <r_epik_Ionization_Penalty_Neutral>  (24) 
7.37587e-07

>  <r_epik_State_Penalty>  (24) 
-0

>  <r_epik_Charging_Adjusted_Penalty>  (24) 
0

>  <i_epik_Tot_Q>  (24) 
0

>  <i_epik_Tot_abs_Q>  (24) 
0

>  <s_epik_Chemistry_Notes>  (24) 
This compound contains an acetal/aminal-like group ( X-CH(R)-Y where X, Y are N, S, or O) that may be acid/base labile, releasing an aldehyde.

>  <s_lp_Force_Field>  (24) 
OPLS3e

>  <r_lp_Energy>  (24) 
409.765

>  <b_lp_Chiralities_Consistent>  (24) 
1

>  <s_lp_Variant>  (24) 
0:0-8

>  <s_i_glide_gridfile>  (24) 
pfpi4k_grid

>  <i_i_glide_lignum>  (24) 
8

>  <i_i_glide_rotatable_bonds>  (24) 
6

>  <r_i_docking_score>  (24) 
-2.32407

>  <r_i_glide_ligand_efficiency>  (24) 
-0.0553349

>  <r_i_glide_ligand_efficiency_sa>  (24) 
-0.192346

>  <r_i_glide_ligand_efficiency_ln>  (24) 
-0.490551

>  <r_i_glide_gscore>  (24) 
-2.32407

>  <r_i_glide_lipo>  (24) 
-0.0615076

>  <r_i_glide_hbond>  (24) 
0

>  <r_i_glide_metal>  (24) 
-0

>  <r_i_glide_rewards>  (24) 
0

>  <r_i_glide_evdw>  (24) 
-27.8306

>  <r_i_glide_ecoul>  (24) 
-5.88891

>  <r_i_glide_erotb>  (24) 
0.0186197

>  <r_i_glide_esite>  (24) 
-0.00631042

>  <r_i_glide_emodel>  (24) 
-35.4795

>  <r_i_glide_energy>  (24) 
-33.7195

>  <r_i_glide_einternal>  (24) 
5.8385

>  <r_i_glide_intrahb_reward>  (24) 
-0

>  <i_i_glide_confnum>  (24) 
6

>  <i_i_glide_posenum>  (24) 
15

>  <r_i_glide_eff_state_penalty>  (24) 
0

>  <ligand_id>  (24) 
0

>  <original_smiles>  (24) 
CC1CCC2(O)C34C5CC(CC=C6CCC(O)C6)C(C)(C)C3C3OCC=C6C4C(C)(C)C2(O)C1(O)OCC6(C)CC5O3

>  <smiles>  (24) 
[H]OC1([H])C([H])([H])C(=C([H])C([H])([H])C2([H])C([H])([H])C3([H])C4([H])OC5([H])OC([H])([H])C([H])=C6C7([H])C(C([H])([H])[H])(C([H])([H])[H])C8(O[H])C(O[H])(OC([H])([H])C6(C([H])([H])[H])C4([H])[H])C([H])(C([H])([H])[H])C([H])([H])C([H])([H])C8(O[H])C73C5([H])C2(C([H])([H])[H])C([H])([H])[H])C([H])([H])C1([H])[H]

$$$$
1:0:0
     RDKit          3D

 68 73  0  0  1  0  0  0  0  0999 V2000
    2.7437   -3.3519   -1.9733 C   0  0  0  0  0  0  0  0  0  0  0  0
    3.0254   -1.9561   -1.4903 N   0  0  0  0  0  0  0  0  0  0  0  0
    3.6505   -1.1679   -2.5793 C   0  0  0  0  0  0  0  0  0  0  0  0
    3.8359   -1.8574   -0.2459 C   0  0  0  0  0  0  0  0  0  0  0  0
    3.2007   -2.6111    0.9401 C   0  0  0  0  0  0  0  0  0  0  0  0
    2.6283   -2.0018    1.8491 O   0  0  0  0  0  0  0  0  0  0  0  0
    3.3210   -3.9503    0.8297 O   0  0  0  0  0  0  0  0  0  0  0  0
    2.7464   -4.8298    1.7925 C   0  0  2  0  0  0  0  0  0  0  0  0
    3.6993   -4.9254    2.9901 C   0  0  0  0  0  0  0  0  0  0  0  0
    3.3480   -5.7903    3.9573 C   0  0  0  0  0  0  0  0  0  0  0  0
    3.9708   -7.2302    4.0112 C   0  0  0  0  0  0  0  0  0  0  0  0
    3.7255   -8.2718    2.7492 C   0  0  1  0  0  0  0  0  0  0  0  0
    4.6320   -9.5083    2.7215 C   0  0  0  0  0  0  0  0  0  0  0  0
    2.9148   -8.5288    1.4858 O   0  0  0  0  0  0  0  0  0  0  0  0
    1.8425   -7.5549    1.2416 C   0  0  2  0  0  0  0  0  0  0  0  0
    2.6014   -6.2536    1.0900 C   0  0  2  0  0  0  0  0  0  0  0  0
    3.4180   -7.4187    1.6532 C   0  0  1  0  0  0  0  0  0  0  0  0
    4.9388   -7.0219    1.3752 C   0  0  0  0  0  0  0  0  0  0  0  0
    1.8722   -7.6481    2.6247 C   0  0  1  0  0  0  0  0  0  0  0  0
    1.0639   -6.5559    3.5039 C   0  0  1  0  0  0  0  0  0  0  0  0
   -0.2710   -6.9334    4.2249 C   0  0  0  0  0  0  0  0  0  0  0  0
   -1.1035   -7.9840    3.5315 C   0  0  0  0  0  0  0  0  0  0  0  0
   -0.3156   -9.2380    3.2913 C   0  0  1  0  0  0  0  0  0  0  0  0
    1.1281   -9.0982    2.9024 C   0  0  2  0  0  0  0  0  0  0  0  0
    0.7672   -9.8891    4.1526 C   0  0  0  0  0  0  0  0  0  0  0  0
    1.2274   -9.4481    5.5038 C   0  0  0  0  0  0  0  0  0  0  0  0
    0.8083  -11.4177    4.1134 C   0  0  0  0  0  0  0  0  0  0  0  0
    1.9410   -5.7148    4.4798 C   0  0  1  0  0  0  0  0  0  0  0  0
    1.9497   -5.9235    6.0216 C   0  0  0  0  0  0  0  0  0  0  0  0
    1.4151   -4.3980    4.4303 O   0  0  0  0  0  0  0  0  0  0  0  0
    3.6965   -3.8630   -2.1094 H   0  0  0  0  0  0  0  0  0  0  0  0
    2.2107   -3.3377   -2.9363 H   0  0  0  0  0  0  0  0  0  0  0  0
    2.1123   -3.9283   -1.2803 H   0  0  0  0  0  0  0  0  0  0  0  0
    4.6330   -1.5857   -2.8213 H   0  0  0  0  0  0  0  0  0  0  0  0
    3.7983   -0.1102   -2.3017 H   0  0  0  0  0  0  0  0  0  0  0  0
    3.0267   -1.2057   -3.4854 H   0  0  0  0  0  0  0  0  0  0  0  0
    4.8430   -2.2290   -0.4031 H   0  0  0  0  0  0  0  0  0  0  0  0
    3.9216   -0.7997    0.0542 H   0  0  0  0  0  0  0  0  0  0  0  0
    1.7877   -4.3822    2.0463 H   0  0  0  0  0  0  0  0  0  0  0  0
    4.7194   -4.9461    2.6431 H   0  0  0  0  0  0  0  0  0  0  0  0
    5.0433   -7.0685    4.1457 H   0  0  0  0  0  0  0  0  0  0  0  0
    3.7018   -7.7387    4.9358 H   0  0  0  0  0  0  0  0  0  0  0  0
    5.3668   -9.4631    3.5241 H   0  0  0  0  0  0  0  0  0  0  0  0
    5.1203   -9.6790    1.7613 H   0  0  0  0  0  0  0  0  0  0  0  0
    3.9835  -10.3625    2.9143 H   0  0  0  0  0  0  0  0  0  0  0  0
    0.9319   -7.7522    0.6723 H   0  0  0  0  0  0  0  0  0  0  0  0
    2.7715   -6.1243    0.0218 H   0  0  0  0  0  0  0  0  0  0  0  0
    5.0160   -6.1018    0.7838 H   0  0  0  0  0  0  0  0  0  0  0  0
    5.3684   -7.7697    0.7110 H   0  0  0  0  0  0  0  0  0  0  0  0
    5.6339   -6.9064    2.2002 H   0  0  0  0  0  0  0  0  0  0  0  0
    0.6250   -5.8764    2.7671 H   0  0  0  0  0  0  0  0  0  0  0  0
   -0.1501   -7.2448    5.2562 H   0  0  0  0  0  0  0  0  0  0  0  0
   -0.8697   -6.0254    4.2887 H   0  0  0  0  0  0  0  0  0  0  0  0
   -1.9836   -8.2434    4.1180 H   0  0  0  0  0  0  0  0  0  0  0  0
   -1.4641   -7.6046    2.5691 H   0  0  0  0  0  0  0  0  0  0  0  0
   -0.8904   -9.9455    2.6945 H   0  0  0  0  0  0  0  0  0  0  0  0
    1.3077   -9.8107    2.0986 H   0  0  0  0  0  0  0  0  0  0  0  0
    2.0606  -10.0634    5.8412 H   0  0  0  0  0  0  0  0  0  0  0  0
    0.4065   -9.5176    6.2166 H   0  0  0  0  0  0  0  0  0  0  0  0
    1.5960   -8.4363    5.4269 H   0  0  0  0  0  0  0  0  0  0  0  0
    1.8108  -11.7929    4.3006 H   0  0  0  0  0  0  0  0  0  0  0  0
    0.4804  -11.8058    3.1504 H   0  0  0  0  0  0  0  0  0  0  0  0
    0.1622  -11.8263    4.8839 H   0  0  0  0  0  0  0  0  0  0  0  0
    2.4282   -6.8318    6.3807 H   0  0  0  0  0  0  0  0  0  0  0  0
    0.9552   -5.8660    6.4581 H   0  0  0  0  0  0  0  0  0  0  0  0
    2.5133   -5.1165    6.4859 H   0  0  0  0  0  0  0  0  0  0  0  0
    1.6642   -4.0071    3.6081 H   0  0  0  0  0  0  0  0  0  0  0  0
    2.1003   -1.5313   -1.2568 H   0  0  0  0  0  0  0  0  0  0  0  0
  1  2  1  0
  1 31  1  0
  1 32  1  0
  1 33  1  0
  2  3  1  0
  2  4  1  0
  2 68  1  0
  3 34  1  0
  3 35  1  0
  3 36  1  0
  4  5  1  0
  4 37  1  0
  4 38  1  0
  5  6  2  0
  5  7  1  0
  7  8  1  0
  8 16  1  0
  8  9  1  0
  8 39  1  1
  9 10  2  0
  9 40  1  0
 10 28  1  0
 10 11  1  0
 11 12  1  0
 11 41  1  0
 11 42  1  0
 12 17  1  0
 12 13  1  6
 12 14  1  0
 13 43  1  0
 13 44  1  0
 13 45  1  0
 14 15  1  0
 15 19  1  0
 15 16  1  0
 15 46  1  6
 16 17  1  0
 16 47  1  6
 17 18  1  6
 19 17  1  1
 18 48  1  0
 18 49  1  0
 18 50  1  0
 19 24  1  0
 19 20  1  0
 20 21  1  0
 20 28  1  0
 20 51  1  6
 21 22  1  0
 21 52  1  0
 21 53  1  0
 22 23  1  0
 22 54  1  0
 22 55  1  0
 23 25  1  0
 23 24  1  0
 23 56  1  6
 24 25  1  0
 24 57  1  6
 25 26  1  0
 25 27  1  0
 26 58  1  0
 26 59  1  0
 26 60  1  0
 27 61  1  0
 27 62  1  0
 27 63  1  0
 28 29  1  0
 28 30  1  1
 29 64  1  0
 29 65  1  0
 29 66  1  0
 30 67  1  0
M  CHG  1   2   1
M  END
>  <i_m_ct_stereo_status>  (25) 
1

>  <s_m_source_file>  (25) 
/var/tmp/pbs.5076255.sched01/tmp7dv9smms/08akalw19.sdf

>  <i_m_source_file_index>  (25) 
9

>  <i_lp_mmshare_version>  (25) 
48012

>  <i_f3d_flags>  (25) 
0

>  <s_epik_input>  (25) 
W0NIM11OKFtDSDNdKVtDSDJdQyg9TylPW0NAQEhdMVtDSF09QyhbQ0gyXVtDQF0oTzIpKFtDSDNdKUMzKFtDSDNdKVtDQEhdMVtDQEBIXTJbQ0BAXTM0NSlbQ0BAXShbQ0gzXSkoW09IXSlbQ0BASF00W0NIMl1bQ0gyXVtDQEhdNltDQEBIXTVDNihbQ0gzXSlbQ0gzXQ==

>  <s_epik_cmdline>  (25) 
J2VwaWtfcHl0aG9uJywgJy1waHQnLCAnMi4wJywgJy1waCcsICc3LjAnLCAnLXRuJywgJzgnLCAnLW1hJywgJzIwMCcsICctaW1hZScsICc8aW5maWxlLm1hZT4nLCAnLW9tYWUnLCAnPG91dGZpbGUubWFlPic=

>  <r_epik_Ionization_Penalty>  (25) 
0.120641

>  <r_epik_Ionization_Penalty_Charging>  (25) 
0.120641

>  <r_epik_Ionization_Penalty_Neutral>  (25) 
3.24969e-08

>  <r_epik_State_Penalty>  (25) 
0.110181

>  <r_epik_Charging_Adjusted_Penalty>  (25) 
0.230822

>  <i_epik_Tot_Q>  (25) 
1

>  <i_epik_Tot_abs_Q>  (25) 
1

>  <s_epik_Chemistry_Notes>  (25) 
This compound has an ester and may undergo hydrolysis at high or low pH.

>  <s_lp_Force_Field>  (25) 
OPLS3e

>  <r_lp_Energy>  (25) 
470.08

>  <b_lp_Chiralities_Consistent>  (25) 
1

>  <s_lp_Variant>  (25) 
1:0-1

>  <s_i_glide_gridfile>  (25) 
pfpi4k_grid

>  <i_i_glide_lignum>  (25) 
9

>  <i_i_glide_rotatable_bonds>  (25) 
5

>  <r_i_docking_score>  (25) 
-3.06615

>  <r_i_glide_ligand_efficiency>  (25) 
-0.102205

>  <r_i_glide_ligand_efficiency_sa>  (25) 
-0.317575

>  <r_i_glide_ligand_efficiency_ln>  (25) 
-0.696663

>  <r_i_glide_gscore>  (25) 
-3.06615

>  <r_i_glide_lipo>  (25) 
-0.297401

>  <r_i_glide_hbond>  (25) 
-0.2

>  <r_i_glide_metal>  (25) 
-0

>  <r_i_glide_rewards>  (25) 
-0.568817

>  <r_i_glide_evdw>  (25) 
-25.5317

>  <r_i_glide_ecoul>  (25) 
-6.33217

>  <r_i_glide_erotb>  (25) 
0.341557

>  <r_i_glide_esite>  (25) 
-0.115078

>  <r_i_glide_emodel>  (25) 
-37.5692

>  <r_i_glide_energy>  (25) 
-31.8639

>  <r_i_glide_einternal>  (25) 
1.46868

>  <r_i_glide_intrahb_reward>  (25) 
-0

>  <i_i_glide_confnum>  (25) 
1

>  <i_i_glide_posenum>  (25) 
35

>  <r_i_glide_eff_state_penalty>  (25) 
0

>  <ligand_id>  (25) 
1

>  <original_smiles>  (25) 
CN(C)CC(=O)OC1C=C2CC3(C)OC4C1C3(C)C41C(CCC3C1C3(C)C)C2(C)O

>  <smiles>  (25) 
[H]OC1(C([H])([H])[H])C2=C([H])C([H])(OC(=O)C([H])([H])[N+]([H])(C([H])([H])[H])C([H])([H])[H])C3([H])C4([H])OC(C([H])([H])[H])(C2([H])[H])C3(C([H])([H])[H])C42C1([H])C([H])([H])C([H])([H])C1([H])C2([H])C1(C([H])([H])[H])C([H])([H])[H]

$$$$
1:0:1
     RDKit          3D

 68 73  0  0  1  0  0  0  0  0999 V2000
    2.7192   -3.3548   -2.1386 C   0  0  0  0  0  0  0  0  0  0  0  0
    3.0169   -1.9839   -1.6403 N   0  0  0  0  0  0  0  0  0  0  0  0
    3.5865   -1.1596   -2.7324 C   0  0  0  0  0  0  0  0  0  0  0  0
    3.8972   -1.9256   -0.4379 C   0  0  0  0  0  0  0  0  0  0  0  0
    3.2937   -2.6522    0.7837 C   0  0  0  0  0  0  0  0  0  0  0  0
    2.8920   -2.0251    1.7693 O   0  0  0  0  0  0  0  0  0  0  0  0
    3.2844   -3.9976    0.6480 O   0  0  0  0  0  0  0  0  0  0  0  0
    2.8162   -4.8619    1.6746 C   0  0  2  0  0  0  0  0  0  0  0  0
    3.9617   -5.0634    2.6680 C   0  0  0  0  0  0  0  0  0  0  0  0
    3.7298   -5.9228    3.6777 C   0  0  0  0  0  0  0  0  0  0  0  0
    4.2318   -7.3961    3.5935 C   0  0  0  0  0  0  0  0  0  0  0  0
    3.6600   -8.3825    2.3954 C   0  0  1  0  0  0  0  0  0  0  0  0
    4.4436   -9.6890    2.1909 C   0  0  0  0  0  0  0  0  0  0  0  0
    2.6140   -8.5321    1.3009 O   0  0  0  0  0  0  0  0  0  0  0  0
    1.5937   -7.4776    1.2618 C   0  0  2  0  0  0  0  0  0  0  0  0
    2.4236   -6.2371    0.9865 C   0  0  2  0  0  0  0  0  0  0  0  0
    3.2364   -7.4744    1.3798 C   0  0  1  0  0  0  0  0  0  0  0  0
    4.7140   -7.1898    0.8323 C   0  0  0  0  0  0  0  0  0  0  0  0
    1.8789   -7.6257    2.6133 C   0  0  1  0  0  0  0  0  0  0  0  0
    1.3498   -6.5021    3.6537 C   0  0  1  0  0  0  0  0  0  0  0  0
    0.1323   -6.7752    4.5840 C   0  0  0  0  0  0  0  0  0  0  0  0
   -0.8918   -7.7485    4.0448 C   0  0  0  0  0  0  0  0  0  0  0  0
   -0.2729   -9.0574    3.6431 C   0  0  1  0  0  0  0  0  0  0  0  0
    1.0827   -9.0286    2.9986 C   0  0  2  0  0  0  0  0  0  0  0  0
    0.8905   -9.8200    4.2874 C   0  0  0  0  0  0  0  0  0  0  0  0
    1.6271   -9.4370    5.5391 C   0  0  0  0  0  0  0  0  0  0  0  0
    0.7892  -11.3451    4.2312 C   0  0  0  0  0  0  0  0  0  0  0  0
    2.4579   -5.7488    4.4529 C   0  0  1  0  0  0  0  0  0  0  0  0
    2.7212   -5.9958    5.9723 C   0  0  0  0  0  0  0  0  0  0  0  0
    2.0435   -4.3916    4.4980 O   0  0  0  0  0  0  0  0  0  0  0  0
    3.6564   -3.8637   -2.3527 H   0  0  0  0  0  0  0  0  0  0  0  0
    2.1265   -3.3194   -3.0557 H   0  0  0  0  0  0  0  0  0  0  0  0
    2.1440   -3.9485   -1.4263 H   0  0  0  0  0  0  0  0  0  0  0  0
    4.5542   -1.5636   -3.0440 H   0  0  0  0  0  0  0  0  0  0  0  0
    3.7443   -0.1150   -2.4291 H   0  0  0  0  0  0  0  0  0  0  0  0
    2.9217   -1.1650   -3.6039 H   0  0  0  0  0  0  0  0  0  0  0  0
    4.8679   -2.3671   -0.6525 H   0  0  0  0  0  0  0  0  0  0  0  0
    4.0695   -0.8812   -0.1449 H   0  0  0  0  0  0  0  0  0  0  0  0
    1.9598   -4.3538    2.1078 H   0  0  0  0  0  0  0  0  0  0  0  0
    4.8935   -5.1480    2.1484 H   0  0  0  0  0  0  0  0  0  0  0  0
    5.3187   -7.3297    3.5357 H   0  0  0  0  0  0  0  0  0  0  0  0
    4.0952   -7.9023    4.5465 H   0  0  0  0  0  0  0  0  0  0  0  0
    5.3179   -9.7255    2.8403 H   0  0  0  0  0  0  0  0  0  0  0  0
    4.7416   -9.8649    1.1568 H   0  0  0  0  0  0  0  0  0  0  0  0
    3.7854  -10.5100    2.4818 H   0  0  0  0  0  0  0  0  0  0  0  0
    0.6020   -7.6583    0.8430 H   0  0  0  0  0  0  0  0  0  0  0  0
    2.4060   -6.1017   -0.0965 H   0  0  0  0  0  0  0  0  0  0  0  0
    4.7606   -6.2659    0.2447 H   0  0  0  0  0  0  0  0  0  0  0  0
    4.9700   -7.9507    0.0988 H   0  0  0  0  0  0  0  0  0  0  0  0
    5.5560   -7.1496    1.5163 H   0  0  0  0  0  0  0  0  0  0  0  0
    0.8545   -5.7718    3.0166 H   0  0  0  0  0  0  0  0  0  0  0  0
    0.4060   -7.1230    5.5713 H   0  0  0  0  0  0  0  0  0  0  0  0
   -0.3682   -5.8216    4.7666 H   0  0  0  0  0  0  0  0  0  0  0  0
   -1.6671   -7.9423    4.7856 H   0  0  0  0  0  0  0  0  0  0  0  0
   -1.3901   -7.3191    3.1738 H   0  0  0  0  0  0  0  0  0  0  0  0
   -1.0134   -9.7007    3.1666 H   0  0  0  0  0  0  0  0  0  0  0  0
    1.0582   -9.7396    2.1675 H   0  0  0  0  0  0  0  0  0  0  0  0
    2.4613  -10.1149    5.7133 H   0  0  0  0  0  0  0  0  0  0  0  0
    0.9576   -9.4587    6.3986 H   0  0  0  0  0  0  0  0  0  0  0  0
    2.0515   -8.4545    5.4103 H   0  0  0  0  0  0  0  0  0  0  0  0
    1.7751  -11.8063    4.2271 H   0  0  0  0  0  0  0  0  0  0  0  0
    0.2643  -11.6790    3.3360 H   0  0  0  0  0  0  0  0  0  0  0  0
    0.2418  -11.7213    5.0943 H   0  0  0  0  0  0  0  0  0  0  0  0
    3.1776   -6.9511    6.2236 H   0  0  0  0  0  0  0  0  0  0  0  0
    1.8246   -5.8821    6.5841 H   0  0  0  0  0  0  0  0  0  0  0  0
    3.4258   -5.2543    6.3557 H   0  0  0  0  0  0  0  0  0  0  0  0
    2.7438   -3.8925    4.8871 H   0  0  0  0  0  0  0  0  0  0  0  0
    2.1183   -1.5567   -1.3611 H   0  0  0  0  0  0  0  0  0  0  0  0
  1  2  1  0
  1 31  1  0
  1 32  1  0
  1 33  1  0
  2  3  1  0
  2  4  1  0
  2 68  1  0
  3 34  1  0
  3 35  1  0
  3 36  1  0
  4  5  1  0
  4 37  1  0
  4 38  1  0
  5  6  2  0
  5  7  1  0
  7  8  1  0
  8 16  1  0
  8  9  1  0
  8 39  1  1
  9 10  2  0
  9 40  1  0
 10 28  1  0
 10 11  1  0
 11 12  1  0
 11 41  1  0
 11 42  1  0
 12 17  1  0
 12 13  1  6
 12 14  1  0
 13 43  1  0
 13 44  1  0
 13 45  1  0
 14 15  1  0
 15 19  1  0
 15 16  1  0
 15 46  1  1
 16 17  1  0
 16 47  1  6
 17 18  1  6
 19 17  1  6
 18 48  1  0
 18 49  1  0
 18 50  1  0
 19 24  1  0
 19 20  1  0
 20 21  1  0
 20 28  1  0
 20 51  1  6
 21 22  1  0
 21 52  1  0
 21 53  1  0
 22 23  1  0
 22 54  1  0
 22 55  1  0
 23 25  1  0
 23 24  1  0
 23 56  1  6
 24 25  1  0
 24 57  1  6
 25 26  1  0
 25 27  1  0
 26 58  1  0
 26 59  1  0
 26 60  1  0
 27 61  1  0
 27 62  1  0
 27 63  1  0
 28 29  1  0
 28 30  1  1
 29 64  1  0
 29 65  1  0
 29 66  1  0
 30 67  1  0
M  CHG  1   2   1
M  END
>  <i_m_ct_stereo_status>  (26) 
1

>  <s_m_source_file>  (26) 
/var/tmp/pbs.5076255.sched01/tmp7dv9smms/08akalw19.sdf

>  <i_m_source_file_index>  (26) 
9

>  <i_lp_mmshare_version>  (26) 
48012

>  <i_f3d_flags>  (26) 
0

>  <s_epik_input>  (26) 
W0NIM11OKFtDSDNdKVtDSDJdQyg9TylPW0NAQEhdMVtDSF09QyhbQ0gyXVtDQF0oTzIpKFtDSDNdKUMzKFtDSDNdKVtDQEhdMVtDQEBIXTJbQ0BAXTM0NSlbQ0BAXShbQ0gzXSkoW09IXSlbQ0BASF00W0NIMl1bQ0gyXVtDQEhdNltDQEBIXTVDNihbQ0gzXSlbQ0gzXQ==

>  <s_epik_cmdline>  (26) 
J2VwaWtfcHl0aG9uJywgJy1waHQnLCAnMi4wJywgJy1waCcsICc3LjAnLCAnLXRuJywgJzgnLCAnLW1hJywgJzIwMCcsICctaW1hZScsICc8aW5maWxlLm1hZT4nLCAnLW9tYWUnLCAnPG91dGZpbGUubWFlPic=

>  <r_epik_Ionization_Penalty>  (26) 
0.120641

>  <r_epik_Ionization_Penalty_Charging>  (26) 
0.120641

>  <r_epik_Ionization_Penalty_Neutral>  (26) 
3.24969e-08

>  <r_epik_State_Penalty>  (26) 
0.110181

>  <r_epik_Charging_Adjusted_Penalty>  (26) 
0.230822

>  <i_epik_Tot_Q>  (26) 
1

>  <i_epik_Tot_abs_Q>  (26) 
1

>  <s_epik_Chemistry_Notes>  (26) 
This compound has an ester and may undergo hydrolysis at high or low pH.

>  <s_lp_Force_Field>  (26) 
OPLS3e

>  <r_lp_Energy>  (26) 
470.08

>  <b_lp_Chiralities_Consistent>  (26) 
1

>  <s_lp_Variant>  (26) 
1:0-1

>  <s_i_glide_gridfile>  (26) 
pfpi4k_grid

>  <i_i_glide_lignum>  (26) 
9

>  <i_i_glide_rotatable_bonds>  (26) 
5

>  <r_i_docking_score>  (26) 
-2.91762

>  <r_i_glide_ligand_efficiency>  (26) 
-0.0972541

>  <r_i_glide_ligand_efficiency_sa>  (26) 
-0.302191

>  <r_i_glide_ligand_efficiency_ln>  (26) 
-0.662916

>  <r_i_glide_gscore>  (26) 
-2.91762

>  <r_i_glide_lipo>  (26) 
-0.280604

>  <r_i_glide_hbond>  (26) 
-0.2

>  <r_i_glide_metal>  (26) 
-0

>  <r_i_glide_rewards>  (26) 
-0.568817

>  <r_i_glide_evdw>  (26) 
-25.887

>  <r_i_glide_ecoul>  (26) 
-5.36016

>  <r_i_glide_erotb>  (26) 
0.341557

>  <r_i_glide_esite>  (26) 
-0.111385

>  <r_i_glide_emodel>  (26) 
-36.7894

>  <r_i_glide_energy>  (26) 
-31.2472

>  <r_i_glide_einternal>  (26) 
1.2445

>  <r_i_glide_intrahb_reward>  (26) 
-0

>  <i_i_glide_confnum>  (26) 
1

>  <i_i_glide_posenum>  (26) 
6

>  <r_i_glide_eff_state_penalty>  (26) 
0

>  <ligand_id>  (26) 
1

>  <original_smiles>  (26) 
CN(C)CC(=O)OC1C=C2CC3(C)OC4C1C3(C)C41C(CCC3C1C3(C)C)C2(C)O

>  <smiles>  (26) 
[H]OC1(C([H])([H])[H])C2=C([H])C([H])(OC(=O)C([H])([H])[N+]([H])(C([H])([H])[H])C([H])([H])[H])C3([H])C4([H])OC(C([H])([H])[H])(C2([H])[H])C3(C([H])([H])[H])C42C1([H])C([H])([H])C([H])([H])C1([H])C2([H])C1(C([H])([H])[H])C([H])([H])[H]

$$$$
1:0:2
     RDKit          3D

 68 73  0  0  1  0  0  0  0  0999 V2000
    3.0124   -1.9692   -2.4699 C   0  0  0  0  0  0  0  0  0  0  0  0
    3.0319   -2.3192   -1.0217 N   0  0  0  0  0  0  0  0  0  0  0  0
    4.1412   -1.5703   -0.3458 C   0  0  0  0  0  0  0  0  0  0  0  0
    3.0494   -3.8193   -0.8715 C   0  0  0  0  0  0  0  0  0  0  0  0
    2.9958   -4.3363    0.5801 C   0  0  0  0  0  0  0  0  0  0  0  0
    3.2665   -3.6091    1.5327 O   0  0  0  0  0  0  0  0  0  0  0  0
    2.6225   -5.6333    0.6856 O   0  0  0  0  0  0  0  0  0  0  0  0
    2.6434   -6.3016    1.9488 C   0  0  2  0  0  0  0  0  0  0  0  0
    2.4593   -7.7997    1.6765 C   0  0  0  0  0  0  0  0  0  0  0  0
    2.3993   -8.5980    2.7465 C   0  0  0  0  0  0  0  0  0  0  0  0
    1.0172   -9.0641    3.3283 C   0  0  0  0  0  0  0  0  0  0  0  0
   -0.0526   -7.9334    3.8985 C   0  0  1  0  0  0  0  0  0  0  0  0
   -1.4840   -8.4358    4.0858 C   0  0  0  0  0  0  0  0  0  0  0  0
   -0.2385   -6.4732    4.2926 O   0  0  0  0  0  0  0  0  0  0  0  0
    1.0031   -5.6870    4.2978 C   0  0  2  0  0  0  0  0  0  0  0  0
    1.4397   -5.7511    2.8535 C   0  0  2  0  0  0  0  0  0  0  0  0
    0.3405   -6.7436    3.2252 C   0  0  1  0  0  0  0  0  0  0  0  0
   -0.3525   -7.1307    1.8450 C   0  0  0  0  0  0  0  0  0  0  0  0
    1.4481   -6.9506    4.6808 C   0  0  1  0  0  0  0  0  0  0  0  0
    3.0358   -7.2828    4.7022 C   0  0  1  0  0  0  0  0  0  0  0  0
    3.8135   -7.3913    6.0560 C   0  0  0  0  0  0  0  0  0  0  0  0
    3.2946   -6.5160    7.1645 C   0  0  0  0  0  0  0  0  0  0  0  0
    1.8420   -6.7612    7.4247 C   0  0  1  0  0  0  0  0  0  0  0  0
    0.9468   -7.0274    6.2469 C   0  0  2  0  0  0  0  0  0  0  0  0
    1.0478   -8.0683    7.3617 C   0  0  0  0  0  0  0  0  0  0  0  0
    1.5857   -9.4341    7.0893 C   0  0  0  0  0  0  0  0  0  0  0  0
   -0.0733   -8.1958    8.3874 C   0  0  0  0  0  0  0  0  0  0  0  0
    3.4770   -8.4585    3.7802 C   0  0  1  0  0  0  0  0  0  0  0  0
    3.8879   -9.8675    4.3084 C   0  0  0  0  0  0  0  0  0  0  0  0
    4.6969   -8.0459    3.1921 O   0  0  0  0  0  0  0  0  0  0  0  0
    3.9313   -2.2967   -2.9634 H   0  0  0  0  0  0  0  0  0  0  0  0
    2.9294   -0.8843   -2.5838 H   0  0  0  0  0  0  0  0  0  0  0  0
    2.1538   -2.4290   -2.9851 H   0  0  0  0  0  0  0  0  0  0  0  0
    5.1151   -1.8988   -0.7354 H   0  0  0  0  0  0  0  0  0  0  0  0
    4.1543   -1.6449    0.7453 H   0  0  0  0  0  0  0  0  0  0  0  0
    4.0505   -0.4991   -0.5891 H   0  0  0  0  0  0  0  0  0  0  0  0
    2.1997   -4.2347   -1.4204 H   0  0  0  0  0  0  0  0  0  0  0  0
    3.9449   -4.2398   -1.3355 H   0  0  0  0  0  0  0  0  0  0  0  0
    3.6335   -6.0768    2.3392 H   0  0  0  0  0  0  0  0  0  0  0  0
    1.7269   -7.9283    0.9003 H   0  0  0  0  0  0  0  0  0  0  0  0
    0.5611   -9.6423    2.5216 H   0  0  0  0  0  0  0  0  0  0  0  0
    1.1539   -9.8260    4.0879 H   0  0  0  0  0  0  0  0  0  0  0  0
   -1.5694   -9.4508    3.7160 H   0  0  0  0  0  0  0  0  0  0  0  0
   -2.2443   -7.7960    3.6439 H   0  0  0  0  0  0  0  0  0  0  0  0
   -1.6364   -8.4504    5.1619 H   0  0  0  0  0  0  0  0  0  0  0  0
    1.2014   -4.8080    4.9094 H   0  0  0  0  0  0  0  0  0  0  0  0
    1.0218   -4.8481    2.4141 H   0  0  0  0  0  0  0  0  0  0  0  0
    0.0473   -6.5519    1.0060 H   0  0  0  0  0  0  0  0  0  0  0  0
   -1.3861   -6.8068    1.8994 H   0  0  0  0  0  0  0  0  0  0  0  0
   -0.3830   -8.1627    1.5095 H   0  0  0  0  0  0  0  0  0  0  0  0
    3.5237   -6.3717    4.3406 H   0  0  0  0  0  0  0  0  0  0  0  0
    3.8988   -8.3996    6.4485 H   0  0  0  0  0  0  0  0  0  0  0  0
    4.8430   -7.0921    5.8582 H   0  0  0  0  0  0  0  0  0  0  0  0
    3.8445   -6.6768    8.0906 H   0  0  0  0  0  0  0  0  0  0  0  0
    3.4332   -5.4602    6.8972 H   0  0  0  0  0  0  0  0  0  0  0  0
    1.4506   -6.0446    8.1482 H   0  0  0  0  0  0  0  0  0  0  0  0
    0.0346   -6.4602    6.4169 H   0  0  0  0  0  0  0  0  0  0  0  0
    0.7705  -10.1574    7.0234 H   0  0  0  0  0  0  0  0  0  0  0  0
    2.2786   -9.7290    7.8776 H   0  0  0  0  0  0  0  0  0  0  0  0
    2.0698   -9.4272    6.1281 H   0  0  0  0  0  0  0  0  0  0  0  0
   -0.8643   -8.8542    8.0333 H   0  0  0  0  0  0  0  0  0  0  0  0
   -0.5109   -7.2243    8.6125 H   0  0  0  0  0  0  0  0  0  0  0  0
    0.3130   -8.6172    9.3119 H   0  0  0  0  0  0  0  0  0  0  0  0
    3.0842  -10.4829    4.7065 H   0  0  0  0  0  0  0  0  0  0  0  0
    4.6729   -9.8230    5.0582 H   0  0  0  0  0  0  0  0  0  0  0  0
    4.3008  -10.4651    3.4985 H   0  0  0  0  0  0  0  0  0  0  0  0
    4.9443   -8.7162    2.5787 H   0  0  0  0  0  0  0  0  0  0  0  0
    2.1311   -1.9499   -0.6845 H   0  0  0  0  0  0  0  0  0  0  0  0
  1  2  1  0
  1 31  1  0
  1 32  1  0
  1 33  1  0
  2  3  1  0
  2  4  1  0
  2 68  1  0
  3 34  1  0
  3 35  1  0
  3 36  1  0
  4  5  1  0
  4 37  1  0
  4 38  1  0
  5  6  2  0
  5  7  1  0
  7  8  1  0
  8 16  1  0
  8  9  1  0
  8 39  1  1
  9 10  2  0
  9 40  1  0
 10 28  1  0
 10 11  1  0
 11 12  1  0
 11 41  1  0
 11 42  1  0
 12 17  1  0
 12 13  1  6
 12 14  1  0
 13 43  1  0
 13 44  1  0
 13 45  1  0
 14 15  1  0
 15 19  1  0
 15 16  1  0
 15 46  1  1
 16 17  1  0
 16 47  1  6
 17 18  1  1
 19 17  1  6
 18 48  1  0
 18 49  1  0
 18 50  1  0
 19 24  1  0
 19 20  1  0
 20 21  1  0
 20 28  1  0
 20 51  1  6
 21 22  1  0
 21 52  1  0
 21 53  1  0
 22 23  1  0
 22 54  1  0
 22 55  1  0
 23 25  1  0
 23 24  1  0
 23 56  1  1
 24 25  1  0
 24 57  1  6
 25 26  1  0
 25 27  1  0
 26 58  1  0
 26 59  1  0
 26 60  1  0
 27 61  1  0
 27 62  1  0
 27 63  1  0
 28 29  1  0
 28 30  1  6
 29 64  1  0
 29 65  1  0
 29 66  1  0
 30 67  1  0
M  CHG  1   2   1
M  END
>  <i_m_ct_stereo_status>  (27) 
1

>  <s_m_source_file>  (27) 
/var/tmp/pbs.5076255.sched01/tmp7dv9smms/08akalw19.sdf

>  <i_m_source_file_index>  (27) 
9

>  <i_lp_mmshare_version>  (27) 
48012

>  <i_f3d_flags>  (27) 
0

>  <s_epik_input>  (27) 
W0NIM11OKFtDSDNdKVtDSDJdQyg9TylPW0NAQEhdMVtDSF09QyhbQ0gyXVtDQF0oTzIpKFtDSDNdKUMzKFtDSDNdKVtDQEhdMVtDQEBIXTJbQ0BAXTM0NSlbQ0BAXShbQ0gzXSkoW09IXSlbQ0BASF00W0NIMl1bQ0gyXVtDQEhdNltDQEBIXTVDNihbQ0gzXSlbQ0gzXQ==

>  <s_epik_cmdline>  (27) 
J2VwaWtfcHl0aG9uJywgJy1waHQnLCAnMi4wJywgJy1waCcsICc3LjAnLCAnLXRuJywgJzgnLCAnLW1hJywgJzIwMCcsICctaW1hZScsICc8aW5maWxlLm1hZT4nLCAnLW9tYWUnLCAnPG91dGZpbGUubWFlPic=

>  <r_epik_Ionization_Penalty>  (27) 
0.120641

>  <r_epik_Ionization_Penalty_Charging>  (27) 
0.120641

>  <r_epik_Ionization_Penalty_Neutral>  (27) 
3.24969e-08

>  <r_epik_State_Penalty>  (27) 
0.110181

>  <r_epik_Charging_Adjusted_Penalty>  (27) 
0.230822

>  <i_epik_Tot_Q>  (27) 
1

>  <i_epik_Tot_abs_Q>  (27) 
1

>  <s_epik_Chemistry_Notes>  (27) 
This compound has an ester and may undergo hydrolysis at high or low pH.

>  <s_lp_Force_Field>  (27) 
OPLS3e

>  <r_lp_Energy>  (27) 
470.08

>  <b_lp_Chiralities_Consistent>  (27) 
1

>  <s_lp_Variant>  (27) 
1:0-1

>  <s_i_glide_gridfile>  (27) 
pfpi4k_grid

>  <i_i_glide_lignum>  (27) 
9

>  <i_i_glide_rotatable_bonds>  (27) 
5

>  <r_i_docking_score>  (27) 
-2.70431

>  <r_i_glide_ligand_efficiency>  (27) 
-0.0901436

>  <r_i_glide_ligand_efficiency_sa>  (27) 
-0.280097

>  <r_i_glide_ligand_efficiency_ln>  (27) 
-0.614448

>  <r_i_glide_gscore>  (27) 
-2.70431

>  <r_i_glide_lipo>  (27) 
0

>  <r_i_glide_hbond>  (27) 
-0.2

>  <r_i_glide_metal>  (27) 
-0

>  <r_i_glide_rewards>  (27) 
-0.568817

>  <r_i_glide_evdw>  (27) 
-23.2382

>  <r_i_glide_ecoul>  (27) 
-6.79602

>  <r_i_glide_erotb>  (27) 
0.341557

>  <r_i_glide_esite>  (27) 
-0.0957329

>  <r_i_glide_emodel>  (27) 
-34.7859

>  <r_i_glide_energy>  (27) 
-30.0342

>  <r_i_glide_einternal>  (27) 
0.998969

>  <r_i_glide_intrahb_reward>  (27) 
-0

>  <i_i_glide_confnum>  (27) 
1

>  <i_i_glide_posenum>  (27) 
39

>  <r_i_glide_eff_state_penalty>  (27) 
0

>  <ligand_id>  (27) 
1

>  <original_smiles>  (27) 
CN(C)CC(=O)OC1C=C2CC3(C)OC4C1C3(C)C41C(CCC3C1C3(C)C)C2(C)O

>  <smiles>  (27) 
[H]OC1(C([H])([H])[H])C2=C([H])C([H])(OC(=O)C([H])([H])[N+]([H])(C([H])([H])[H])C([H])([H])[H])C3([H])C4([H])OC(C([H])([H])[H])(C2([H])[H])C3(C([H])([H])[H])C42C1([H])C([H])([H])C([H])([H])C1([H])C2([H])C1(C([H])([H])[H])C([H])([H])[H]

$$$$
1:1:0
     RDKit          3D

 67 72  0  0  1  0  0  0  0  0999 V2000
    3.6601   -1.0754   -4.2593 C   0  0  0  0  0  0  0  0  0  0  0  0
    3.5281   -2.5246   -4.0591 N   0  0  0  0  0  0  0  0  0  0  0  0
    2.2085   -2.8045   -3.4861 C   0  0  0  0  0  0  0  0  0  0  0  0
    4.6152   -3.1056   -3.2609 C   0  0  0  0  0  0  0  0  0  0  0  0
    4.9006   -2.4742   -1.8843 C   0  0  0  0  0  0  0  0  0  0  0  0
    5.8113   -1.6669   -1.7307 O   0  0  0  0  0  0  0  0  0  0  0  0
    3.9582   -2.8185   -0.9731 O   0  0  0  0  0  0  0  0  0  0  0  0
    3.9022   -2.1545    0.2729 C   0  0  2  0  0  0  0  0  0  0  0  0
    5.1116   -2.5778    1.1266 C   0  0  0  0  0  0  0  0  0  0  0  0
    5.1461   -2.1302    2.3582 C   0  0  0  0  0  0  0  0  0  0  0  0
    4.7036   -3.0247    3.5560 C   0  0  0  0  0  0  0  0  0  0  0  0
    3.1544   -3.5617    3.5737 C   0  0  1  0  0  0  0  0  0  0  0  0
    2.8714   -4.6784    4.5972 C   0  0  0  0  0  0  0  0  0  0  0  0
    1.7527   -3.3273    3.0750 O   0  0  0  0  0  0  0  0  0  0  0  0
    1.6070   -2.2513    2.0741 C   0  0  2  0  0  0  0  0  0  0  0  0
    2.5769   -2.6295    0.9606 C   0  0  2  0  0  0  0  0  0  0  0  0
    2.6927   -3.4467    2.2344 C   0  0  1  0  0  0  0  0  0  0  0  0
    3.3926   -4.8155    1.8042 C   0  0  0  0  0  0  0  0  0  0  0  0
    2.5342   -1.7713    2.9805 C   0  0  1  0  0  0  0  0  0  0  0  0
    3.3809   -0.4418    2.6317 C   0  0  1  0  0  0  0  0  0  0  0  0
    3.0776    0.9074    3.3448 C   0  0  0  0  0  0  0  0  0  0  0  0
    1.6437    1.1177    3.7496 C   0  0  0  0  0  0  0  0  0  0  0  0
    1.1512   -0.0095    4.5953 C   0  0  1  0  0  0  0  0  0  0  0  0
    1.6230   -1.3917    4.2899 C   0  0  2  0  0  0  0  0  0  0  0  0
    1.9006   -0.8179    5.6821 C   0  0  0  0  0  0  0  0  0  0  0  0
    3.2997   -0.5932    6.1500 C   0  0  0  0  0  0  0  0  0  0  0  0
    1.0612   -1.2476    6.8780 C   0  0  0  0  0  0  0  0  0  0  0  0
    4.9198   -0.6571    2.5644 C   0  0  1  0  0  0  0  0  0  0  0  0
    5.8956   -0.1294    3.6515 C   0  0  0  0  0  0  0  0  0  0  0  0
    5.3926    0.0874    1.4438 O   0  0  0  0  0  0  0  0  0  0  0  0
    4.6102   -0.8506   -4.7433 H   0  0  0  0  0  0  0  0  0  0  0  0
    3.6177   -0.5061   -3.3231 H   0  0  0  0  0  0  0  0  0  0  0  0
    2.8631   -0.6886   -4.8927 H   0  0  0  0  0  0  0  0  0  0  0  0
    2.0776   -3.8755   -3.3664 H   0  0  0  0  0  0  0  0  0  0  0  0
    1.4202   -2.4483   -4.1467 H   0  0  0  0  0  0  0  0  0  0  0  0
    2.0356   -2.3278   -2.5239 H   0  0  0  0  0  0  0  0  0  0  0  0
    4.4486   -4.1754   -3.1389 H   0  0  0  0  0  0  0  0  0  0  0  0
    5.5316   -3.0229   -3.8337 H   0  0  0  0  0  0  0  0  0  0  0  0
    3.8630   -1.0965    0.0247 H   0  0  0  0  0  0  0  0  0  0  0  0
    5.3258   -3.6134    0.9138 H   0  0  0  0  0  0  0  0  0  0  0  0
    5.3830   -3.8707    3.5116 H   0  0  0  0  0  0  0  0  0  0  0  0
    4.9623   -2.5698    4.4993 H   0  0  0  0  0  0  0  0  0  0  0  0
    3.7818   -4.9510    5.1286 H   0  0  0  0  0  0  0  0  0  0  0  0
    2.4164   -5.5700    4.1591 H   0  0  0  0  0  0  0  0  0  0  0  0
    2.1710   -4.2818    5.3374 H   0  0  0  0  0  0  0  0  0  0  0  0
    0.6954   -1.6613    1.9359 H   0  0  0  0  0  0  0  0  0  0  0  0
    1.9419   -3.1349    0.2475 H   0  0  0  0  0  0  0  0  0  0  0  0
    3.5234   -4.8556    0.7237 H   0  0  0  0  0  0  0  0  0  0  0  0
    2.7327   -5.6532    1.9893 H   0  0  0  0  0  0  0  0  0  0  0  0
    4.3541   -5.0958    2.2164 H   0  0  0  0  0  0  0  0  0  0  0  0
    3.0399   -0.1591    1.6396 H   0  0  0  0  0  0  0  0  0  0  0  0
    3.7025    1.1190    4.2048 H   0  0  0  0  0  0  0  0  0  0  0  0
    3.3315    1.6972    2.6390 H   0  0  0  0  0  0  0  0  0  0  0  0
    1.5232    2.0639    4.2847 H   0  0  0  0  0  0  0  0  0  0  0  0
    1.0129    1.1752    2.8597 H   0  0  0  0  0  0  0  0  0  0  0  0
    0.0946    0.1067    4.8109 H   0  0  0  0  0  0  0  0  0  0  0  0
    0.7441   -2.0185    4.4015 H   0  0  0  0  0  0  0  0  0  0  0  0
    3.5946   -1.3745    6.8550 H   0  0  0  0  0  0  0  0  0  0  0  0
    3.4027    0.3881    6.6189 H   0  0  0  0  0  0  0  0  0  0  0  0
    3.9575   -0.6811    5.3072 H   0  0  0  0  0  0  0  0  0  0  0  0
    1.4480   -2.1720    7.3110 H   0  0  0  0  0  0  0  0  0  0  0  0
    0.0232   -1.4199    6.5913 H   0  0  0  0  0  0  0  0  0  0  0  0
    1.0734   -0.4733    7.6489 H   0  0  0  0  0  0  0  0  0  0  0  0
    5.8771   -0.6506    4.6075 H   0  0  0  0  0  0  0  0  0  0  0  0
    5.7890    0.9399    3.8605 H   0  0  0  0  0  0  0  0  0  0  0  0
    6.9210   -0.2466    3.2951 H   0  0  0  0  0  0  0  0  0  0  0  0
    4.7630    0.0415    0.7573 H   0  0  0  0  0  0  0  0  0  0  0  0
  1  2  1  0
  1 31  1  0
  1 32  1  0
  1 33  1  0
  2  3  1  0
  2  4  1  0
  3 34  1  0
  3 35  1  0
  3 36  1  0
  4  5  1  0
  4 37  1  0
  4 38  1  0
  5  6  2  0
  5  7  1  0
  7  8  1  0
  8 16  1  0
  8  9  1  0
  8 39  1  6
  9 10  2  0
  9 40  1  0
 10 28  1  0
 10 11  1  0
 11 12  1  0
 11 41  1  0
 11 42  1  0
 12 17  1  0
 12 13  1  6
 12 14  1  0
 13 43  1  0
 13 44  1  0
 13 45  1  0
 14 15  1  0
 15 19  1  0
 15 16  1  0
 15 46  1  6
 16 17  1  0
 16 47  1  6
 17 18  1  1
 19 17  1  1
 18 48  1  0
 18 49  1  0
 18 50  1  0
 19 24  1  0
 19 20  1  0
 20 21  1  0
 20 28  1  0
 20 51  1  6
 21 22  1  0
 21 52  1  0
 21 53  1  0
 22 23  1  0
 22 54  1  0
 22 55  1  0
 23 25  1  0
 23 24  1  0
 23 56  1  1
 24 25  1  0
 24 57  1  1
 25 26  1  0
 25 27  1  0
 26 58  1  0
 26 59  1  0
 26 60  1  0
 27 61  1  0
 27 62  1  0
 27 63  1  0
 28 29  1  0
 28 30  1  6
 29 64  1  0
 29 65  1  0
 29 66  1  0
 30 67  1  0
M  END
>  <i_m_ct_stereo_status>  (28) 
1

>  <s_m_source_file>  (28) 
/var/tmp/pbs.5076255.sched01/tmp7dv9smms/08akalw19.sdf

>  <i_m_source_file_index>  (28) 
10

>  <i_lp_mmshare_version>  (28) 
48012

>  <i_f3d_flags>  (28) 
0

>  <s_epik_input>  (28) 
W0NIM11OKFtDSDNdKVtDSDJdQyg9TylPW0NAQEhdMVtDSF09QyhbQ0gyXVtDQF0oTzIpKFtDSDNdKUMzKFtDSDNdKVtDQEhdMVtDQEBIXTJbQ0BAXTM0NSlbQ0BAXShbQ0gzXSkoW09IXSlbQ0BASF00W0NIMl1bQ0gyXVtDQEhdNltDQEBIXTVDNihbQ0gzXSlbQ0gzXQ==

>  <s_epik_cmdline>  (28) 
J2VwaWtfcHl0aG9uJywgJy1waHQnLCAnMi4wJywgJy1waCcsICc3LjAnLCAnLXRuJywgJzgnLCAnLW1hJywgJzIwMCcsICctaW1hZScsICc8aW5maWxlLm1hZT4nLCAnLW9tYWUnLCAnPG91dGZpbGUubWFlPic=

>  <r_epik_Ionization_Penalty>  (28) 
1.00224

>  <r_epik_Ionization_Penalty_Charging>  (28) 
0

>  <r_epik_Ionization_Penalty_Neutral>  (28) 
1.00224

>  <r_epik_State_Penalty>  (28) 
1.05092

>  <r_epik_Charging_Adjusted_Penalty>  (28) 
1.05092

>  <i_epik_Tot_Q>  (28) 
0

>  <i_epik_Tot_abs_Q>  (28) 
0

>  <s_epik_Chemistry_Notes>  (28) 
This compound has an ester and may undergo hydrolysis at high or low pH.

>  <s_lp_Force_Field>  (28) 
OPLS3e

>  <r_lp_Energy>  (28) 
463.242

>  <b_lp_Chiralities_Consistent>  (28) 
1

>  <s_lp_Variant>  (28) 
1:0-2

>  <s_i_glide_gridfile>  (28) 
pfpi4k_grid

>  <i_i_glide_lignum>  (28) 
10

>  <i_i_glide_rotatable_bonds>  (28) 
5

>  <r_i_docking_score>  (28) 
-3.6782

>  <r_i_glide_ligand_efficiency>  (28) 
-0.122607

>  <r_i_glide_ligand_efficiency_sa>  (28) 
-0.380968

>  <r_i_glide_ligand_efficiency_ln>  (28) 
-0.835728

>  <r_i_glide_gscore>  (28) 
-3.6782

>  <r_i_glide_lipo>  (28) 
-0.8071

>  <r_i_glide_hbond>  (28) 
-0.497743

>  <r_i_glide_metal>  (28) 
-0

>  <r_i_glide_rewards>  (28) 
-0.575689

>  <r_i_glide_evdw>  (28) 
-24.58

>  <r_i_glide_ecoul>  (28) 
-6.0775

>  <r_i_glide_erotb>  (28) 
0.343055

>  <r_i_glide_esite>  (28) 
-0.000103327

>  <r_i_glide_emodel>  (28) 
-36.1911

>  <r_i_glide_energy>  (28) 
-30.6575

>  <r_i_glide_einternal>  (28) 
1.79038

>  <r_i_glide_intrahb_reward>  (28) 
-0

>  <i_i_glide_confnum>  (28) 
2

>  <i_i_glide_posenum>  (28) 
28

>  <r_i_glide_eff_state_penalty>  (28) 
0

>  <ligand_id>  (28) 
1

>  <original_smiles>  (28) 
CN(C)CC(=O)OC1C=C2CC3(C)OC4C1C3(C)C41C(CCC3C1C3(C)C)C2(C)O

>  <smiles>  (28) 
[H]OC1(C([H])([H])[H])C2=C([H])C([H])(OC(=O)C([H])([H])N(C([H])([H])[H])C([H])([H])[H])C3([H])C4([H])OC(C([H])([H])[H])(C2([H])[H])C3(C([H])([H])[H])C42C1([H])C([H])([H])C([H])([H])C1([H])C2([H])C1(C([H])([H])[H])C([H])([H])[H]

$$$$
1:1:1
     RDKit          3D

 67 72  0  0  1  0  0  0  0  0999 V2000
   -0.9608   -7.2342    4.0848 C   0  0  0  0  0  0  0  0  0  0  0  0
   -1.5218   -7.8200    2.8691 N   0  0  0  0  0  0  0  0  0  0  0  0
   -2.1105   -9.0932    3.2316 C   0  0  0  0  0  0  0  0  0  0  0  0
   -0.5751   -8.0812    1.7749 C   0  0  0  0  0  0  0  0  0  0  0  0
    0.2797   -6.8983    1.3495 C   0  0  0  0  0  0  0  0  0  0  0  0
    0.0598   -6.2990    0.2793 O   0  0  0  0  0  0  0  0  0  0  0  0
    1.2130   -6.5390    2.2130 O   0  0  0  0  0  0  0  0  0  0  0  0
    2.0071   -5.3812    2.0594 C   0  0  2  0  0  0  0  0  0  0  0  0
    3.4150   -5.8619    1.7209 C   0  0  0  0  0  0  0  0  0  0  0  0
    4.3426   -4.9149    1.6025 C   0  0  0  0  0  0  0  0  0  0  0  0
    5.3069   -4.5731    2.7840 C   0  0  0  0  0  0  0  0  0  0  0  0
    4.6751   -4.0061    4.2086 C   0  0  1  0  0  0  0  0  0  0  0  0
    5.6335   -4.0264    5.4070 C   0  0  0  0  0  0  0  0  0  0  0  0
    3.4359   -3.4445    4.8943 O   0  0  0  0  0  0  0  0  0  0  0  0
    2.2887   -3.2082    3.9789 C   0  0  2  0  0  0  0  0  0  0  0  0
    1.9939   -4.5905    3.4295 C   0  0  2  0  0  0  0  0  0  0  0  0
    3.3157   -4.4591    4.1873 C   0  0  1  0  0  0  0  0  0  0  0  0
    3.6685   -5.9502    4.6220 C   0  0  0  0  0  0  0  0  0  0  0  0
    3.3972   -2.9109    3.1881 C   0  0  1  0  0  0  0  0  0  0  0  0
    3.2210   -2.7278    1.5825 C   0  0  1  0  0  0  0  0  0  0  0  0
    3.2934   -1.3236    0.9188 C   0  0  0  0  0  0  0  0  0  0  0  0
    2.8057   -0.1810    1.7857 C   0  0  0  0  0  0  0  0  0  0  0  0
    3.5180   -0.1321    3.0989 C   0  0  1  0  0  0  0  0  0  0  0  0
    3.8674   -1.4430    3.7628 C   0  0  2  0  0  0  0  0  0  0  0  0
    4.9835   -0.4726    3.3985 C   0  0  0  0  0  0  0  0  0  0  0  0
    6.0171   -0.8058    2.3711 C   0  0  0  0  0  0  0  0  0  0  0  0
    5.6291    0.3410    4.5066 C   0  0  0  0  0  0  0  0  0  0  0  0
    4.0213   -3.7396    0.7165 C   0  0  1  0  0  0  0  0  0  0  0  0
    5.2861   -3.3476   -0.1040 C   0  0  0  0  0  0  0  0  0  0  0  0
    3.1299   -4.0966   -0.3346 O   0  0  0  0  0  0  0  0  0  0  0  0
   -0.6261   -6.2143    3.9114 H   0  0  0  0  0  0  0  0  0  0  0  0
   -0.1141   -7.8299    4.4160 H   0  0  0  0  0  0  0  0  0  0  0  0
   -1.6846   -7.2162    4.9084 H   0  0  0  0  0  0  0  0  0  0  0  0
   -2.6490   -9.5521    2.4037 H   0  0  0  0  0  0  0  0  0  0  0  0
   -2.7819   -8.9693    4.0788 H   0  0  0  0  0  0  0  0  0  0  0  0
   -1.3404   -9.7934    3.5446 H   0  0  0  0  0  0  0  0  0  0  0  0
    0.0770   -8.9151    2.0561 H   0  0  0  0  0  0  0  0  0  0  0  0
   -1.1764   -8.4399    0.9297 H   0  0  0  0  0  0  0  0  0  0  0  0
    1.5700   -4.8091    1.2433 H   0  0  0  0  0  0  0  0  0  0  0  0
    3.6318   -6.7278    2.3105 H   0  0  0  0  0  0  0  0  0  0  0  0
    5.8509   -5.4925    2.9671 H   0  0  0  0  0  0  0  0  0  0  0  0
    6.0978   -3.8961    2.4672 H   0  0  0  0  0  0  0  0  0  0  0  0
    6.6043   -4.4205    5.1134 H   0  0  0  0  0  0  0  0  0  0  0  0
    5.2556   -4.5732    6.2755 H   0  0  0  0  0  0  0  0  0  0  0  0
    5.7683   -2.9839    5.6969 H   0  0  0  0  0  0  0  0  0  0  0  0
    1.5214   -2.4572    4.1580 H   0  0  0  0  0  0  0  0  0  0  0  0
    1.2043   -4.9861    4.0655 H   0  0  0  0  0  0  0  0  0  0  0  0
    2.8676   -6.6399    4.3728 H   0  0  0  0  0  0  0  0  0  0  0  0
    3.6935   -5.9865    5.7126 H   0  0  0  0  0  0  0  0  0  0  0  0
    4.5904   -6.4132    4.2842 H   0  0  0  0  0  0  0  0  0  0  0  0
    2.1515   -2.8836    1.4082 H   0  0  0  0  0  0  0  0  0  0  0  0
    4.2827   -1.0491    0.5528 H   0  0  0  0  0  0  0  0  0  0  0  0
    2.6492   -1.3534    0.0438 H   0  0  0  0  0  0  0  0  0  0  0  0
    2.9328    0.7820    1.2866 H   0  0  0  0  0  0  0  0  0  0  0  0
    1.7389   -0.2968    1.9703 H   0  0  0  0  0  0  0  0  0  0  0  0
    3.1089    0.6326    3.7525 H   0  0  0  0  0  0  0  0  0  0  0  0
    3.6557   -1.3206    4.8210 H   0  0  0  0  0  0  0  0  0  0  0  0
    6.9863   -0.8971    2.8573 H   0  0  0  0  0  0  0  0  0  0  0  0
    6.0918   -0.0036    1.6342 H   0  0  0  0  0  0  0  0  0  0  0  0
    5.7651   -1.7508    1.9358 H   0  0  0  0  0  0  0  0  0  0  0  0
    6.4218   -0.2160    5.0146 H   0  0  0  0  0  0  0  0  0  0  0  0
    4.9056    0.6655    5.2578 H   0  0  0  0  0  0  0  0  0  0  0  0
    6.0648    1.2275    4.0919 H   0  0  0  0  0  0  0  0  0  0  0  0
    6.1854   -3.1401    0.4747 H   0  0  0  0  0  0  0  0  0  0  0  0
    5.1104   -2.5056   -0.7728 H   0  0  0  0  0  0  0  0  0  0  0  0
    5.5756   -4.1785   -0.7556 H   0  0  0  0  0  0  0  0  0  0  0  0
    3.5695   -4.7039   -0.9085 H   0  0  0  0  0  0  0  0  0  0  0  0
  1  2  1  0
  1 31  1  0
  1 32  1  0
  1 33  1  0
  2  3  1  0
  2  4  1  0
  3 34  1  0
  3 35  1  0
  3 36  1  0
  4  5  1  0
  4 37  1  0
  4 38  1  0
  5  6  2  0
  5  7  1  0
  7  8  1  0
  8 16  1  0
  8  9  1  0
  8 39  1  6
  9 10  2  0
  9 40  1  0
 10 28  1  0
 10 11  1  0
 11 12  1  0
 11 41  1  0
 11 42  1  0
 12 17  1  0
 12 13  1  1
 12 14  1  0
 13 43  1  0
 13 44  1  0
 13 45  1  0
 14 15  1  0
 15 19  1  0
 15 16  1  0
 15 46  1  1
 16 17  1  0
 16 47  1  1
 17 18  1  1
 19 17  1  6
 18 48  1  0
 18 49  1  0
 18 50  1  0
 19 24  1  0
 19 20  1  0
 20 21  1  0
 20 28  1  0
 20 51  1  1
 21 22  1  0
 21 52  1  0
 21 53  1  0
 22 23  1  0
 22 54  1  0
 22 55  1  0
 23 25  1  0
 23 24  1  0
 23 56  1  1
 24 25  1  0
 24 57  1  1
 25 26  1  0
 25 27  1  0
 26 58  1  0
 26 59  1  0
 26 60  1  0
 27 61  1  0
 27 62  1  0
 27 63  1  0
 28 29  1  0
 28 30  1  6
 29 64  1  0
 29 65  1  0
 29 66  1  0
 30 67  1  0
M  END
>  <i_m_ct_stereo_status>  (29) 
1

>  <s_m_source_file>  (29) 
/var/tmp/pbs.5076255.sched01/tmp7dv9smms/08akalw19.sdf

>  <i_m_source_file_index>  (29) 
10

>  <i_lp_mmshare_version>  (29) 
48012

>  <i_f3d_flags>  (29) 
0

>  <s_epik_input>  (29) 
W0NIM11OKFtDSDNdKVtDSDJdQyg9TylPW0NAQEhdMVtDSF09QyhbQ0gyXVtDQF0oTzIpKFtDSDNdKUMzKFtDSDNdKVtDQEhdMVtDQEBIXTJbQ0BAXTM0NSlbQ0BAXShbQ0gzXSkoW09IXSlbQ0BASF00W0NIMl1bQ0gyXVtDQEhdNltDQEBIXTVDNihbQ0gzXSlbQ0gzXQ==

>  <s_epik_cmdline>  (29) 
J2VwaWtfcHl0aG9uJywgJy1waHQnLCAnMi4wJywgJy1waCcsICc3LjAnLCAnLXRuJywgJzgnLCAnLW1hJywgJzIwMCcsICctaW1hZScsICc8aW5maWxlLm1hZT4nLCAnLW9tYWUnLCAnPG91dGZpbGUubWFlPic=

>  <r_epik_Ionization_Penalty>  (29) 
1.00224

>  <r_epik_Ionization_Penalty_Charging>  (29) 
0

>  <r_epik_Ionization_Penalty_Neutral>  (29) 
1.00224

>  <r_epik_State_Penalty>  (29) 
1.05092

>  <r_epik_Charging_Adjusted_Penalty>  (29) 
1.05092

>  <i_epik_Tot_Q>  (29) 
0

>  <i_epik_Tot_abs_Q>  (29) 
0

>  <s_epik_Chemistry_Notes>  (29) 
This compound has an ester and may undergo hydrolysis at high or low pH.

>  <s_lp_Force_Field>  (29) 
OPLS3e

>  <r_lp_Energy>  (29) 
463.242

>  <b_lp_Chiralities_Consistent>  (29) 
1

>  <s_lp_Variant>  (29) 
1:0-2

>  <s_i_glide_gridfile>  (29) 
pfpi4k_grid

>  <i_i_glide_lignum>  (29) 
10

>  <i_i_glide_rotatable_bonds>  (29) 
5

>  <r_i_docking_score>  (29) 
-3.10824

>  <r_i_glide_ligand_efficiency>  (29) 
-0.103608

>  <r_i_glide_ligand_efficiency_sa>  (29) 
-0.321934

>  <r_i_glide_ligand_efficiency_ln>  (29) 
-0.706226

>  <r_i_glide_gscore>  (29) 
-3.10824

>  <r_i_glide_lipo>  (29) 
-0.446481

>  <r_i_glide_hbond>  (29) 
-0.386093

>  <r_i_glide_metal>  (29) 
-0

>  <r_i_glide_rewards>  (29) 
-0.575689

>  <r_i_glide_evdw>  (29) 
-17.843

>  <r_i_glide_ecoul>  (29) 
-7.00589

>  <r_i_glide_erotb>  (29) 
0.343055

>  <r_i_glide_esite>  (29) 
-0.1

>  <r_i_glide_emodel>  (29) 
-29.53

>  <r_i_glide_energy>  (29) 
-24.8489

>  <r_i_glide_einternal>  (29) 
1.29666

>  <r_i_glide_intrahb_reward>  (29) 
-0

>  <i_i_glide_confnum>  (29) 
1

>  <i_i_glide_posenum>  (29) 
1

>  <r_i_glide_eff_state_penalty>  (29) 
0

>  <ligand_id>  (29) 
1

>  <original_smiles>  (29) 
CN(C)CC(=O)OC1C=C2CC3(C)OC4C1C3(C)C41C(CCC3C1C3(C)C)C2(C)O

>  <smiles>  (29) 
[H]OC1(C([H])([H])[H])C2=C([H])C([H])(OC(=O)C([H])([H])N(C([H])([H])[H])C([H])([H])[H])C3([H])C4([H])OC(C([H])([H])[H])(C2([H])[H])C3(C([H])([H])[H])C42C1([H])C([H])([H])C([H])([H])C1([H])C2([H])C1(C([H])([H])[H])C([H])([H])[H]

$$$$
1:1:2
     RDKit          3D

 67 72  0  0  1  0  0  0  0  0999 V2000
    4.0198   -0.8851   -2.7699 C   0  0  0  0  0  0  0  0  0  0  0  0
    4.2100   -2.2560   -3.2778 N   0  0  0  0  0  0  0  0  0  0  0  0
    2.9116   -2.9313   -3.3168 C   0  0  0  0  0  0  0  0  0  0  0  0
    5.1879   -3.0389   -2.4980 C   0  0  0  0  0  0  0  0  0  0  0  0
    5.0148   -3.1900   -0.9829 C   0  0  0  0  0  0  0  0  0  0  0  0
    5.3992   -2.2873   -0.2031 O   0  0  0  0  0  0  0  0  0  0  0  0
    4.3754   -4.3225   -0.6213 O   0  0  0  0  0  0  0  0  0  0  0  0
    4.0960   -4.5591    0.7451 C   0  0  2  0  0  0  0  0  0  0  0  0
    5.3552   -5.0561    1.4782 C   0  0  0  0  0  0  0  0  0  0  0  0
    5.2034   -5.4211    2.7442 C   0  0  0  0  0  0  0  0  0  0  0  0
    5.0306   -6.9205    3.1500 C   0  0  0  0  0  0  0  0  0  0  0  0
    3.7582   -7.7533    2.5343 C   0  0  1  0  0  0  0  0  0  0  0  0
    3.8389   -9.2856    2.7006 C   0  0  0  0  0  0  0  0  0  0  0  0
    2.3901   -7.6461    1.9144 O   0  0  0  0  0  0  0  0  0  0  0  0
    1.9318   -6.2815    1.6199 C   0  0  2  0  0  0  0  0  0  0  0  0
    3.0141   -5.6829    0.7432 C   0  0  2  0  0  0  0  0  0  0  0  0
    3.3614   -7.0089    1.3905 C   0  0  1  0  0  0  0  0  0  0  0  0
    4.5083   -7.6450    0.4860 C   0  0  0  0  0  0  0  0  0  0  0  0
    2.5949   -6.1722    2.8348 C   0  0  1  0  0  0  0  0  0  0  0  0
    2.9538   -4.7247    3.4621 C   0  0  1  0  0  0  0  0  0  0  0  0
    2.1882   -4.1621    4.6920 C   0  0  0  0  0  0  0  0  0  0  0  0
    0.7574   -4.5966    4.8044 C   0  0  0  0  0  0  0  0  0  0  0  0
    0.6371   -6.0854    4.7712 C   0  0  1  0  0  0  0  0  0  0  0  0
    1.5579   -6.8615    3.9033 C   0  0  2  0  0  0  0  0  0  0  0  0
    1.5629   -7.1455    5.4024 C   0  0  0  0  0  0  0  0  0  0  0  0
    2.7770   -6.8864    6.2362 C   0  0  0  0  0  0  0  0  0  0  0  0
    0.8658   -8.3765    5.9620 C   0  0  0  0  0  0  0  0  0  0  0  0
    4.4789   -4.4615    3.6497 C   0  0  1  0  0  0  0  0  0  0  0  0
    5.1780   -4.4340    5.0457 C   0  0  0  0  0  0  0  0  0  0  0  0
    4.6797   -3.1032    3.2715 O   0  0  0  0  0  0  0  0  0  0  0  0
    4.9782   -0.3647   -2.7232 H   0  0  0  0  0  0  0  0  0  0  0  0
    3.5676   -0.8515   -1.7692 H   0  0  0  0  0  0  0  0  0  0  0  0
    3.3599   -0.3076   -3.4189 H   0  0  0  0  0  0  0  0  0  0  0  0
    3.0159   -3.9057   -3.7903 H   0  0  0  0  0  0  0  0  0  0  0  0
    2.2005   -2.3563   -3.9134 H   0  0  0  0  0  0  0  0  0  0  0  0
    2.4785   -3.0722   -2.3257 H   0  0  0  0  0  0  0  0  0  0  0  0
    5.2583   -4.0343   -2.9418 H   0  0  0  0  0  0  0  0  0  0  0  0
    6.1626   -2.5949   -2.6436 H   0  0  0  0  0  0  0  0  0  0  0  0
    3.7196   -3.6151    1.1293 H   0  0  0  0  0  0  0  0  0  0  0  0
    5.9174   -5.6775    0.8074 H   0  0  0  0  0  0  0  0  0  0  0  0
    5.9637   -7.3816    2.8439 H   0  0  0  0  0  0  0  0  0  0  0  0
    5.0689   -7.0465    4.2217 H   0  0  0  0  0  0  0  0  0  0  0  0
    4.7634   -9.5742    3.2000 H   0  0  0  0  0  0  0  0  0  0  0  0
    3.7319   -9.8496    1.7683 H   0  0  0  0  0  0  0  0  0  0  0  0
    3.0094   -9.5796    3.3499 H   0  0  0  0  0  0  0  0  0  0  0  0
    0.8717   -6.0248    1.5667 H   0  0  0  0  0  0  0  0  0  0  0  0
    2.6131   -5.8344   -0.2487 H   0  0  0  0  0  0  0  0  0  0  0  0
    4.6691   -7.0250   -0.3963 H   0  0  0  0  0  0  0  0  0  0  0  0
    4.1904   -8.5882    0.0663 H   0  0  0  0  0  0  0  0  0  0  0  0
    5.4864   -7.8415    0.8964 H   0  0  0  0  0  0  0  0  0  0  0  0
    2.5850   -4.0092    2.7315 H   0  0  0  0  0  0  0  0  0  0  0  0
    2.6664   -4.3436    5.6469 H   0  0  0  0  0  0  0  0  0  0  0  0
    2.1903   -3.0737    4.5978 H   0  0  0  0  0  0  0  0  0  0  0  0
    0.2844   -4.2027    5.7075 H   0  0  0  0  0  0  0  0  0  0  0  0
    0.2158   -4.1877    3.9541 H   0  0  0  0  0  0  0  0  0  0  0  0
   -0.4097   -6.3855    4.7660 H   0  0  0  0  0  0  0  0  0  0  0  0
    0.9416   -7.6401    3.4579 H   0  0  0  0  0  0  0  0  0  0  0  0
    3.2735   -7.8308    6.4723 H   0  0  0  0  0  0  0  0  0  0  0  0
    2.5093   -6.3693    7.1604 H   0  0  0  0  0  0  0  0  0  0  0  0
    3.4735   -6.3093    5.6566 H   0  0  0  0  0  0  0  0  0  0  0  0
    1.5237   -9.2462    5.9166 H   0  0  0  0  0  0  0  0  0  0  0  0
   -0.0388   -8.6087    5.3946 H   0  0  0  0  0  0  0  0  0  0  0  0
    0.5815   -8.2083    7.0020 H   0  0  0  0  0  0  0  0  0  0  0  0
    5.2902   -5.3973    5.5432 H   0  0  0  0  0  0  0  0  0  0  0  0
    4.6966   -3.7520    5.7555 H   0  0  0  0  0  0  0  0  0  0  0  0
    6.2031   -4.0676    4.9510 H   0  0  0  0  0  0  0  0  0  0  0  0
    5.6016   -2.9275    3.3130 H   0  0  0  0  0  0  0  0  0  0  0  0
  1  2  1  0
  1 31  1  0
  1 32  1  0
  1 33  1  0
  2  3  1  0
  2  4  1  0
  3 34  1  0
  3 35  1  0
  3 36  1  0
  4  5  1  0
  4 37  1  0
  4 38  1  0
  5  6  2  0
  5  7  1  0
  7  8  1  0
  8 16  1  0
  8  9  1  0
  8 39  1  1
  9 10  2  0
  9 40  1  0
 10 28  1  0
 10 11  1  0
 11 12  1  0
 11 41  1  0
 11 42  1  0
 12 17  1  0
 12 13  1  6
 12 14  1  0
 13 43  1  0
 13 44  1  0
 13 45  1  0
 14 15  1  0
 15 19  1  0
 15 16  1  0
 15 46  1  1
 16 17  1  0
 16 47  1  6
 17 18  1  6
 19 17  1  6
 18 48  1  0
 18 49  1  0
 18 50  1  0
 19 24  1  0
 19 20  1  0
 20 21  1  0
 20 28  1  0
 20 51  1  6
 21 22  1  0
 21 52  1  0
 21 53  1  0
 22 23  1  0
 22 54  1  0
 22 55  1  0
 23 25  1  0
 23 24  1  0
 23 56  1  6
 24 25  1  0
 24 57  1  6
 25 26  1  0
 25 27  1  0
 26 58  1  0
 26 59  1  0
 26 60  1  0
 27 61  1  0
 27 62  1  0
 27 63  1  0
 28 29  1  0
 28 30  1  6
 29 64  1  0
 29 65  1  0
 29 66  1  0
 30 67  1  0
M  END
>  <i_m_ct_stereo_status>  (30) 
1

>  <s_m_source_file>  (30) 
/var/tmp/pbs.5076255.sched01/tmp7dv9smms/08akalw19.sdf

>  <i_m_source_file_index>  (30) 
10

>  <i_lp_mmshare_version>  (30) 
48012

>  <i_f3d_flags>  (30) 
0

>  <s_epik_input>  (30) 
W0NIM11OKFtDSDNdKVtDSDJdQyg9TylPW0NAQEhdMVtDSF09QyhbQ0gyXVtDQF0oTzIpKFtDSDNdKUMzKFtDSDNdKVtDQEhdMVtDQEBIXTJbQ0BAXTM0NSlbQ0BAXShbQ0gzXSkoW09IXSlbQ0BASF00W0NIMl1bQ0gyXVtDQEhdNltDQEBIXTVDNihbQ0gzXSlbQ0gzXQ==

>  <s_epik_cmdline>  (30) 
J2VwaWtfcHl0aG9uJywgJy1waHQnLCAnMi4wJywgJy1waCcsICc3LjAnLCAnLXRuJywgJzgnLCAnLW1hJywgJzIwMCcsICctaW1hZScsICc8aW5maWxlLm1hZT4nLCAnLW9tYWUnLCAnPG91dGZpbGUubWFlPic=

>  <r_epik_Ionization_Penalty>  (30) 
1.00224

>  <r_epik_Ionization_Penalty_Charging>  (30) 
0

>  <r_epik_Ionization_Penalty_Neutral>  (30) 
1.00224

>  <r_epik_State_Penalty>  (30) 
1.05092

>  <r_epik_Charging_Adjusted_Penalty>  (30) 
1.05092

>  <i_epik_Tot_Q>  (30) 
0

>  <i_epik_Tot_abs_Q>  (30) 
0

>  <s_epik_Chemistry_Notes>  (30) 
This compound has an ester and may undergo hydrolysis at high or low pH.

>  <s_lp_Force_Field>  (30) 
OPLS3e

>  <r_lp_Energy>  (30) 
463.242

>  <b_lp_Chiralities_Consistent>  (30) 
1

>  <s_lp_Variant>  (30) 
1:0-2

>  <s_i_glide_gridfile>  (30) 
pfpi4k_grid

>  <i_i_glide_lignum>  (30) 
10

>  <i_i_glide_rotatable_bonds>  (30) 
5

>  <r_i_docking_score>  (30) 
-2.40879

>  <r_i_glide_ligand_efficiency>  (30) 
-0.080293

>  <r_i_glide_ligand_efficiency_sa>  (30) 
-0.249489

>  <r_i_glide_ligand_efficiency_ln>  (30) 
-0.547304

>  <r_i_glide_gscore>  (30) 
-2.40879

>  <r_i_glide_lipo>  (30) 
-0.591291

>  <r_i_glide_hbond>  (30) 
0

>  <r_i_glide_metal>  (30) 
-0

>  <r_i_glide_rewards>  (30) 
-0.632586

>  <r_i_glide_evdw>  (30) 
-26.8509

>  <r_i_glide_ecoul>  (30) 
-1.23616

>  <r_i_glide_erotb>  (30) 
0.343055

>  <r_i_glide_esite>  (30) 
0

>  <r_i_glide_emodel>  (30) 
-31.4167

>  <r_i_glide_energy>  (30) 
-28.0871

>  <r_i_glide_einternal>  (30) 
1.69494

>  <r_i_glide_intrahb_reward>  (30) 
-0

>  <i_i_glide_confnum>  (30) 
2

>  <i_i_glide_posenum>  (30) 
8

>  <r_i_glide_eff_state_penalty>  (30) 
0

>  <ligand_id>  (30) 
1

>  <original_smiles>  (30) 
CN(C)CC(=O)OC1C=C2CC3(C)OC4C1C3(C)C41C(CCC3C1C3(C)C)C2(C)O

>  <smiles>  (30) 
[H]OC1(C([H])([H])[H])C2=C([H])C([H])(OC(=O)C([H])([H])N(C([H])([H])[H])C([H])([H])[H])C3([H])C4([H])OC(C([H])([H])[H])(C2([H])[H])C3(C([H])([H])[H])C42C1([H])C([H])([H])C([H])([H])C1([H])C2([H])C1(C([H])([H])[H])C([H])([H])[H]

$$$$
3:0:0
     RDKit          3D

 27 29  0  0  1  0  0  0  0  0999 V2000
    1.0514   -7.0318    1.4475 O   0  0  0  0  0  0  0  0  0  0  0  0
    1.7702   -6.0038    0.9017 N   0  0  0  0  0  0  0  0  0  0  0  0
    2.8507   -5.3414    1.4671 C   0  0  0  0  0  0  0  0  0  0  0  0
    3.1458   -4.3292    0.5738 C   0  0  0  0  0  0  0  0  0  0  0  0
    4.1821   -3.3820    0.7165 N   0  0  0  0  0  0  0  0  0  0  0  0
    4.8281   -3.2665    1.9009 N   0  0  0  0  0  0  0  0  0  0  0  0
    5.6924   -2.2812    1.6802 C   0  0  0  0  0  0  0  0  0  0  0  0
    5.6850   -1.7564    0.4224 N   0  0  0  0  0  0  0  0  0  0  0  0
    4.7417   -2.4963   -0.1542 C   0  0  0  0  0  0  0  0  0  0  0  0
    4.4120   -2.2796   -1.5755 C   0  0  0  0  0  0  0  0  0  0  0  0
    3.9782   -3.2626   -2.3764 C   0  0  0  0  0  0  0  0  0  0  0  0
    3.5235   -3.0656   -3.7931 C   0  0  0  0  0  0  0  0  0  0  0  0
    4.0567   -1.8625   -4.3244 O   0  0  0  0  0  0  0  0  0  0  0  0
    3.8079   -0.7296   -3.5032 C   0  0  0  0  0  0  0  0  0  0  0  0
    4.5667   -0.8956   -2.1752 C   0  0  0  0  0  0  0  0  0  0  0  0
    2.1633   -4.4310   -0.4444 C   0  0  0  0  0  0  0  0  0  0  0  0
    1.3656   -5.4574   -0.2686 N   0  0  0  0  0  0  0  0  0  0  0  0
    3.2713   -5.6301    2.4200 H   0  0  0  0  0  0  0  0  0  0  0  0
    6.3598   -1.9261    2.4470 H   0  0  0  0  0  0  0  0  0  0  0  0
    3.8906   -4.2568   -1.9885 H   0  0  0  0  0  0  0  0  0  0  0  0
    3.8409   -3.9214   -4.3855 H   0  0  0  0  0  0  0  0  0  0  0  0
    2.4360   -3.0496   -3.8262 H   0  0  0  0  0  0  0  0  0  0  0  0
    4.1583    0.1577   -4.0312 H   0  0  0  0  0  0  0  0  0  0  0  0
    2.7343   -0.6178   -3.3453 H   0  0  0  0  0  0  0  0  0  0  0  0
    4.2411   -0.1498   -1.4589 H   0  0  0  0  0  0  0  0  0  0  0  0
    5.6302   -0.7218   -2.3113 H   0  0  0  0  0  0  0  0  0  0  0  0
    1.9802   -3.7599   -1.2823 H   0  0  0  0  0  0  0  0  0  0  0  0
  1  2  1  0
  2 17  1  0
  2  3  1  0
  3  4  2  0
  3 18  1  0
  4  5  1  0
  4 16  1  0
  5  9  1  0
  5  6  1  0
  6  7  2  0
  7  8  1  0
  7 19  1  0
  8  9  2  0
  9 10  1  0
 10 15  1  0
 10 11  2  0
 11 12  1  0
 11 20  1  0
 12 13  1  0
 12 21  1  0
 12 22  1  0
 13 14  1  0
 14 15  1  0
 14 23  1  0
 14 24  1  0
 15 25  1  0
 15 26  1  0
 16 17  2  0
 16 27  1  0
M  CHG  1   1  -1
M  END
>  <i_m_ct_stereo_status>  (31) 
1

>  <s_m_source_file>  (31) 
/var/tmp/pbs.5076255.sched01/tmp7dv9smms/08akalw19.sdf

>  <i_m_source_file_index>  (31) 
12

>  <i_lp_mmshare_version>  (31) 
48012

>  <i_f3d_flags>  (31) 
0

>  <s_epik_input>  (31) 
W09IXW4xW2NIXWMoW2NIXW4xKS1uMm5bY0hdbmMyQzM9W0NIXVtDSDJdT1tDSDJdW0NIMl0z

>  <s_epik_cmdline>  (31) 
J2VwaWtfcHl0aG9uJywgJy1waHQnLCAnMi4wJywgJy1waCcsICc3LjAnLCAnLXRuJywgJzgnLCAnLW1hJywgJzIwMCcsICctaW1hZScsICc8aW5maWxlLm1hZT4nLCAnLW9tYWUnLCAnPG91dGZpbGUubWFlPic=

>  <r_epik_Ionization_Penalty>  (31) 
0.00191773

>  <r_epik_Ionization_Penalty_Charging>  (31) 
0.0018255

>  <r_epik_Ionization_Penalty_Neutral>  (31) 
9.22275e-05

>  <r_epik_State_Penalty>  (31) 
0.00123932

>  <r_epik_Charging_Adjusted_Penalty>  (31) 
0.00306482

>  <i_epik_Tot_Q>  (31) 
-1

>  <i_epik_Tot_abs_Q>  (31) 
1

>  <s_lp_Force_Field>  (31) 
OPLS3e

>  <r_lp_Energy>  (31) 
17.3146

>  <b_lp_Chiralities_Consistent>  (31) 
1

>  <s_lp_Variant>  (31) 
3:0-1

>  <s_i_glide_gridfile>  (31) 
pfpi4k_grid

>  <i_i_glide_lignum>  (31) 
12

>  <i_i_glide_rotatable_bonds>  (31) 
2

>  <r_i_docking_score>  (31) 
-4.45676

>  <r_i_glide_ligand_efficiency>  (31) 
-0.262163

>  <r_i_glide_ligand_efficiency_sa>  (31) 
-0.674094

>  <r_i_glide_ligand_efficiency_ln>  (31) 
-1.16267

>  <r_i_glide_gscore>  (31) 
-4.45676

>  <r_i_glide_lipo>  (31) 
-0.367242

>  <r_i_glide_hbond>  (31) 
-0.574171

>  <r_i_glide_metal>  (31) 
-0

>  <r_i_glide_rewards>  (31) 
-1.9547

>  <r_i_glide_evdw>  (31) 
-19.1031

>  <r_i_glide_ecoul>  (31) 
-7.81257

>  <r_i_glide_erotb>  (31) 
0.635148

>  <r_i_glide_esite>  (31) 
-0.0687626

>  <r_i_glide_emodel>  (31) 
-37.6404

>  <r_i_glide_energy>  (31) 
-26.9156

>  <r_i_glide_einternal>  (31) 
0.553537

>  <r_i_glide_intrahb_reward>  (31) 
-0

>  <i_i_glide_confnum>  (31) 
6

>  <i_i_glide_posenum>  (31) 
25

>  <r_i_glide_eff_state_penalty>  (31) 
0

>  <ligand_id>  (31) 
3

>  <original_smiles>  (31) 
On1cc(-n2ncnc2C2=CCOCC2)cn1

>  <smiles>  (31) 
[H]C1=C(c2nc([H])nn2-c2c([H])nn([O-])c2[H])C([H])([H])C([H])([H])OC1([H])[H]

$$$$
3:0:1
     RDKit          3D

 27 29  0  0  1  0  0  0  0  0999 V2000
   -1.5049   -3.1370    6.4704 O   0  0  0  0  0  0  0  0  0  0  0  0
   -1.2250   -2.0621    5.6992 N   0  0  0  0  0  0  0  0  0  0  0  0
   -0.1449   -1.8975    4.8608 C   0  0  0  0  0  0  0  0  0  0  0  0
   -0.2880   -0.6377    4.3189 C   0  0  0  0  0  0  0  0  0  0  0  0
    0.6066   -0.0408    3.3675 N   0  0  0  0  0  0  0  0  0  0  0  0
    1.6224   -0.7812    2.8387 N   0  0  0  0  0  0  0  0  0  0  0  0
    2.2514    0.0768    2.0503 C   0  0  0  0  0  0  0  0  0  0  0  0
    1.7429    1.3395    2.0535 N   0  0  0  0  0  0  0  0  0  0  0  0
    0.6901    1.1986    2.8549 C   0  0  0  0  0  0  0  0  0  0  0  0
   -0.1974    2.3321    3.1399 C   0  0  0  0  0  0  0  0  0  0  0  0
   -1.5241    2.2629    2.9441 C   0  0  0  0  0  0  0  0  0  0  0  0
   -2.4659    3.3912    3.2522 C   0  0  0  0  0  0  0  0  0  0  0  0
   -1.7946    4.6532    3.4219 O   0  0  0  0  0  0  0  0  0  0  0  0
   -0.6735    4.5468    4.2909 C   0  0  0  0  0  0  0  0  0  0  0  0
    0.3939    3.6148    3.6915 C   0  0  0  0  0  0  0  0  0  0  0  0
   -1.4660   -0.0931    4.9189 C   0  0  0  0  0  0  0  0  0  0  0  0
   -2.0563   -1.0007    5.7050 N   0  0  0  0  0  0  0  0  0  0  0  0
    0.6106   -2.6642    4.7231 H   0  0  0  0  0  0  0  0  0  0  0  0
    3.1099   -0.1807    1.4640 H   0  0  0  0  0  0  0  0  0  0  0  0
   -1.9703    1.3691    2.5194 H   0  0  0  0  0  0  0  0  0  0  0  0
   -3.2237    3.4987    2.4660 H   0  0  0  0  0  0  0  0  0  0  0  0
   -3.0002    3.1535    4.1700 H   0  0  0  0  0  0  0  0  0  0  0  0
   -0.2567    5.5434    4.4281 H   0  0  0  0  0  0  0  0  0  0  0  0
   -1.0014    4.1993    5.2723 H   0  0  0  0  0  0  0  0  0  0  0  0
    1.1251    3.3771    4.4671 H   0  0  0  0  0  0  0  0  0  0  0  0
    0.9378    4.1141    2.8854 H   0  0  0  0  0  0  0  0  0  0  0  0
   -1.9510    0.8700    4.8337 H   0  0  0  0  0  0  0  0  0  0  0  0
  1  2  1  0
  2 17  1  0
  2  3  1  0
  3  4  2  0
  3 18  1  0
  4  5  1  0
  4 16  1  0
  5  9  1  0
  5  6  1  0
  6  7  2  0
  7  8  1  0
  7 19  1  0
  8  9  2  0
  9 10  1  0
 10 15  1  0
 10 11  2  0
 11 12  1  0
 11 20  1  0
 12 13  1  0
 12 21  1  0
 12 22  1  0
 13 14  1  0
 14 15  1  0
 14 23  1  0
 14 24  1  0
 15 25  1  0
 15 26  1  0
 16 17  2  0
 16 27  1  0
M  CHG  1   1  -1
M  END
>  <i_m_ct_stereo_status>  (32) 
1

>  <s_m_source_file>  (32) 
/var/tmp/pbs.5076255.sched01/tmp7dv9smms/08akalw19.sdf

>  <i_m_source_file_index>  (32) 
12

>  <i_lp_mmshare_version>  (32) 
48012

>  <i_f3d_flags>  (32) 
0

>  <s_epik_input>  (32) 
W09IXW4xW2NIXWMoW2NIXW4xKS1uMm5bY0hdbmMyQzM9W0NIXVtDSDJdT1tDSDJdW0NIMl0z

>  <s_epik_cmdline>  (32) 
J2VwaWtfcHl0aG9uJywgJy1waHQnLCAnMi4wJywgJy1waCcsICc3LjAnLCAnLXRuJywgJzgnLCAnLW1hJywgJzIwMCcsICctaW1hZScsICc8aW5maWxlLm1hZT4nLCAnLW9tYWUnLCAnPG91dGZpbGUubWFlPic=

>  <r_epik_Ionization_Penalty>  (32) 
0.00191773

>  <r_epik_Ionization_Penalty_Charging>  (32) 
0.0018255

>  <r_epik_Ionization_Penalty_Neutral>  (32) 
9.22275e-05

>  <r_epik_State_Penalty>  (32) 
0.00123932

>  <r_epik_Charging_Adjusted_Penalty>  (32) 
0.00306482

>  <i_epik_Tot_Q>  (32) 
-1

>  <i_epik_Tot_abs_Q>  (32) 
1

>  <s_lp_Force_Field>  (32) 
OPLS3e

>  <r_lp_Energy>  (32) 
17.3146

>  <b_lp_Chiralities_Consistent>  (32) 
1

>  <s_lp_Variant>  (32) 
3:0-1

>  <s_i_glide_gridfile>  (32) 
pfpi4k_grid

>  <i_i_glide_lignum>  (32) 
12

>  <i_i_glide_rotatable_bonds>  (32) 
2

>  <r_i_docking_score>  (32) 
-3.61972

>  <r_i_glide_ligand_efficiency>  (32) 
-0.212925

>  <r_i_glide_ligand_efficiency_sa>  (32) 
-0.54749

>  <r_i_glide_ligand_efficiency_ln>  (32) 
-0.944305

>  <r_i_glide_gscore>  (32) 
-3.61972

>  <r_i_glide_lipo>  (32) 
0

>  <r_i_glide_hbond>  (32) 
-0.208663

>  <r_i_glide_metal>  (32) 
-0

>  <r_i_glide_rewards>  (32) 
-1.82578

>  <r_i_glide_evdw>  (32) 
-20.3854

>  <r_i_glide_ecoul>  (32) 
-7.12719

>  <r_i_glide_erotb>  (32) 
0.635148

>  <r_i_glide_esite>  (32) 
-0.132076

>  <r_i_glide_emodel>  (32) 
-36.0337

>  <r_i_glide_energy>  (32) 
-27.5126

>  <r_i_glide_einternal>  (32) 
1.98262

>  <r_i_glide_intrahb_reward>  (32) 
-0

>  <i_i_glide_confnum>  (32) 
6

>  <i_i_glide_posenum>  (32) 
1

>  <r_i_glide_eff_state_penalty>  (32) 
0

>  <ligand_id>  (32) 
3

>  <original_smiles>  (32) 
On1cc(-n2ncnc2C2=CCOCC2)cn1

>  <smiles>  (32) 
[H]C1=C(c2nc([H])nn2-c2c([H])nn([O-])c2[H])C([H])([H])C([H])([H])OC1([H])[H]

$$$$
3:0:2
     RDKit          3D

 27 29  0  0  1  0  0  0  0  0999 V2000
   -0.5890    5.7457    3.3609 O   0  0  0  0  0  0  0  0  0  0  0  0
   -1.0900    4.5288    3.6628 N   0  0  0  0  0  0  0  0  0  0  0  0
   -0.4261    3.5156    4.3047 C   0  0  0  0  0  0  0  0  0  0  0  0
   -1.3585    2.5302    4.4093 C   0  0  0  0  0  0  0  0  0  0  0  0
   -1.1252    1.2733    4.9947 N   0  0  0  0  0  0  0  0  0  0  0  0
   -0.7090    0.2351    4.2304 N   0  0  0  0  0  0  0  0  0  0  0  0
   -0.6168   -0.7607    5.1043 C   0  0  0  0  0  0  0  0  0  0  0  0
   -0.9629   -0.4534    6.3943 N   0  0  0  0  0  0  0  0  0  0  0  0
   -1.2466    0.8440    6.2588 C   0  0  0  0  0  0  0  0  0  0  0  0
   -1.6953    1.6315    7.4129 C   0  0  0  0  0  0  0  0  0  0  0  0
   -2.7551    2.4650    7.3551 C   0  0  0  0  0  0  0  0  0  0  0  0
   -3.2399    3.2491    8.5596 C   0  0  0  0  0  0  0  0  0  0  0  0
   -2.6863    2.7535    9.7714 O   0  0  0  0  0  0  0  0  0  0  0  0
   -1.2760    2.6302    9.7159 C   0  0  0  0  0  0  0  0  0  0  0  0
   -0.9138    1.5245    8.7164 C   0  0  0  0  0  0  0  0  0  0  0  0
   -2.5359    3.0101    3.7779 C   0  0  0  0  0  0  0  0  0  0  0  0
   -2.3779    4.2576    3.3590 N   0  0  0  0  0  0  0  0  0  0  0  0
    0.6077    3.5948    4.6151 H   0  0  0  0  0  0  0  0  0  0  0  0
   -0.3099   -1.7503    4.7931 H   0  0  0  0  0  0  0  0  0  0  0  0
   -3.3351    2.5885    6.4496 H   0  0  0  0  0  0  0  0  0  0  0  0
   -3.0011    4.3056    8.4347 H   0  0  0  0  0  0  0  0  0  0  0  0
   -4.3231    3.1612    8.6390 H   0  0  0  0  0  0  0  0  0  0  0  0
   -0.8200    3.5777    9.4300 H   0  0  0  0  0  0  0  0  0  0  0  0
   -0.8981    2.3709   10.7035 H   0  0  0  0  0  0  0  0  0  0  0  0
   -1.0871    0.5423    9.1539 H   0  0  0  0  0  0  0  0  0  0  0  0
    0.1519    1.5782    8.4962 H   0  0  0  0  0  0  0  0  0  0  0  0
   -3.4804    2.5206    3.6179 H   0  0  0  0  0  0  0  0  0  0  0  0
  1  2  1  0
  2 17  1  0
  2  3  1  0
  3  4  2  0
  3 18  1  0
  4  5  1  0
  4 16  1  0
  5  9  1  0
  5  6  1  0
  6  7  2  0
  7  8  1  0
  7 19  1  0
  8  9  2  0
  9 10  1  0
 10 15  1  0
 10 11  2  0
 11 12  1  0
 11 20  1  0
 12 13  1  0
 12 21  1  0
 12 22  1  0
 13 14  1  0
 14 15  1  0
 14 23  1  0
 14 24  1  0
 15 25  1  0
 15 26  1  0
 16 17  2  0
 16 27  1  0
M  CHG  1   1  -1
M  END
>  <i_m_ct_stereo_status>  (33) 
1

>  <s_m_source_file>  (33) 
/var/tmp/pbs.5076255.sched01/tmp7dv9smms/08akalw19.sdf

>  <i_m_source_file_index>  (33) 
12

>  <i_lp_mmshare_version>  (33) 
48012

>  <i_f3d_flags>  (33) 
0

>  <s_epik_input>  (33) 
W09IXW4xW2NIXWMoW2NIXW4xKS1uMm5bY0hdbmMyQzM9W0NIXVtDSDJdT1tDSDJdW0NIMl0z

>  <s_epik_cmdline>  (33) 
J2VwaWtfcHl0aG9uJywgJy1waHQnLCAnMi4wJywgJy1waCcsICc3LjAnLCAnLXRuJywgJzgnLCAnLW1hJywgJzIwMCcsICctaW1hZScsICc8aW5maWxlLm1hZT4nLCAnLW9tYWUnLCAnPG91dGZpbGUubWFlPic=

>  <r_epik_Ionization_Penalty>  (33) 
0.00191773

>  <r_epik_Ionization_Penalty_Charging>  (33) 
0.0018255

>  <r_epik_Ionization_Penalty_Neutral>  (33) 
9.22275e-05

>  <r_epik_State_Penalty>  (33) 
0.00123932

>  <r_epik_Charging_Adjusted_Penalty>  (33) 
0.00306482

>  <i_epik_Tot_Q>  (33) 
-1

>  <i_epik_Tot_abs_Q>  (33) 
1

>  <s_lp_Force_Field>  (33) 
OPLS3e

>  <r_lp_Energy>  (33) 
17.3146

>  <b_lp_Chiralities_Consistent>  (33) 
1

>  <s_lp_Variant>  (33) 
3:0-1

>  <s_i_glide_gridfile>  (33) 
pfpi4k_grid

>  <i_i_glide_lignum>  (33) 
12

>  <i_i_glide_rotatable_bonds>  (33) 
2

>  <r_i_docking_score>  (33) 
-3.49003

>  <r_i_glide_ligand_efficiency>  (33) 
-0.205296

>  <r_i_glide_ligand_efficiency_sa>  (33) 
-0.527874

>  <r_i_glide_ligand_efficiency_ln>  (33) 
-0.910472

>  <r_i_glide_gscore>  (33) 
-3.49003

>  <r_i_glide_lipo>  (33) 
-0.159326

>  <r_i_glide_hbond>  (33) 
-0.315099

>  <r_i_glide_metal>  (33) 
-0

>  <r_i_glide_rewards>  (33) 
-1.82578

>  <r_i_glide_evdw>  (33) 
-18.8569

>  <r_i_glide_ecoul>  (33) 
-4.5834

>  <r_i_glide_erotb>  (33) 
0.635148

>  <r_i_glide_esite>  (33) 
-0.194623

>  <r_i_glide_emodel>  (33) 
-30.1862

>  <r_i_glide_energy>  (33) 
-23.4403

>  <r_i_glide_einternal>  (33) 
5.23498

>  <r_i_glide_intrahb_reward>  (33) 
-0

>  <i_i_glide_confnum>  (33) 
4

>  <i_i_glide_posenum>  (33) 
8

>  <r_i_glide_eff_state_penalty>  (33) 
0

>  <ligand_id>  (33) 
3

>  <original_smiles>  (33) 
On1cc(-n2ncnc2C2=CCOCC2)cn1

>  <smiles>  (33) 
[H]C1=C(c2nc([H])nn2-c2c([H])nn([O-])c2[H])C([H])([H])C([H])([H])OC1([H])[H]

$$$$
4:0:0
     RDKit          3D

 45 48  0  0  1  0  0  0  0  0999 V2000
    4.8192   -7.4612    0.9154 C   0  0  0  0  0  0  0  0  0  0  0  0
    4.9100   -5.9689    1.2836 C   0  0  2  0  0  0  0  0  0  0  0  0
    3.5321   -5.2416    1.1810 C   0  0  0  0  0  0  0  0  0  0  0  0
    3.5262   -4.3322   -0.0597 C   0  0  1  0  0  0  0  0  0  0  0  0
    2.2152   -3.8247   -0.6534 C   0  0  0  0  0  0  0  0  0  0  0  0
    2.4369   -3.2655   -2.0820 C   0  0  0  0  0  0  0  0  0  0  0  0
    3.9208   -3.1720   -2.5302 C   0  0  1  0  0  0  0  0  0  0  0  0
    4.0022   -2.3551   -3.8366 C   0  0  0  0  0  0  0  0  0  0  0  0
    4.8239   -2.5932   -1.4016 C   0  0  2  0  0  0  0  0  0  0  0  0
    6.3466   -2.6991   -1.5527 C   0  0  0  0  0  0  0  0  0  0  0  0
    6.8601   -2.7745   -0.0950 C   0  0  1  0  0  0  0  0  0  0  0  0
    8.3483   -3.1404    0.0303 C   0  0  0  0  0  0  0  0  0  0  0  0
    6.6596   -1.4908    0.5193 O   0  0  0  0  0  0  0  0  0  0  0  0
    5.4752   -1.0271    1.0275 C   0  0  0  0  0  0  0  0  0  0  0  0
    5.2847    0.0789    1.5141 O   0  0  0  0  0  0  0  0  0  0  0  0
    4.2694   -2.0153    0.9695 C   0  0  0  0  0  0  0  0  0  0  0  0
    4.5729   -3.2028    0.0245 C   0  0  1  0  0  0  0  0  0  0  0  0
    5.8973   -3.7442    0.6004 C   0  0  1  0  0  0  0  0  0  0  0  0
    6.0271   -5.2674    0.4614 C   0  0  0  0  0  0  0  0  0  0  0  0
    4.5418   -7.5948   -0.1348 H   0  0  0  0  0  0  0  0  0  0  0  0
    4.0906   -7.9882    1.5316 H   0  0  0  0  0  0  0  0  0  0  0  0
    5.7861   -7.9505    1.0642 H   0  0  0  0  0  0  0  0  0  0  0  0
    5.2022   -5.9359    2.3383 H   0  0  0  0  0  0  0  0  0  0  0  0
    2.7212   -5.9635    1.1021 H   0  0  0  0  0  0  0  0  0  0  0  0
    3.3589   -4.6474    2.0769 H   0  0  0  0  0  0  0  0  0  0  0  0
    3.8526   -5.0490   -0.8186 H   0  0  0  0  0  0  0  0  0  0  0  0
    1.4649   -4.6047   -0.6652 H   0  0  0  0  0  0  0  0  0  0  0  0
    1.8351   -3.0132   -0.0174 H   0  0  0  0  0  0  0  0  0  0  0  0
    1.9242   -3.9424   -2.7791 H   0  0  0  0  0  0  0  0  0  0  0  0
    1.9324   -2.3221   -2.2182 H   0  0  0  0  0  0  0  0  0  0  0  0
    4.2736   -4.1628   -2.7711 H   0  0  0  0  0  0  0  0  0  0  0  0
    3.6234   -1.3403   -3.7124 H   0  0  0  0  0  0  0  0  0  0  0  0
    3.3960   -2.8381   -4.6112 H   0  0  0  0  0  0  0  0  0  0  0  0
    5.0108   -2.3026   -4.1863 H   0  0  0  0  0  0  0  0  0  0  0  0
    4.5631   -1.5400   -1.3877 H   0  0  0  0  0  0  0  0  0  0  0  0
    6.6036   -3.6143   -2.0902 H   0  0  0  0  0  0  0  0  0  0  0  0
    6.7633   -1.8594   -2.0983 H   0  0  0  0  0  0  0  0  0  0  0  0
    8.5889   -4.0917   -0.4453 H   0  0  0  0  0  0  0  0  0  0  0  0
    8.6477   -3.2110    1.0764 H   0  0  0  0  0  0  0  0  0  0  0  0
    8.9744   -2.3719   -0.4327 H   0  0  0  0  0  0  0  0  0  0  0  0
    4.0816   -2.3730    1.9837 H   0  0  0  0  0  0  0  0  0  0  0  0
    3.3858   -1.4699    0.6419 H   0  0  0  0  0  0  0  0  0  0  0  0
    5.9754   -3.5931    1.6769 H   0  0  0  0  0  0  0  0  0  0  0  0
    7.0056   -5.6045    0.8124 H   0  0  0  0  0  0  0  0  0  0  0  0
    5.9355   -5.5548   -0.5799 H   0  0  0  0  0  0  0  0  0  0  0  0
  1  2  1  0
  1 20  1  0
  1 21  1  0
  1 22  1  0
  2 19  1  0
  2  3  1  0
  2 23  1  1
  3  4  1  0
  3 24  1  0
  3 25  1  0
  4 17  1  0
  4  5  1  0
  4 26  1  6
  5  6  1  0
  5 27  1  0
  5 28  1  0
  6  7  1  0
  6 29  1  0
  6 30  1  0
  7  8  1  0
  7  9  1  0
  7 31  1  6
  8 32  1  0
  8 33  1  0
  8 34  1  0
  9 17  1  0
  9 10  1  0
  9 35  1  1
 10 11  1  0
 10 36  1  0
 10 37  1  0
 11 18  1  0
 11 12  1  6
 11 13  1  0
 12 38  1  0
 12 39  1  0
 12 40  1  0
 13 14  1  0
 14 15  2  0
 14 16  1  0
 17 16  1  1
 16 41  1  0
 16 42  1  0
 17 18  1  0
 18 19  1  0
 18 43  1  1
 19 44  1  0
 19 45  1  0
M  END
>  <i_m_ct_stereo_status>  (34) 
1

>  <s_m_source_file>  (34) 
/var/tmp/pbs.5076255.sched01/tmp7dv9smms/08akalw19.sdf

>  <i_m_source_file_index>  (34) 
13

>  <i_lp_mmshare_version>  (34) 
48012

>  <i_f3d_flags>  (34) 
0

>  <s_epik_input>  (34) 
W0NAXTEyM1tDQEhdNFtDSDJdW0NAQEhdKFtDSDNdKVtDSDJdW0NASF0zW0NAXShbQ0gzXSkoT0MoPU8pW0NIMl0yKVtDSDJdW0NASF0xW0NASF0oW0NIM10pW0NIMl1bQ0gyXTQ=

>  <s_epik_cmdline>  (34) 
J2VwaWtfcHl0aG9uJywgJy1waHQnLCAnMi4wJywgJy1waCcsICc3LjAnLCAnLXRuJywgJzgnLCAnLW1hJywgJzIwMCcsICctaW1hZScsICc8aW5maWxlLm1hZT4nLCAnLW9tYWUnLCAnPG91dGZpbGUubWFlPic=

>  <r_lp_tautomer_probability>  (34) 
1

>  <r_epik_Ionization_Penalty>  (34) 
2.63757e-09

>  <r_epik_Ionization_Penalty_Charging>  (34) 
0

>  <r_epik_Ionization_Penalty_Neutral>  (34) 
2.63757e-09

>  <r_epik_State_Penalty>  (34) 
-0

>  <r_epik_Charging_Adjusted_Penalty>  (34) 
0

>  <i_epik_Tot_Q>  (34) 
0

>  <i_epik_Tot_abs_Q>  (34) 
0

>  <s_epik_Chemistry_Notes>  (34) 
This compound has an ester and may undergo hydrolysis at high or low pH.

>  <s_lp_Force_Field>  (34) 
OPLS3e

>  <r_lp_Energy>  (34) 
61.8692

>  <b_lp_Chiralities_Consistent>  (34) 
1

>  <s_lp_Variant>  (34) 
4:0-1

>  <s_i_glide_gridfile>  (34) 
pfpi4k_grid

>  <i_i_glide_lignum>  (34) 
13

>  <i_i_glide_rotatable_bonds>  (34) 
0

>  <r_i_docking_score>  (34) 
-4.08092

>  <r_i_glide_ligand_efficiency>  (34) 
-0.214785

>  <r_i_glide_ligand_efficiency_sa>  (34) 
-0.573134

>  <r_i_glide_ligand_efficiency_ln>  (34) 
-1.0346

>  <r_i_glide_gscore>  (34) 
-4.08092

>  <r_i_glide_lipo>  (34) 
-0.786362

>  <r_i_glide_hbond>  (34) 
-0.219921

>  <r_i_glide_metal>  (34) 
-0

>  <r_i_glide_rewards>  (34) 
-1.78432

>  <r_i_glide_evdw>  (34) 
-23.2863

>  <r_i_glide_ecoul>  (34) 
-0.840075

>  <r_i_glide_erotb>  (34) 
0

>  <r_i_glide_esite>  (34) 
0

>  <r_i_glide_emodel>  (34) 
-29.723

>  <r_i_glide_energy>  (34) 
-24.1263

>  <r_i_glide_einternal>  (34) 
0

>  <r_i_glide_intrahb_reward>  (34) 
-0

>  <i_i_glide_confnum>  (34) 
1

>  <i_i_glide_posenum>  (34) 
2

>  <r_i_glide_eff_state_penalty>  (34) 
0

>  <ligand_id>  (34) 
4

>  <original_smiles>  (34) 
CC1CC2CCC(C)C3CC4(C)OC(=O)CC23C4C1

>  <smiles>  (34) 
[H]C([H])([H])C1([H])C([H])([H])C2([H])C([H])([H])C([H])([H])C([H])(C([H])([H])[H])C3([H])C([H])([H])C4(C([H])([H])[H])OC(=O)C([H])([H])C23C4([H])C1([H])[H]

$$$$
4:0:1
     RDKit          3D

 45 48  0  0  1  0  0  0  0  0999 V2000
    1.9358   -1.6221    2.5704 C   0  0  0  0  0  0  0  0  0  0  0  0
    3.4145   -1.9940    2.3593 C   0  0  2  0  0  0  0  0  0  0  0  0
    4.1687   -0.9718    1.4475 C   0  0  0  0  0  0  0  0  0  0  0  0
    4.4263   -1.6115    0.0763 C   0  0  1  0  0  0  0  0  0  0  0  0
    4.7883   -0.7690   -1.1309 C   0  0  0  0  0  0  0  0  0  0  0  0
    4.5779   -1.5626   -2.4326 C   0  0  0  0  0  0  0  0  0  0  0  0
    4.3154   -3.0805   -2.2524 C   0  0  1  0  0  0  0  0  0  0  0  0
    4.4887   -3.7587   -3.6308 C   0  0  0  0  0  0  0  0  0  0  0  0
    5.2419   -3.6788   -1.1466 C   0  0  2  0  0  0  0  0  0  0  0  0
    4.8971   -5.0577   -0.5797 C   0  0  0  0  0  0  0  0  0  0  0  0
    5.4543   -5.0532    0.8534 C   0  0  1  0  0  0  0  0  0  0  0  0
    5.0237   -6.2666    1.6922 C   0  0  0  0  0  0  0  0  0  0  0  0
    6.9011   -5.0292    0.8102 O   0  0  0  0  0  0  0  0  0  0  0  0
    7.6619   -3.9073    0.5673 C   0  0  0  0  0  0  0  0  0  0  0  0
    8.8908   -3.8865    0.4814 O   0  0  0  0  0  0  0  0  0  0  0  0
    6.8751   -2.5767    0.3938 C   0  0  0  0  0  0  0  0  0  0  0  0
    5.3630   -2.8362    0.1669 C   0  0  1  0  0  0  0  0  0  0  0  0
    4.9920   -3.6987    1.3926 C   0  0  1  0  0  0  0  0  0  0  0  0
    3.5515   -3.4641    1.8674 C   0  0  0  0  0  0  0  0  0  0  0  0
    1.3888   -1.6682    1.6311 H   0  0  0  0  0  0  0  0  0  0  0  0
    1.8291   -0.6195    2.9852 H   0  0  0  0  0  0  0  0  0  0  0  0
    1.4664   -2.3212    3.2662 H   0  0  0  0  0  0  0  0  0  0  0  0
    3.8804   -1.9302    3.3443 H   0  0  0  0  0  0  0  0  0  0  0  0
    3.5780   -0.0669    1.3154 H   0  0  0  0  0  0  0  0  0  0  0  0
    5.1153   -0.6894    1.9094 H   0  0  0  0  0  0  0  0  0  0  0  0
    3.4185   -1.9529   -0.1702 H   0  0  0  0  0  0  0  0  0  0  0  0
    4.2219    0.1399   -1.1599 H   0  0  0  0  0  0  0  0  0  0  0  0
    5.8327   -0.4647   -1.0468 H   0  0  0  0  0  0  0  0  0  0  0  0
    3.7064   -1.1396   -2.9430 H   0  0  0  0  0  0  0  0  0  0  0  0
    5.4136   -1.4046   -3.1052 H   0  0  0  0  0  0  0  0  0  0  0  0
    3.2821   -3.2179   -1.9479 H   0  0  0  0  0  0  0  0  0  0  0  0
    5.4897   -3.6484   -4.0349 H   0  0  0  0  0  0  0  0  0  0  0  0
    3.7673   -3.3434   -4.3405 H   0  0  0  0  0  0  0  0  0  0  0  0
    4.3074   -4.8212   -3.5920 H   0  0  0  0  0  0  0  0  0  0  0  0
    6.2188   -3.7351   -1.6264 H   0  0  0  0  0  0  0  0  0  0  0  0
    3.8133   -5.1956   -0.5774 H   0  0  0  0  0  0  0  0  0  0  0  0
    5.3068   -5.8638   -1.1635 H   0  0  0  0  0  0  0  0  0  0  0  0
    3.9418   -6.3819    1.7391 H   0  0  0  0  0  0  0  0  0  0  0  0
    5.4046   -6.1844    2.7080 H   0  0  0  0  0  0  0  0  0  0  0  0
    5.4342   -7.1847    1.2632 H   0  0  0  0  0  0  0  0  0  0  0  0
    7.0279   -1.9874    1.2965 H   0  0  0  0  0  0  0  0  0  0  0  0
    7.3168   -2.0313   -0.4356 H   0  0  0  0  0  0  0  0  0  0  0  0
    5.5953   -3.4573    2.2657 H   0  0  0  0  0  0  0  0  0  0  0  0
    3.3249   -4.1383    2.6945 H   0  0  0  0  0  0  0  0  0  0  0  0
    2.8314   -3.6751    1.0772 H   0  0  0  0  0  0  0  0  0  0  0  0
  1  2  1  0
  1 20  1  0
  1 21  1  0
  1 22  1  0
  2 19  1  0
  2  3  1  0
  2 23  1  1
  3  4  1  0
  3 24  1  0
  3 25  1  0
  4 17  1  0
  4  5  1  0
  4 26  1  6
  5  6  1  0
  5 27  1  0
  5 28  1  0
  6  7  1  0
  6 29  1  0
  6 30  1  0
  7  8  1  0
  7  9  1  0
  7 31  1  1
  8 32  1  0
  8 33  1  0
  8 34  1  0
  9 17  1  0
  9 10  1  0
  9 35  1  6
 10 11  1  0
 10 36  1  0
 10 37  1  0
 11 18  1  0
 11 12  1  1
 11 13  1  0
 12 38  1  0
 12 39  1  0
 12 40  1  0
 13 14  1  0
 14 15  2  0
 14 16  1  0
 17 16  1  1
 16 41  1  0
 16 42  1  0
 17 18  1  0
 18 19  1  0
 18 43  1  1
 19 44  1  0
 19 45  1  0
M  END
>  <i_m_ct_stereo_status>  (35) 
1

>  <s_m_source_file>  (35) 
/var/tmp/pbs.5076255.sched01/tmp7dv9smms/08akalw19.sdf

>  <i_m_source_file_index>  (35) 
13

>  <i_lp_mmshare_version>  (35) 
48012

>  <i_f3d_flags>  (35) 
0

>  <s_epik_input>  (35) 
W0NAXTEyM1tDQEhdNFtDSDJdW0NAQEhdKFtDSDNdKVtDSDJdW0NASF0zW0NAXShbQ0gzXSkoT0MoPU8pW0NIMl0yKVtDSDJdW0NASF0xW0NASF0oW0NIM10pW0NIMl1bQ0gyXTQ=

>  <s_epik_cmdline>  (35) 
J2VwaWtfcHl0aG9uJywgJy1waHQnLCAnMi4wJywgJy1waCcsICc3LjAnLCAnLXRuJywgJzgnLCAnLW1hJywgJzIwMCcsICctaW1hZScsICc8aW5maWxlLm1hZT4nLCAnLW9tYWUnLCAnPG91dGZpbGUubWFlPic=

>  <r_lp_tautomer_probability>  (35) 
1

>  <r_epik_Ionization_Penalty>  (35) 
2.63757e-09

>  <r_epik_Ionization_Penalty_Charging>  (35) 
0

>  <r_epik_Ionization_Penalty_Neutral>  (35) 
2.63757e-09

>  <r_epik_State_Penalty>  (35) 
-0

>  <r_epik_Charging_Adjusted_Penalty>  (35) 
0

>  <i_epik_Tot_Q>  (35) 
0

>  <i_epik_Tot_abs_Q>  (35) 
0

>  <s_epik_Chemistry_Notes>  (35) 
This compound has an ester and may undergo hydrolysis at high or low pH.

>  <s_lp_Force_Field>  (35) 
OPLS3e

>  <r_lp_Energy>  (35) 
61.8692

>  <b_lp_Chiralities_Consistent>  (35) 
1

>  <s_lp_Variant>  (35) 
4:0-1

>  <s_i_glide_gridfile>  (35) 
pfpi4k_grid

>  <i_i_glide_lignum>  (35) 
13

>  <i_i_glide_rotatable_bonds>  (35) 
0

>  <r_i_docking_score>  (35) 
-3.50561

>  <r_i_glide_ligand_efficiency>  (35) 
-0.184506

>  <r_i_glide_ligand_efficiency_sa>  (35) 
-0.492335

>  <r_i_glide_ligand_efficiency_ln>  (35) 
-0.888746

>  <r_i_glide_gscore>  (35) 
-3.50561

>  <r_i_glide_lipo>  (35) 
-0.444253

>  <r_i_glide_hbond>  (35) 
-0.0242402

>  <r_i_glide_metal>  (35) 
-0

>  <r_i_glide_rewards>  (35) 
-1.84121

>  <r_i_glide_evdw>  (35) 
-20.5224

>  <r_i_glide_ecoul>  (35) 
-1.13187

>  <r_i_glide_erotb>  (35) 
0

>  <r_i_glide_esite>  (35) 
0

>  <r_i_glide_emodel>  (35) 
-26.3023

>  <r_i_glide_energy>  (35) 
-21.6543

>  <r_i_glide_einternal>  (35) 
0

>  <r_i_glide_intrahb_reward>  (35) 
-0

>  <i_i_glide_confnum>  (35) 
2

>  <i_i_glide_posenum>  (35) 
11

>  <r_i_glide_eff_state_penalty>  (35) 
0

>  <ligand_id>  (35) 
4

>  <original_smiles>  (35) 
CC1CC2CCC(C)C3CC4(C)OC(=O)CC23C4C1

>  <smiles>  (35) 
[H]C([H])([H])C1([H])C([H])([H])C2([H])C([H])([H])C([H])([H])C([H])(C([H])([H])[H])C3([H])C([H])([H])C4(C([H])([H])[H])OC(=O)C([H])([H])C23C4([H])C1([H])[H]

$$$$
4:0:2
     RDKit          3D

 45 48  0  0  1  0  0  0  0  0999 V2000
    2.5114   -4.3689    2.9574 C   0  0  0  0  0  0  0  0  0  0  0  0
    3.8332   -3.6380    2.6834 C   0  0  2  0  0  0  0  0  0  0  0  0
    3.6221   -2.1466    2.2774 C   0  0  0  0  0  0  0  0  0  0  0  0
    3.9198   -2.0024    0.7855 C   0  0  1  0  0  0  0  0  0  0  0  0
    3.4567   -0.7921    0.0262 C   0  0  0  0  0  0  0  0  0  0  0  0
    3.5243   -1.1172   -1.5227 C   0  0  0  0  0  0  0  0  0  0  0  0
    4.2051   -2.4037   -1.9418 C   0  0  1  0  0  0  0  0  0  0  0  0
    4.4316   -2.3612   -3.4720 C   0  0  0  0  0  0  0  0  0  0  0  0
    5.5021   -2.5314   -1.1212 C   0  0  2  0  0  0  0  0  0  0  0  0
    6.1933   -3.8547   -1.1792 C   0  0  0  0  0  0  0  0  0  0  0  0
    6.8875   -4.0465    0.1831 C   0  0  1  0  0  0  0  0  0  0  0  0
    7.4717   -5.4297    0.4906 C   0  0  0  0  0  0  0  0  0  0  0  0
    7.9848   -3.1447    0.2159 O   0  0  0  0  0  0  0  0  0  0  0  0
    7.8903   -1.8250    0.4267 C   0  0  0  0  0  0  0  0  0  0  0  0
    8.8280   -1.0611    0.4831 O   0  0  0  0  0  0  0  0  0  0  0  0
    6.4674   -1.2664    0.7715 C   0  0  0  0  0  0  0  0  0  0  0  0
    5.3783   -2.3046    0.4199 C   0  0  1  0  0  0  0  0  0  0  0  0
    5.8542   -3.5461    1.1886 C   0  0  1  0  0  0  0  0  0  0  0  0
    4.7027   -4.4397    1.6675 C   0  0  0  0  0  0  0  0  0  0  0  0
    1.9128   -4.4407    2.0479 H   0  0  0  0  0  0  0  0  0  0  0  0
    1.9198   -3.8600    3.7184 H   0  0  0  0  0  0  0  0  0  0  0  0
    2.7051   -5.3840    3.3112 H   0  0  0  0  0  0  0  0  0  0  0  0
    4.3705   -3.6186    3.6362 H   0  0  0  0  0  0  0  0  0  0  0  0
    2.5969   -1.8292    2.4761 H   0  0  0  0  0  0  0  0  0  0  0  0
    4.2913   -1.4993    2.8434 H   0  0  0  0  0  0  0  0  0  0  0  0
    3.2698   -2.7806    0.3748 H   0  0  0  0  0  0  0  0  0  0  0  0
    2.4854   -0.4646    0.3890 H   0  0  0  0  0  0  0  0  0  0  0  0
    4.1167    0.0563    0.2355 H   0  0  0  0  0  0  0  0  0  0  0  0
    2.5272   -1.1771   -1.9406 H   0  0  0  0  0  0  0  0  0  0  0  0
    3.9662   -0.2699   -2.0518 H   0  0  0  0  0  0  0  0  0  0  0  0
    3.5454   -3.2413   -1.7444 H   0  0  0  0  0  0  0  0  0  0  0  0
    5.0098   -1.4888   -3.7842 H   0  0  0  0  0  0  0  0  0  0  0  0
    3.4733   -2.2818   -3.9932 H   0  0  0  0  0  0  0  0  0  0  0  0
    4.9287   -3.2543   -3.8404 H   0  0  0  0  0  0  0  0  0  0  0  0
    6.1611   -1.7801   -1.5480 H   0  0  0  0  0  0  0  0  0  0  0  0
    5.4562   -4.6540   -1.3356 H   0  0  0  0  0  0  0  0  0  0  0  0
    6.8888   -3.8540   -2.0241 H   0  0  0  0  0  0  0  0  0  0  0  0
    6.7122   -6.2132    0.4526 H   0  0  0  0  0  0  0  0  0  0  0  0
    7.9305   -5.4521    1.4796 H   0  0  0  0  0  0  0  0  0  0  0  0
    8.2599   -5.6825   -0.2226 H   0  0  0  0  0  0  0  0  0  0  0  0
    6.4257   -1.0275    1.8384 H   0  0  0  0  0  0  0  0  0  0  0  0
    6.2992   -0.3264    0.2406 H   0  0  0  0  0  0  0  0  0  0  0  0
    6.3662   -3.2773    2.1128 H   0  0  0  0  0  0  0  0  0  0  0  0
    5.1046   -5.3244    2.1621 H   0  0  0  0  0  0  0  0  0  0  0  0
    4.1035   -4.7856    0.8260 H   0  0  0  0  0  0  0  0  0  0  0  0
  1  2  1  0
  1 20  1  0
  1 21  1  0
  1 22  1  0
  2 19  1  0
  2  3  1  0
  2 23  1  1
  3  4  1  0
  3 24  1  0
  3 25  1  0
  4 17  1  0
  4  5  1  0
  4 26  1  6
  5  6  1  0
  5 27  1  0
  5 28  1  0
  6  7  1  0
  6 29  1  0
  6 30  1  0
  7  8  1  0
  7  9  1  0
  7 31  1  6
  8 32  1  0
  8 33  1  0
  8 34  1  0
  9 17  1  0
  9 10  1  0
  9 35  1  6
 10 11  1  0
 10 36  1  0
 10 37  1  0
 11 18  1  0
 11 12  1  1
 11 13  1  0
 12 38  1  0
 12 39  1  0
 12 40  1  0
 13 14  1  0
 14 15  2  0
 14 16  1  0
 17 16  1  1
 16 41  1  0
 16 42  1  0
 17 18  1  0
 18 19  1  0
 18 43  1  1
 19 44  1  0
 19 45  1  0
M  END
>  <i_m_ct_stereo_status>  (36) 
1

>  <s_m_source_file>  (36) 
/var/tmp/pbs.5076255.sched01/tmp7dv9smms/08akalw19.sdf

>  <i_m_source_file_index>  (36) 
13

>  <i_lp_mmshare_version>  (36) 
48012

>  <i_f3d_flags>  (36) 
0

>  <s_epik_input>  (36) 
W0NAXTEyM1tDQEhdNFtDSDJdW0NAQEhdKFtDSDNdKVtDSDJdW0NASF0zW0NAXShbQ0gzXSkoT0MoPU8pW0NIMl0yKVtDSDJdW0NASF0xW0NASF0oW0NIM10pW0NIMl1bQ0gyXTQ=

>  <s_epik_cmdline>  (36) 
J2VwaWtfcHl0aG9uJywgJy1waHQnLCAnMi4wJywgJy1waCcsICc3LjAnLCAnLXRuJywgJzgnLCAnLW1hJywgJzIwMCcsICctaW1hZScsICc8aW5maWxlLm1hZT4nLCAnLW9tYWUnLCAnPG91dGZpbGUubWFlPic=

>  <r_lp_tautomer_probability>  (36) 
1

>  <r_epik_Ionization_Penalty>  (36) 
2.63757e-09

>  <r_epik_Ionization_Penalty_Charging>  (36) 
0

>  <r_epik_Ionization_Penalty_Neutral>  (36) 
2.63757e-09

>  <r_epik_State_Penalty>  (36) 
-0

>  <r_epik_Charging_Adjusted_Penalty>  (36) 
0

>  <i_epik_Tot_Q>  (36) 
0

>  <i_epik_Tot_abs_Q>  (36) 
0

>  <s_epik_Chemistry_Notes>  (36) 
This compound has an ester and may undergo hydrolysis at high or low pH.

>  <s_lp_Force_Field>  (36) 
OPLS3e

>  <r_lp_Energy>  (36) 
61.8692

>  <b_lp_Chiralities_Consistent>  (36) 
1

>  <s_lp_Variant>  (36) 
4:0-1

>  <s_i_glide_gridfile>  (36) 
pfpi4k_grid

>  <i_i_glide_lignum>  (36) 
13

>  <i_i_glide_rotatable_bonds>  (36) 
0

>  <r_i_docking_score>  (36) 
-2.9048

>  <r_i_glide_ligand_efficiency>  (36) 
-0.152884

>  <r_i_glide_ligand_efficiency_sa>  (36) 
-0.407957

>  <r_i_glide_ligand_efficiency_ln>  (36) 
-0.73643

>  <r_i_glide_gscore>  (36) 
-2.9048

>  <r_i_glide_lipo>  (36) 
-0.590286

>  <r_i_glide_hbond>  (36) 
-0.00109874

>  <r_i_glide_metal>  (36) 
-0

>  <r_i_glide_rewards>  (36) 
-1.63391

>  <r_i_glide_evdw>  (36) 
-13.8794

>  <r_i_glide_ecoul>  (36) 
0.0964401

>  <r_i_glide_erotb>  (36) 
0

>  <r_i_glide_esite>  (36) 
0

>  <r_i_glide_emodel>  (36) 
-17.5789

>  <r_i_glide_energy>  (36) 
-13.7829

>  <r_i_glide_einternal>  (36) 
0

>  <r_i_glide_intrahb_reward>  (36) 
-0

>  <i_i_glide_confnum>  (36) 
1

>  <i_i_glide_posenum>  (36) 
31

>  <r_i_glide_eff_state_penalty>  (36) 
0

>  <ligand_id>  (36) 
4

>  <original_smiles>  (36) 
CC1CC2CCC(C)C3CC4(C)OC(=O)CC23C4C1

>  <smiles>  (36) 
[H]C([H])([H])C1([H])C([H])([H])C2([H])C([H])([H])C([H])([H])C([H])(C([H])([H])[H])C3([H])C([H])([H])C4(C([H])([H])[H])OC(=O)C([H])([H])C23C4([H])C1([H])[H]

$$$$
5:0:0
     RDKit          3D

 54 58  0  0  1  0  0  0  0  0999 V2000
    0.8314   -5.4905    4.2403 C   0  0  0  0  0  0  0  0  0  0  0  0
    1.8607   -6.2825    3.4689 C   0  0  0  0  0  0  0  0  0  0  0  0
    1.5473   -7.2260    2.5663 C   0  0  0  0  0  0  0  0  0  0  0  0
    2.6855   -7.9492    1.8713 C   0  0  1  0  0  0  0  0  0  0  0  0
    3.7474   -6.9705    1.3434 C   0  0  1  0  0  0  0  0  0  0  0  0
    3.5240   -5.5615    0.8014 C   0  0  0  0  0  0  0  0  0  0  0  0
    2.4679   -5.1611    0.0837 C   0  0  0  0  0  0  0  0  0  0  0  0
    2.4416   -3.8533   -0.5501 C   0  0  0  0  0  0  0  0  0  0  0  0
    3.5323   -3.0619   -0.6041 C   0  0  0  0  0  0  0  0  0  0  0  0
    3.5813   -1.8790   -1.5553 C   0  0  0  0  0  0  0  0  0  0  0  0
    4.5251   -2.2662   -2.6873 C   0  0  0  0  0  0  0  0  0  0  0  0
    4.2230   -2.1052   -3.8725 O   0  0  0  0  0  0  0  0  0  0  0  0
    5.8883   -2.8364   -2.2708 C   0  0  0  0  0  0  0  0  0  0  0  0
    5.7903   -3.8672   -1.1128 C   0  0  0  0  0  0  0  0  0  0  0  0
    4.8693   -3.4398    0.0565 C   0  0  1  0  0  0  0  0  0  0  0  0
    5.4838   -2.2102    0.7812 C   0  0  0  0  0  0  0  0  0  0  0  0
    4.6653   -4.5813    1.1197 C   0  0  2  0  0  0  0  0  0  0  0  0
    5.9427   -5.3177    1.6583 C   0  0  0  0  0  0  0  0  0  0  0  0
    5.6834   -6.3780    2.7854 C   0  0  0  0  0  0  0  0  0  0  0  0
    4.2343   -6.8920    2.7950 C   0  0  1  0  0  0  0  0  0  0  0  0
    3.3442   -6.0260    3.7538 C   0  0  0  0  0  0  0  0  0  0  0  0
    3.8283   -8.4133    2.8544 C   0  0  0  0  0  0  0  0  0  0  0  0
    3.4114   -8.9900    4.2287 C   0  0  0  0  0  0  0  0  0  0  0  0
    4.8367   -9.4642    2.3361 C   0  0  0  0  0  0  0  0  0  0  0  0
    0.9583   -5.6355    5.3179 H   0  0  0  0  0  0  0  0  0  0  0  0
   -0.1741   -5.8173    3.9659 H   0  0  0  0  0  0  0  0  0  0  0  0
    0.9291   -4.4279    4.0078 H   0  0  0  0  0  0  0  0  0  0  0  0
    0.5349   -7.4969    2.3125 H   0  0  0  0  0  0  0  0  0  0  0  0
    2.3592   -8.7169    1.1681 H   0  0  0  0  0  0  0  0  0  0  0  0
    4.4416   -7.4735    0.6662 H   0  0  0  0  0  0  0  0  0  0  0  0
    1.6930   -5.8765   -0.1567 H   0  0  0  0  0  0  0  0  0  0  0  0
    1.5727   -3.5627   -1.1237 H   0  0  0  0  0  0  0  0  0  0  0  0
    2.5984   -1.6531   -1.9594 H   0  0  0  0  0  0  0  0  0  0  0  0
    3.9311   -0.9780   -1.0572 H   0  0  0  0  0  0  0  0  0  0  0  0
    6.3752   -3.2900   -3.1356 H   0  0  0  0  0  0  0  0  0  0  0  0
    6.5114   -1.9969   -1.9664 H   0  0  0  0  0  0  0  0  0  0  0  0
    5.3998   -4.7981   -1.5268 H   0  0  0  0  0  0  0  0  0  0  0  0
    6.7916   -4.0844   -0.7347 H   0  0  0  0  0  0  0  0  0  0  0  0
    6.4140   -2.4695    1.2838 H   0  0  0  0  0  0  0  0  0  0  0  0
    4.8014   -1.8142    1.5350 H   0  0  0  0  0  0  0  0  0  0  0  0
    5.7198   -1.3920    0.1062 H   0  0  0  0  0  0  0  0  0  0  0  0
    4.2796   -4.0414    1.9797 H   0  0  0  0  0  0  0  0  0  0  0  0
    6.4025   -5.8306    0.8154 H   0  0  0  0  0  0  0  0  0  0  0  0
    6.6818   -4.6021    2.0142 H   0  0  0  0  0  0  0  0  0  0  0  0
    6.3627   -7.2088    2.6007 H   0  0  0  0  0  0  0  0  0  0  0  0
    5.9695   -5.9908    3.7625 H   0  0  0  0  0  0  0  0  0  0  0  0
    3.5483   -4.9622    3.6814 H   0  0  0  0  0  0  0  0  0  0  0  0
    3.5626   -6.2932    4.7881 H   0  0  0  0  0  0  0  0  0  0  0  0
    4.2536   -8.9787    4.9234 H   0  0  0  0  0  0  0  0  0  0  0  0
    3.0608  -10.0231    4.1509 H   0  0  0  0  0  0  0  0  0  0  0  0
    2.6028   -8.4376    4.7096 H   0  0  0  0  0  0  0  0  0  0  0  0
    5.6525   -9.5865    3.0487 H   0  0  0  0  0  0  0  0  0  0  0  0
    5.2957   -9.2281    1.3761 H   0  0  0  0  0  0  0  0  0  0  0  0
    4.3655  -10.4438    2.2245 H   0  0  0  0  0  0  0  0  0  0  0  0
  1  2  1  0
  1 25  1  0
  1 26  1  0
  1 27  1  0
  2 21  1  0
  2  3  2  0
  3  4  1  0
  3 28  1  0
  4 22  1  0
  4  5  1  0
  4 29  1  6
  5 20  1  0
  5  6  1  0
  5 30  1  6
  6 17  1  0
  6  7  2  0
  7  8  1  0
  7 31  1  0
  8  9  2  0
  8 32  1  0
  9 15  1  0
  9 10  1  0
 10 11  1  0
 10 33  1  0
 10 34  1  0
 11 12  2  0
 11 13  1  0
 13 14  1  0
 13 35  1  0
 13 36  1  0
 14 15  1  0
 14 37  1  0
 14 38  1  0
 15 16  1  1
 15 17  1  0
 16 39  1  0
 16 40  1  0
 16 41  1  0
 17 18  1  0
 17 42  1  1
 18 19  1  0
 18 43  1  0
 18 44  1  0
 20 19  1  6
 19 45  1  0
 19 46  1  0
 20 21  1  0
 20 22  1  0
 21 47  1  0
 21 48  1  0
 22 23  1  0
 22 24  1  0
 23 49  1  0
 23 50  1  0
 23 51  1  0
 24 52  1  0
 24 53  1  0
 24 54  1  0
M  END
>  <i_m_ct_stereo_status>  (37) 
1

>  <s_m_source_file>  (37) 
/var/tmp/pbs.5076255.sched01/tmp7dv9smms/08akalw19.sdf

>  <i_m_source_file_index>  (37) 
14

>  <i_lp_mmshare_version>  (37) 
48012

>  <i_f3d_flags>  (37) 
0

>  <s_epik_input>  (37) 
W0NIM11DKFtDSDJdMSk9W0NIXVtDQEhdKEMyKFtDSDNdKVtDSDNdKVtDQEhdKFtDQEBdMTIzKUM9NFtDQEBIXShbQ0gyXVtDSDJdMylbQ0BdNShbQ0gzXSlDKD1bQ0hdW0NIXTQpW0NIMl1DKD1PKVtDSDJdW0NIMl01

>  <s_epik_cmdline>  (37) 
J2VwaWtfcHl0aG9uJywgJy1waHQnLCAnMi4wJywgJy1waCcsICc3LjAnLCAnLXRuJywgJzgnLCAnLW1hJywgJzIwMCcsICctaW1hZScsICc8aW5maWxlLm1hZT4nLCAnLW9tYWUnLCAnPG91dGZpbGUubWFlPic=

>  <r_lp_tautomer_probability>  (37) 
1

>  <r_epik_Ionization_Penalty>  (37) 
5.84119e-13

>  <r_epik_Ionization_Penalty_Charging>  (37) 
0

>  <r_epik_Ionization_Penalty_Neutral>  (37) 
5.84119e-13

>  <r_epik_State_Penalty>  (37) 
-0

>  <r_epik_Charging_Adjusted_Penalty>  (37) 
0

>  <i_epik_Tot_Q>  (37) 
0

>  <i_epik_Tot_abs_Q>  (37) 
0

>  <s_lp_Force_Field>  (37) 
OPLS3e

>  <r_lp_Energy>  (37) 
91.0124

>  <b_lp_Chiralities_Consistent>  (37) 
1

>  <s_lp_Variant>  (37) 
5:0-1

>  <s_i_glide_gridfile>  (37) 
pfpi4k_grid

>  <i_i_glide_lignum>  (37) 
14

>  <i_i_glide_rotatable_bonds>  (37) 
0

>  <r_i_docking_score>  (37) 
-3.20807

>  <r_i_glide_ligand_efficiency>  (37) 
-0.13367

>  <r_i_glide_ligand_efficiency_sa>  (37) 
-0.38557

>  <r_i_glide_ligand_efficiency_ln>  (37) 
-0.767838

>  <r_i_glide_gscore>  (37) 
-3.20807

>  <r_i_glide_lipo>  (37) 
-0.414736

>  <r_i_glide_hbond>  (37) 
-0.116208

>  <r_i_glide_metal>  (37) 
-0

>  <r_i_glide_rewards>  (37) 
-1.36913

>  <r_i_glide_evdw>  (37) 
-22.2437

>  <r_i_glide_ecoul>  (37) 
-1.30539

>  <r_i_glide_erotb>  (37) 
0

>  <r_i_glide_esite>  (37) 
0

>  <r_i_glide_emodel>  (37) 
-28.2186

>  <r_i_glide_energy>  (37) 
-23.5491

>  <r_i_glide_einternal>  (37) 
0

>  <r_i_glide_intrahb_reward>  (37) 
-0

>  <i_i_glide_confnum>  (37) 
2

>  <i_i_glide_posenum>  (37) 
27

>  <r_i_glide_eff_state_penalty>  (37) 
0

>  <ligand_id>  (37) 
5

>  <original_smiles>  (37) 
CC1=CC2C3C4=CC=C5CC(=O)CCC5(C)C4CCC3(C1)C2(C)C

>  <smiles>  (37) 
[H]C1=C2C([H])(C([H])([H])C([H])([H])C34C([H])([H])C(C([H])([H])[H])=C([H])C([H])(C23[H])C4(C([H])([H])[H])C([H])([H])[H])C2(C([H])([H])[H])C(=C1[H])C([H])([H])C(=O)C([H])([H])C2([H])[H]

$$$$
5:0:1
     RDKit          3D

 54 58  0  0  1  0  0  0  0  0999 V2000
    6.7727   -5.0083    1.7411 C   0  0  0  0  0  0  0  0  0  0  0  0
    5.8628   -4.1742    0.8742 C   0  0  0  0  0  0  0  0  0  0  0  0
    4.9226   -4.6993    0.0703 C   0  0  0  0  0  0  0  0  0  0  0  0
    4.0758   -3.7455   -0.7503 C   0  0  1  0  0  0  0  0  0  0  0  0
    3.5320   -2.5878    0.0977 C   0  0  1  0  0  0  0  0  0  0  0  0
    3.1023   -2.6354    1.5622 C   0  0  0  0  0  0  0  0  0  0  0  0
    2.5039   -3.6666    2.1734 C   0  0  0  0  0  0  0  0  0  0  0  0
    1.9914   -3.5411    3.5264 C   0  0  0  0  0  0  0  0  0  0  0  0
    1.8931   -2.3410    4.1431 C   0  0  0  0  0  0  0  0  0  0  0  0
    1.0347   -2.1810    5.3874 C   0  0  0  0  0  0  0  0  0  0  0  0
   -0.1969   -1.3810    4.9715 C   0  0  0  0  0  0  0  0  0  0  0  0
   -1.3326   -1.7203    5.3098 O   0  0  0  0  0  0  0  0  0  0  0  0
    0.0513   -0.1037    4.1581 C   0  0  0  0  0  0  0  0  0  0  0  0
    1.1246   -0.2789    3.0481 C   0  0  0  0  0  0  0  0  0  0  0  0
    2.3995   -1.0332    3.5121 C   0  0  1  0  0  0  0  0  0  0  0  0
    3.1600   -0.1794    4.5686 C   0  0  0  0  0  0  0  0  0  0  0  0
    3.3937   -1.3327    2.3291 C   0  0  2  0  0  0  0  0  0  0  0  0
    3.7614   -0.1516    1.3708 C   0  0  0  0  0  0  0  0  0  0  0  0
    4.8356   -0.4834    0.2754 C   0  0  0  0  0  0  0  0  0  0  0  0
    4.9364   -1.9865   -0.0196 C   0  0  1  0  0  0  0  0  0  0  0  0
    6.0327   -2.6528    0.8828 C   0  0  0  0  0  0  0  0  0  0  0  0
    4.9211   -2.6164   -1.4654 C   0  0  0  0  0  0  0  0  0  0  0  0
    6.2761   -3.0192   -2.0912 C   0  0  0  0  0  0  0  0  0  0  0  0
    4.2364   -1.8242   -2.6046 C   0  0  0  0  0  0  0  0  0  0  0  0
    7.8246   -4.8278    1.4932 H   0  0  0  0  0  0  0  0  0  0  0  0
    6.5589   -6.0706    1.5979 H   0  0  0  0  0  0  0  0  0  0  0  0
    6.6046   -4.7649    2.7922 H   0  0  0  0  0  0  0  0  0  0  0  0
    4.7370   -5.7574   -0.0174 H   0  0  0  0  0  0  0  0  0  0  0  0
    3.3422   -4.2358   -1.3883 H   0  0  0  0  0  0  0  0  0  0  0  0
    2.7630   -2.0359   -0.4400 H   0  0  0  0  0  0  0  0  0  0  0  0
    2.3081   -4.5713    1.6142 H   0  0  0  0  0  0  0  0  0  0  0  0
    1.5432   -4.4071    3.9959 H   0  0  0  0  0  0  0  0  0  0  0  0
    0.7410   -3.1491    5.7874 H   0  0  0  0  0  0  0  0  0  0  0  0
    1.5696   -1.6566    6.1752 H   0  0  0  0  0  0  0  0  0  0  0  0
   -0.8867    0.2357    3.7160 H   0  0  0  0  0  0  0  0  0  0  0  0
    0.3603    0.6708    4.8605 H   0  0  0  0  0  0  0  0  0  0  0  0
    0.6766   -0.8314    2.2218 H   0  0  0  0  0  0  0  0  0  0  0  0
    1.3821    0.7048    2.6477 H   0  0  0  0  0  0  0  0  0  0  0  0
    3.5590    0.7351    4.1318 H   0  0  0  0  0  0  0  0  0  0  0  0
    3.9994   -0.7292    4.9981 H   0  0  0  0  0  0  0  0  0  0  0  0
    2.5297    0.1342    5.3977 H   0  0  0  0  0  0  0  0  0  0  0  0
    4.3220   -1.5611    2.8475 H   0  0  0  0  0  0  0  0  0  0  0  0
    2.8482    0.1566    0.8637 H   0  0  0  0  0  0  0  0  0  0  0  0
    4.0931    0.7155    1.9370 H   0  0  0  0  0  0  0  0  0  0  0  0
    4.5293    0.0322   -0.6305 H   0  0  0  0  0  0  0  0  0  0  0  0
    5.8066   -0.0604    0.5308 H   0  0  0  0  0  0  0  0  0  0  0  0
    6.0177   -2.2943    1.9079 H   0  0  0  0  0  0  0  0  0  0  0  0
    7.0234   -2.3998    0.5038 H   0  0  0  0  0  0  0  0  0  0  0  0
    6.9002   -2.1445   -2.2685 H   0  0  0  0  0  0  0  0  0  0  0  0
    6.1500   -3.5330   -3.0477 H   0  0  0  0  0  0  0  0  0  0  0  0
    6.8619   -3.6887   -1.4607 H   0  0  0  0  0  0  0  0  0  0  0  0
    4.8593   -0.9820   -2.9074 H   0  0  0  0  0  0  0  0  0  0  0  0
    3.2587   -1.4099   -2.3548 H   0  0  0  0  0  0  0  0  0  0  0  0
    4.0950   -2.4508   -3.4874 H   0  0  0  0  0  0  0  0  0  0  0  0
  1  2  1  0
  1 25  1  0
  1 26  1  0
  1 27  1  0
  2 21  1  0
  2  3  2  0
  3  4  1  0
  3 28  1  0
  4 22  1  0
  4  5  1  0
  4 29  1  6
  5 20  1  0
  5  6  1  0
  5 30  1  6
  6 17  1  0
  6  7  2  0
  7  8  1  0
  7 31  1  0
  8  9  2  0
  8 32  1  0
  9 15  1  0
  9 10  1  0
 10 11  1  0
 10 33  1  0
 10 34  1  0
 11 12  2  0
 11 13  1  0
 13 14  1  0
 13 35  1  0
 13 36  1  0
 14 15  1  0
 14 37  1  0
 14 38  1  0
 15 16  1  1
 15 17  1  0
 16 39  1  0
 16 40  1  0
 16 41  1  0
 17 18  1  0
 17 42  1  1
 18 19  1  0
 18 43  1  0
 18 44  1  0
 20 19  1  6
 19 45  1  0
 19 46  1  0
 20 21  1  0
 20 22  1  0
 21 47  1  0
 21 48  1  0
 22 23  1  0
 22 24  1  0
 23 49  1  0
 23 50  1  0
 23 51  1  0
 24 52  1  0
 24 53  1  0
 24 54  1  0
M  END
>  <i_m_ct_stereo_status>  (38) 
1

>  <s_m_source_file>  (38) 
/var/tmp/pbs.5076255.sched01/tmp7dv9smms/08akalw19.sdf

>  <i_m_source_file_index>  (38) 
14

>  <i_lp_mmshare_version>  (38) 
48012

>  <i_f3d_flags>  (38) 
0

>  <s_epik_input>  (38) 
W0NIM11DKFtDSDJdMSk9W0NIXVtDQEhdKEMyKFtDSDNdKVtDSDNdKVtDQEhdKFtDQEBdMTIzKUM9NFtDQEBIXShbQ0gyXVtDSDJdMylbQ0BdNShbQ0gzXSlDKD1bQ0hdW0NIXTQpW0NIMl1DKD1PKVtDSDJdW0NIMl01

>  <s_epik_cmdline>  (38) 
J2VwaWtfcHl0aG9uJywgJy1waHQnLCAnMi4wJywgJy1waCcsICc3LjAnLCAnLXRuJywgJzgnLCAnLW1hJywgJzIwMCcsICctaW1hZScsICc8aW5maWxlLm1hZT4nLCAnLW9tYWUnLCAnPG91dGZpbGUubWFlPic=

>  <r_lp_tautomer_probability>  (38) 
1

>  <r_epik_Ionization_Penalty>  (38) 
5.84119e-13

>  <r_epik_Ionization_Penalty_Charging>  (38) 
0

>  <r_epik_Ionization_Penalty_Neutral>  (38) 
5.84119e-13

>  <r_epik_State_Penalty>  (38) 
-0

>  <r_epik_Charging_Adjusted_Penalty>  (38) 
0

>  <i_epik_Tot_Q>  (38) 
0

>  <i_epik_Tot_abs_Q>  (38) 
0

>  <s_lp_Force_Field>  (38) 
OPLS3e

>  <r_lp_Energy>  (38) 
91.0124

>  <b_lp_Chiralities_Consistent>  (38) 
1

>  <s_lp_Variant>  (38) 
5:0-1

>  <s_i_glide_gridfile>  (38) 
pfpi4k_grid

>  <i_i_glide_lignum>  (38) 
14

>  <i_i_glide_rotatable_bonds>  (38) 
0

>  <r_i_docking_score>  (38) 
-3.04079

>  <r_i_glide_ligand_efficiency>  (38) 
-0.1267

>  <r_i_glide_ligand_efficiency_sa>  (38) 
-0.365465

>  <r_i_glide_ligand_efficiency_ln>  (38) 
-0.727801

>  <r_i_glide_gscore>  (38) 
-3.04079

>  <r_i_glide_lipo>  (38) 
-0.526083

>  <r_i_glide_hbond>  (38) 
0

>  <r_i_glide_metal>  (38) 
-0

>  <r_i_glide_rewards>  (38) 
-1.21034

>  <r_i_glide_evdw>  (38) 
-21.4279

>  <r_i_glide_ecoul>  (38) 
-1.42994

>  <r_i_glide_erotb>  (38) 
0

>  <r_i_glide_esite>  (38) 
-0.0184803

>  <r_i_glide_emodel>  (38) 
-27.2822

>  <r_i_glide_energy>  (38) 
-22.8579

>  <r_i_glide_einternal>  (38) 
0

>  <r_i_glide_intrahb_reward>  (38) 
-0

>  <i_i_glide_confnum>  (38) 
2

>  <i_i_glide_posenum>  (38) 
17

>  <r_i_glide_eff_state_penalty>  (38) 
0

>  <ligand_id>  (38) 
5

>  <original_smiles>  (38) 
CC1=CC2C3C4=CC=C5CC(=O)CCC5(C)C4CCC3(C1)C2(C)C

>  <smiles>  (38) 
[H]C1=C2C([H])(C([H])([H])C([H])([H])C34C([H])([H])C(C([H])([H])[H])=C([H])C([H])(C23[H])C4(C([H])([H])[H])C([H])([H])[H])C2(C([H])([H])[H])C(=C1[H])C([H])([H])C(=O)C([H])([H])C2([H])[H]

$$$$
5:0:2
     RDKit          3D

 54 58  0  0  1  0  0  0  0  0999 V2000
    3.3995   -4.1689    5.6618 C   0  0  0  0  0  0  0  0  0  0  0  0
    2.9187   -4.9696    4.4757 C   0  0  0  0  0  0  0  0  0  0  0  0
    1.6535   -4.9468    4.0311 C   0  0  0  0  0  0  0  0  0  0  0  0
    1.3073   -5.8059    2.8287 C   0  0  1  0  0  0  0  0  0  0  0  0
    2.3239   -5.6340    1.6889 C   0  0  1  0  0  0  0  0  0  0  0  0
    3.0817   -4.3632    1.3032 C   0  0  0  0  0  0  0  0  0  0  0  0
    2.6131   -3.1090    1.3792 C   0  0  0  0  0  0  0  0  0  0  0  0
    3.3516   -1.9916    0.8282 C   0  0  0  0  0  0  0  0  0  0  0  0
    4.4331   -2.1743    0.0452 C   0  0  0  0  0  0  0  0  0  0  0  0
    4.9567   -1.0365   -0.8124 C   0  0  0  0  0  0  0  0  0  0  0  0
    4.6148   -1.3783   -2.2599 C   0  0  0  0  0  0  0  0  0  0  0  0
    4.1369   -0.5477   -3.0298 O   0  0  0  0  0  0  0  0  0  0  0  0
    4.9671   -2.7887   -2.7410 C   0  0  0  0  0  0  0  0  0  0  0  0
    4.6027   -3.8847   -1.7078 C   0  0  0  0  0  0  0  0  0  0  0  0
    5.0283   -3.5608   -0.2519 C   0  0  1  0  0  0  0  0  0  0  0  0
    6.5783   -3.5140   -0.1512 C   0  0  0  0  0  0  0  0  0  0  0  0
    4.5036   -4.6270    0.7785 C   0  0  2  0  0  0  0  0  0  0  0  0
    4.7498   -6.1407    0.4588 C   0  0  0  0  0  0  0  0  0  0  0  0
    4.2904   -7.1506    1.5695 C   0  0  0  0  0  0  0  0  0  0  0  0
    3.2328   -6.5509    2.5123 C   0  0  1  0  0  0  0  0  0  0  0  0
    3.9175   -5.8819    3.7567 C   0  0  0  0  0  0  0  0  0  0  0  0
    1.8912   -7.2701    2.9186 C   0  0  0  0  0  0  0  0  0  0  0  0
    1.8443   -7.9880    4.2883 C   0  0  0  0  0  0  0  0  0  0  0  0
    1.3100   -8.3348    1.9586 C   0  0  0  0  0  0  0  0  0  0  0  0
    3.8080   -4.8256    6.4377 H   0  0  0  0  0  0  0  0  0  0  0  0
    2.5701   -3.6001    6.0912 H   0  0  0  0  0  0  0  0  0  0  0  0
    4.1723   -3.4644    5.3460 H   0  0  0  0  0  0  0  0  0  0  0  0
    0.8786   -4.3464    4.4809 H   0  0  0  0  0  0  0  0  0  0  0  0
    0.2593   -5.7675    2.5387 H   0  0  0  0  0  0  0  0  0  0  0  0
    1.9639   -6.0875    0.7653 H   0  0  0  0  0  0  0  0  0  0  0  0
    1.6184   -2.9278    1.7597 H   0  0  0  0  0  0  0  0  0  0  0  0
    2.9199   -1.0007    0.9092 H   0  0  0  0  0  0  0  0  0  0  0  0
    4.5029   -0.0913   -0.5216 H   0  0  0  0  0  0  0  0  0  0  0  0
    6.0300   -0.9264   -0.6965 H   0  0  0  0  0  0  0  0  0  0  0  0
    4.4538   -2.9841   -3.6840 H   0  0  0  0  0  0  0  0  0  0  0  0
    6.0357   -2.8018   -2.9562 H   0  0  0  0  0  0  0  0  0  0  0  0
    3.5193   -4.0054   -1.7233 H   0  0  0  0  0  0  0  0  0  0  0  0
    5.0189   -4.8380   -2.0390 H   0  0  0  0  0  0  0  0  0  0  0  0
    7.0158   -4.4962   -0.3142 H   0  0  0  0  0  0  0  0  0  0  0  0
    6.9014   -3.1702    0.8339 H   0  0  0  0  0  0  0  0  0  0  0  0
    7.0328   -2.8550   -0.8856 H   0  0  0  0  0  0  0  0  0  0  0  0
    5.1174   -4.4330    1.6551 H   0  0  0  0  0  0  0  0  0  0  0  0
    4.2077   -6.3765   -0.4547 H   0  0  0  0  0  0  0  0  0  0  0  0
    5.8002   -6.3183    0.2349 H   0  0  0  0  0  0  0  0  0  0  0  0
    3.8728   -8.0181    1.0596 H   0  0  0  0  0  0  0  0  0  0  0  0
    5.1423   -7.5358    2.1282 H   0  0  0  0  0  0  0  0  0  0  0  0
    4.8058   -5.3132    3.5004 H   0  0  0  0  0  0  0  0  0  0  0  0
    4.2560   -6.6563    4.4457 H   0  0  0  0  0  0  0  0  0  0  0  0
    2.5372   -8.8316    4.3044 H   0  0  0  0  0  0  0  0  0  0  0  0
    0.8485   -8.3764    4.5176 H   0  0  0  0  0  0  0  0  0  0  0  0
    2.1155   -7.3477    5.1290 H   0  0  0  0  0  0  0  0  0  0  0  0
    1.8957   -9.2530    2.0136 H   0  0  0  0  0  0  0  0  0  0  0  0
    1.2923   -8.0456    0.9086 H   0  0  0  0  0  0  0  0  0  0  0  0
    0.2866   -8.6014    2.2312 H   0  0  0  0  0  0  0  0  0  0  0  0
  1  2  1  0
  1 25  1  0
  1 26  1  0
  1 27  1  0
  2 21  1  0
  2  3  2  0
  3  4  1  0
  3 28  1  0
  4 22  1  0
  4  5  1  0
  4 29  1  6
  5 20  1  0
  5  6  1  0
  5 30  1  6
  6 17  1  0
  6  7  2  0
  7  8  1  0
  7 31  1  0
  8  9  2  0
  8 32  1  0
  9 15  1  0
  9 10  1  0
 10 11  1  0
 10 33  1  0
 10 34  1  0
 11 12  2  0
 11 13  1  0
 13 14  1  0
 13 35  1  0
 13 36  1  0
 14 15  1  0
 14 37  1  0
 14 38  1  0
 15 16  1  6
 15 17  1  0
 16 39  1  0
 16 40  1  0
 16 41  1  0
 17 18  1  0
 17 42  1  1
 18 19  1  0
 18 43  1  0
 18 44  1  0
 20 19  1  6
 19 45  1  0
 19 46  1  0
 20 21  1  0
 20 22  1  0
 21 47  1  0
 21 48  1  0
 22 23  1  0
 22 24  1  0
 23 49  1  0
 23 50  1  0
 23 51  1  0
 24 52  1  0
 24 53  1  0
 24 54  1  0
M  END
>  <i_m_ct_stereo_status>  (39) 
1

>  <s_m_source_file>  (39) 
/var/tmp/pbs.5076255.sched01/tmp7dv9smms/08akalw19.sdf

>  <i_m_source_file_index>  (39) 
14

>  <i_lp_mmshare_version>  (39) 
48012

>  <i_f3d_flags>  (39) 
0

>  <s_epik_input>  (39) 
W0NIM11DKFtDSDJdMSk9W0NIXVtDQEhdKEMyKFtDSDNdKVtDSDNdKVtDQEhdKFtDQEBdMTIzKUM9NFtDQEBIXShbQ0gyXVtDSDJdMylbQ0BdNShbQ0gzXSlDKD1bQ0hdW0NIXTQpW0NIMl1DKD1PKVtDSDJdW0NIMl01

>  <s_epik_cmdline>  (39) 
J2VwaWtfcHl0aG9uJywgJy1waHQnLCAnMi4wJywgJy1waCcsICc3LjAnLCAnLXRuJywgJzgnLCAnLW1hJywgJzIwMCcsICctaW1hZScsICc8aW5maWxlLm1hZT4nLCAnLW9tYWUnLCAnPG91dGZpbGUubWFlPic=

>  <r_lp_tautomer_probability>  (39) 
1

>  <r_epik_Ionization_Penalty>  (39) 
5.84119e-13

>  <r_epik_Ionization_Penalty_Charging>  (39) 
0

>  <r_epik_Ionization_Penalty_Neutral>  (39) 
5.84119e-13

>  <r_epik_State_Penalty>  (39) 
-0

>  <r_epik_Charging_Adjusted_Penalty>  (39) 
0

>  <i_epik_Tot_Q>  (39) 
0

>  <i_epik_Tot_abs_Q>  (39) 
0

>  <s_lp_Force_Field>  (39) 
OPLS3e

>  <r_lp_Energy>  (39) 
91.0124

>  <b_lp_Chiralities_Consistent>  (39) 
1

>  <s_lp_Variant>  (39) 
5:0-1

>  <s_i_glide_gridfile>  (39) 
pfpi4k_grid

>  <i_i_glide_lignum>  (39) 
14

>  <i_i_glide_rotatable_bonds>  (39) 
0

>  <r_i_docking_score>  (39) 
-2.99852

>  <r_i_glide_ligand_efficiency>  (39) 
-0.124938

>  <r_i_glide_ligand_efficiency_sa>  (39) 
-0.360384

>  <r_i_glide_ligand_efficiency_ln>  (39) 
-0.717683

>  <r_i_glide_gscore>  (39) 
-2.99852

>  <r_i_glide_lipo>  (39) 
-0.554916

>  <r_i_glide_hbond>  (39) 
0

>  <r_i_glide_metal>  (39) 
-0

>  <r_i_glide_rewards>  (39) 
-1.21034

>  <r_i_glide_evdw>  (39) 
-22.1171

>  <r_i_glide_ecoul>  (39) 
-0.565086

>  <r_i_glide_erotb>  (39) 
0

>  <r_i_glide_esite>  (39) 
-0.0426468

>  <r_i_glide_emodel>  (39) 
-27.0236

>  <r_i_glide_energy>  (39) 
-22.6822

>  <r_i_glide_einternal>  (39) 
0

>  <r_i_glide_intrahb_reward>  (39) 
-0

>  <i_i_glide_confnum>  (39) 
2

>  <i_i_glide_posenum>  (39) 
30

>  <r_i_glide_eff_state_penalty>  (39) 
0

>  <ligand_id>  (39) 
5

>  <original_smiles>  (39) 
CC1=CC2C3C4=CC=C5CC(=O)CCC5(C)C4CCC3(C1)C2(C)C

>  <smiles>  (39) 
[H]C1=C2C([H])(C([H])([H])C([H])([H])C34C([H])([H])C(C([H])([H])[H])=C([H])C([H])(C23[H])C4(C([H])([H])[H])C([H])([H])[H])C2(C([H])([H])[H])C(=C1[H])C([H])([H])C(=O)C([H])([H])C2([H])[H]

$$$$
6:0:0
     RDKit          3D

 31 34  0  0  1  0  0  0  0  0999 V2000
    4.6274   -5.4733    0.3902 C   0  0  0  0  0  0  0  0  0  0  0  0
    5.1870   -4.5471   -0.6856 C   0  0  0  0  0  0  0  0  0  0  0  0
    4.1225   -3.4784   -0.8983 C   0  0  1  0  0  0  0  0  0  0  0  0
    3.6828   -3.4289   -2.3364 N   0  0  1  0  0  0  0  0  0  0  0  0
    2.4229   -2.6879   -2.5734 C   0  0  0  0  0  0  0  0  0  0  0  0
    2.8538   -1.3088   -3.0078 C   0  0  1  0  0  0  0  0  0  0  0  0
    4.2399   -1.3826   -3.4589 C   0  0  1  0  0  0  0  0  0  0  0  0
    4.6894   -2.8141   -3.2503 C   0  0  0  0  0  0  0  0  0  0  0  0
    3.1392   -1.0631   -4.4712 C   0  0  0  0  0  0  0  0  0  0  0  0
    3.6346    0.0864   -5.3324 C   0  0  0  0  0  0  0  0  0  0  0  0
    2.2628    0.1357   -4.8840 C   0  0  0  0  0  0  0  0  0  0  0  0
    3.0203   -3.9179    0.0800 C   0  0  0  0  0  0  0  0  0  0  0  0
    3.6946   -4.6556    1.0751 O   0  0  0  0  0  0  0  0  0  0  0  0
    5.3981   -5.8541    1.0632 H   0  0  0  0  0  0  0  0  0  0  0  0
    4.1133   -6.3275   -0.0680 H   0  0  0  0  0  0  0  0  0  0  0  0
    6.1175   -4.0853   -0.3567 H   0  0  0  0  0  0  0  0  0  0  0  0
    5.3543   -5.1101   -1.5945 H   0  0  0  0  0  0  0  0  0  0  0  0
    4.5140   -2.5119   -0.5797 H   0  0  0  0  0  0  0  0  0  0  0  0
    1.8626   -3.1307   -3.3990 H   0  0  0  0  0  0  0  0  0  0  0  0
    1.7646   -2.6691   -1.7092 H   0  0  0  0  0  0  0  0  0  0  0  0
    2.6155   -0.4712   -2.3747 H   0  0  0  0  0  0  0  0  0  0  0  0
    4.8529   -0.5902   -3.0639 H   0  0  0  0  0  0  0  0  0  0  0  0
    5.7290   -2.8598   -2.9031 H   0  0  0  0  0  0  0  0  0  0  0  0
    4.6212   -3.3099   -4.2273 H   0  0  0  0  0  0  0  0  0  0  0  0
    4.2808    0.8262   -4.8709 H   0  0  0  0  0  0  0  0  0  0  0  0
    3.8073   -0.1628   -6.3832 H   0  0  0  0  0  0  0  0  0  0  0  0
    1.4246   -0.1837   -5.5104 H   0  0  0  0  0  0  0  0  0  0  0  0
    2.0552    0.9264   -4.2194 H   0  0  0  0  0  0  0  0  0  0  0  0
    2.4859   -3.0709    0.5128 H   0  0  0  0  0  0  0  0  0  0  0  0
    2.3048   -4.5809   -0.4115 H   0  0  0  0  0  0  0  0  0  0  0  0
    3.4995   -4.3897   -2.6157 H   0  0  0  0  0  0  0  0  0  0  0  0
  1 13  1  0
  1  2  1  0
  1 14  1  0
  1 15  1  0
  2  3  1  0
  2 16  1  0
  2 17  1  0
  3  4  1  0
  3 12  1  0
  3 18  1  1
  4  8  1  0
  4  5  1  0
  4 31  1  6
  5  6  1  0
  5 19  1  0
  5 20  1  0
  6  9  1  0
  6  7  1  0
  6 21  1  1
  7  8  1  0
  7  9  1  0
  7 22  1  1
  8 23  1  0
  8 24  1  0
  9 11  1  0
  9 10  1  0
 10 11  1  0
 10 25  1  0
 10 26  1  0
 11 27  1  0
 11 28  1  0
 12 13  1  0
 12 29  1  0
 12 30  1  0
M  CHG  1   4   1
M  END
>  <i_m_ct_stereo_status>  (40) 
1

>  <s_m_source_file>  (40) 
/var/tmp/pbs.5076255.sched01/tmp7dv9smms/08akalw19.sdf

>  <i_m_source_file_index>  (40) 
15

>  <i_lp_mmshare_version>  (40) 
48012

>  <i_f3d_flags>  (40) 
0

>  <s_epik_input>  (40) 
W0NIMl0xT1tDSDJdW0NIMl1bQ0BIXTFOKFtDSDJdMilbQ0gyXVtDQEBIXTNbQ0BIXTJDMzRbQ0gyXVtDSDJdNA==

>  <s_epik_cmdline>  (40) 
J2VwaWtfcHl0aG9uJywgJy1waHQnLCAnMi4wJywgJy1waCcsICc3LjAnLCAnLXRuJywgJzgnLCAnLW1hJywgJzIwMCcsICctaW1hZScsICc8aW5maWxlLm1hZT4nLCAnLW9tYWUnLCAnPG91dGZpbGUubWFlPic=

>  <r_epik_Ionization_Penalty>  (40) 
0.00284618

>  <r_epik_Ionization_Penalty_Charging>  (40) 
0.00284618

>  <r_epik_Ionization_Penalty_Neutral>  (40) 
3.2758e-14

>  <r_epik_State_Penalty>  (40) 
0.00199125

>  <r_epik_Charging_Adjusted_Penalty>  (40) 
0.00483742

>  <i_epik_Tot_Q>  (40) 
1

>  <i_epik_Tot_abs_Q>  (40) 
1

>  <s_lp_Force_Field>  (40) 
OPLS3e

>  <r_lp_Energy>  (40) 
28.7021

>  <b_lp_Chiralities_Consistent>  (40) 
1

>  <s_lp_Variant>  (40) 
6:0-1

>  <s_i_glide_gridfile>  (40) 
pfpi4k_grid

>  <i_i_glide_lignum>  (40) 
15

>  <i_i_glide_rotatable_bonds>  (40) 
1

>  <r_i_docking_score>  (40) 
-3.74444

>  <r_i_glide_ligand_efficiency>  (40) 
-0.288034

>  <r_i_glide_ligand_efficiency_sa>  (40) 
-0.677265

>  <r_i_glide_ligand_efficiency_ln>  (40) 
-1.05035

>  <r_i_glide_gscore>  (40) 
-3.74444

>  <r_i_glide_lipo>  (40) 
-0.500048

>  <r_i_glide_hbond>  (40) 
0

>  <r_i_glide_metal>  (40) 
-0

>  <r_i_glide_rewards>  (40) 
-2.18

>  <r_i_glide_evdw>  (40) 
-13.1944

>  <r_i_glide_ecoul>  (40) 
-5.7355

>  <r_i_glide_erotb>  (40) 
0.48493

>  <r_i_glide_esite>  (40) 
-0.0292838

>  <r_i_glide_emodel>  (40) 
-23.2179

>  <r_i_glide_energy>  (40) 
-18.9299

>  <r_i_glide_einternal>  (40) 
0.749623

>  <r_i_glide_intrahb_reward>  (40) 
-0

>  <i_i_glide_confnum>  (40) 
1

>  <i_i_glide_posenum>  (40) 
6

>  <r_i_glide_eff_state_penalty>  (40) 
0

>  <ligand_id>  (40) 
6

>  <original_smiles>  (40) 
C1CC(N2CC3C(C2)C32CC2)CO1

>  <smiles>  (40) 
[H]C1([H])OC([H])([H])C([H])([N+]2([H])C([H])([H])C3([H])C([H])(C34C([H])([H])C4([H])[H])C2([H])[H])C1([H])[H]

$$$$
6:0:1
     RDKit          3D

 31 34  0  0  1  0  0  0  0  0999 V2000
    3.1007   -3.3509    1.0460 C   0  0  0  0  0  0  0  0  0  0  0  0
    3.4678   -4.3216   -0.0722 C   0  0  0  0  0  0  0  0  0  0  0  0
    4.3837   -3.4851   -0.9706 C   0  0  1  0  0  0  0  0  0  0  0  0
    3.9117   -3.4143   -2.3932 N   0  0  1  0  0  0  0  0  0  0  0  0
    2.5931   -2.7562   -2.5827 C   0  0  0  0  0  0  0  0  0  0  0  0
    2.9414   -1.3312   -2.9875 C   0  0  1  0  0  0  0  0  0  0  0  0
    4.3146   -1.3061   -3.4498 C   0  0  1  0  0  0  0  0  0  0  0  0
    4.8500   -2.7321   -3.3185 C   0  0  0  0  0  0  0  0  0  0  0  0
    3.1834   -1.0062   -4.4470 C   0  0  0  0  0  0  0  0  0  0  0  0
    3.6277    0.1769   -5.3172 C   0  0  0  0  0  0  0  0  0  0  0  0
    2.2472    0.1720   -4.8411 C   0  0  0  0  0  0  0  0  0  0  0  0
    4.4914   -2.1134   -0.2577 C   0  0  0  0  0  0  0  0  0  0  0  0
    4.2296   -2.4841    1.0871 O   0  0  0  0  0  0  0  0  0  0  0  0
    2.9345   -3.8595    1.9945 H   0  0  0  0  0  0  0  0  0  0  0  0
    2.1904   -2.8025    0.7795 H   0  0  0  0  0  0  0  0  0  0  0  0
    4.0266   -5.1728    0.3236 H   0  0  0  0  0  0  0  0  0  0  0  0
    2.5913   -4.7167   -0.5937 H   0  0  0  0  0  0  0  0  0  0  0  0
    5.3595   -3.9871   -0.9887 H   0  0  0  0  0  0  0  0  0  0  0  0
    2.0453   -3.2444   -3.4056 H   0  0  0  0  0  0  0  0  0  0  0  0
    1.9501   -2.7455   -1.6962 H   0  0  0  0  0  0  0  0  0  0  0  0
    2.6001   -0.5311   -2.3379 H   0  0  0  0  0  0  0  0  0  0  0  0
    4.8983   -0.4953   -3.0366 H   0  0  0  0  0  0  0  0  0  0  0  0
    5.9011   -2.7303   -2.9950 H   0  0  0  0  0  0  0  0  0  0  0  0
    4.7807   -3.2159   -4.3096 H   0  0  0  0  0  0  0  0  0  0  0  0
    4.2347    0.9248   -4.8523 H   0  0  0  0  0  0  0  0  0  0  0  0
    3.8226   -0.0457   -6.3832 H   0  0  0  0  0  0  0  0  0  0  0  0
    1.4520   -0.1669   -5.4967 H   0  0  0  0  0  0  0  0  0  0  0  0
    1.9839    0.9330   -4.1088 H   0  0  0  0  0  0  0  0  0  0  0  0
    5.4979   -1.6883   -0.3427 H   0  0  0  0  0  0  0  0  0  0  0  0
    3.7431   -1.3906   -0.6167 H   0  0  0  0  0  0  0  0  0  0  0  0
    3.8018   -4.3820   -2.7118 H   0  0  0  0  0  0  0  0  0  0  0  0
  1 13  1  0
  1  2  1  0
  1 14  1  0
  1 15  1  0
  2  3  1  0
  2 16  1  0
  2 17  1  0
  3  4  1  0
  3 12  1  0
  3 18  1  6
  4  8  1  0
  4  5  1  0
  4 31  1  6
  5  6  1  0
  5 19  1  0
  5 20  1  0
  6  9  1  0
  6  7  1  0
  6 21  1  1
  7  8  1  0
  7  9  1  0
  7 22  1  1
  8 23  1  0
  8 24  1  0
  9 11  1  0
  9 10  1  0
 10 11  1  0
 10 25  1  0
 10 26  1  0
 11 27  1  0
 11 28  1  0
 12 13  1  0
 12 29  1  0
 12 30  1  0
M  CHG  1   4   1
M  END
>  <i_m_ct_stereo_status>  (41) 
1

>  <s_m_source_file>  (41) 
/var/tmp/pbs.5076255.sched01/tmp7dv9smms/08akalw19.sdf

>  <i_m_source_file_index>  (41) 
15

>  <i_lp_mmshare_version>  (41) 
48012

>  <i_f3d_flags>  (41) 
0

>  <s_epik_input>  (41) 
W0NIMl0xT1tDSDJdW0NIMl1bQ0BIXTFOKFtDSDJdMilbQ0gyXVtDQEBIXTNbQ0BIXTJDMzRbQ0gyXVtDSDJdNA==

>  <s_epik_cmdline>  (41) 
J2VwaWtfcHl0aG9uJywgJy1waHQnLCAnMi4wJywgJy1waCcsICc3LjAnLCAnLXRuJywgJzgnLCAnLW1hJywgJzIwMCcsICctaW1hZScsICc8aW5maWxlLm1hZT4nLCAnLW9tYWUnLCAnPG91dGZpbGUubWFlPic=

>  <r_epik_Ionization_Penalty>  (41) 
0.00284618

>  <r_epik_Ionization_Penalty_Charging>  (41) 
0.00284618

>  <r_epik_Ionization_Penalty_Neutral>  (41) 
3.2758e-14

>  <r_epik_State_Penalty>  (41) 
0.00199125

>  <r_epik_Charging_Adjusted_Penalty>  (41) 
0.00483742

>  <i_epik_Tot_Q>  (41) 
1

>  <i_epik_Tot_abs_Q>  (41) 
1

>  <s_lp_Force_Field>  (41) 
OPLS3e

>  <r_lp_Energy>  (41) 
28.7021

>  <b_lp_Chiralities_Consistent>  (41) 
1

>  <s_lp_Variant>  (41) 
6:0-1

>  <s_i_glide_gridfile>  (41) 
pfpi4k_grid

>  <i_i_glide_lignum>  (41) 
15

>  <i_i_glide_rotatable_bonds>  (41) 
1

>  <r_i_docking_score>  (41) 
-3.54266

>  <r_i_glide_ligand_efficiency>  (41) 
-0.272512

>  <r_i_glide_ligand_efficiency_sa>  (41) 
-0.640768

>  <r_i_glide_ligand_efficiency_ln>  (41) 
-0.993748

>  <r_i_glide_gscore>  (41) 
-3.54266

>  <r_i_glide_lipo>  (41) 
-0.403948

>  <r_i_glide_hbond>  (41) 
0

>  <r_i_glide_metal>  (41) 
-0

>  <r_i_glide_rewards>  (41) 
-2.18

>  <r_i_glide_evdw>  (41) 
-13.9137

>  <r_i_glide_ecoul>  (41) 
-4.75328

>  <r_i_glide_erotb>  (41) 
0.48493

>  <r_i_glide_esite>  (41) 
-0.0349667

>  <r_i_glide_emodel>  (41) 
-20.6219

>  <r_i_glide_energy>  (41) 
-18.667

>  <r_i_glide_einternal>  (41) 
4.97787

>  <r_i_glide_intrahb_reward>  (41) 
-0

>  <i_i_glide_confnum>  (41) 
3

>  <i_i_glide_posenum>  (41) 
4

>  <r_i_glide_eff_state_penalty>  (41) 
0

>  <ligand_id>  (41) 
6

>  <original_smiles>  (41) 
C1CC(N2CC3C(C2)C32CC2)CO1

>  <smiles>  (41) 
[H]C1([H])OC([H])([H])C([H])([N+]2([H])C([H])([H])C3([H])C([H])(C34C([H])([H])C4([H])[H])C2([H])[H])C1([H])[H]

$$$$
6:0:2
     RDKit          3D

 31 34  0  0  1  0  0  0  0  0999 V2000
    5.5759   -5.0849    0.2593 C   0  0  0  0  0  0  0  0  0  0  0  0
    5.7952   -3.8861   -0.6707 C   0  0  0  0  0  0  0  0  0  0  0  0
    4.4100   -3.2477   -0.8218 C   0  0  1  0  0  0  0  0  0  0  0  0
    3.9459   -3.2558   -2.2433 N   0  0  1  0  0  0  0  0  0  0  0  0
    2.6174   -2.6132   -2.4551 C   0  0  0  0  0  0  0  0  0  0  0  0
    2.9311   -1.2254   -2.9605 C   0  0  1  0  0  0  0  0  0  0  0  0
    4.3002   -1.2090   -3.4239 C   0  0  1  0  0  0  0  0  0  0  0  0
    4.8694   -2.5829   -3.2075 C   0  0  0  0  0  0  0  0  0  0  0  0
    3.1886   -1.0181   -4.4318 C   0  0  0  0  0  0  0  0  0  0  0  0
    3.6200    0.1494   -5.3428 C   0  0  0  0  0  0  0  0  0  0  0  0
    2.2474    0.1247   -4.8817 C   0  0  0  0  0  0  0  0  0  0  0  0
    3.5279   -4.1334    0.0861 C   0  0  0  0  0  0  0  0  0  0  0  0
    4.2002   -5.3779    0.1160 O   0  0  0  0  0  0  0  0  0  0  0  0
    5.7945   -4.8265    1.2965 H   0  0  0  0  0  0  0  0  0  0  0  0
    6.1780   -5.9497   -0.0252 H   0  0  0  0  0  0  0  0  0  0  0  0
    6.5505   -3.2042   -0.2774 H   0  0  0  0  0  0  0  0  0  0  0  0
    6.1715   -4.2348   -1.6329 H   0  0  0  0  0  0  0  0  0  0  0  0
    4.4363   -2.2268   -0.4442 H   0  0  0  0  0  0  0  0  0  0  0  0
    2.0695   -3.1200   -3.2565 H   0  0  0  0  0  0  0  0  0  0  0  0
    1.9815   -2.6276   -1.5716 H   0  0  0  0  0  0  0  0  0  0  0  0
    2.6290   -0.3645   -2.3645 H   0  0  0  0  0  0  0  0  0  0  0  0
    4.8738   -0.3575   -3.0597 H   0  0  0  0  0  0  0  0  0  0  0  0
    5.9228   -2.5158   -2.9271 H   0  0  0  0  0  0  0  0  0  0  0  0
    4.7894   -3.1078   -4.1643 H   0  0  0  0  0  0  0  0  0  0  0  0
    4.2325    0.9335   -4.9071 H   0  0  0  0  0  0  0  0  0  0  0  0
    3.7961   -0.1183   -6.3770 H   0  0  0  0  0  0  0  0  0  0  0  0
    1.4466   -0.2039   -5.5410 H   0  0  0  0  0  0  0  0  0  0  0  0
    2.0056    0.8939   -4.1741 H   0  0  0  0  0  0  0  0  0  0  0  0
    3.5030   -3.7164    1.0945 H   0  0  0  0  0  0  0  0  0  0  0  0
    2.4984   -4.2850   -0.2440 H   0  0  0  0  0  0  0  0  0  0  0  0
    3.8313   -4.2267   -2.5171 H   0  0  0  0  0  0  0  0  0  0  0  0
  1 13  1  0
  1  2  1  0
  1 14  1  0
  1 15  1  0
  2  3  1  0
  2 16  1  0
  2 17  1  0
  3  4  1  0
  3 12  1  0
  3 18  1  1
  4  8  1  0
  4  5  1  0
  4 31  1  6
  5  6  1  0
  5 19  1  0
  5 20  1  0
  6  9  1  0
  6  7  1  0
  6 21  1  1
  7  8  1  0
  7  9  1  0
  7 22  1  1
  8 23  1  0
  8 24  1  0
  9 11  1  0
  9 10  1  0
 10 11  1  0
 10 25  1  0
 10 26  1  0
 11 27  1  0
 11 28  1  0
 12 13  1  0
 12 29  1  0
 12 30  1  0
M  CHG  1   4   1
M  END
>  <i_m_ct_stereo_status>  (42) 
1

>  <s_m_source_file>  (42) 
/var/tmp/pbs.5076255.sched01/tmp7dv9smms/08akalw19.sdf

>  <i_m_source_file_index>  (42) 
15

>  <i_lp_mmshare_version>  (42) 
48012

>  <i_f3d_flags>  (42) 
0

>  <s_epik_input>  (42) 
W0NIMl0xT1tDSDJdW0NIMl1bQ0BIXTFOKFtDSDJdMilbQ0gyXVtDQEBIXTNbQ0BIXTJDMzRbQ0gyXVtDSDJdNA==

>  <s_epik_cmdline>  (42) 
J2VwaWtfcHl0aG9uJywgJy1waHQnLCAnMi4wJywgJy1waCcsICc3LjAnLCAnLXRuJywgJzgnLCAnLW1hJywgJzIwMCcsICctaW1hZScsICc8aW5maWxlLm1hZT4nLCAnLW9tYWUnLCAnPG91dGZpbGUubWFlPic=

>  <r_epik_Ionization_Penalty>  (42) 
0.00284618

>  <r_epik_Ionization_Penalty_Charging>  (42) 
0.00284618

>  <r_epik_Ionization_Penalty_Neutral>  (42) 
3.2758e-14

>  <r_epik_State_Penalty>  (42) 
0.00199125

>  <r_epik_Charging_Adjusted_Penalty>  (42) 
0.00483742

>  <i_epik_Tot_Q>  (42) 
1

>  <i_epik_Tot_abs_Q>  (42) 
1

>  <s_lp_Force_Field>  (42) 
OPLS3e

>  <r_lp_Energy>  (42) 
28.7021

>  <b_lp_Chiralities_Consistent>  (42) 
1

>  <s_lp_Variant>  (42) 
6:0-1

>  <s_i_glide_gridfile>  (42) 
pfpi4k_grid

>  <i_i_glide_lignum>  (42) 
15

>  <i_i_glide_rotatable_bonds>  (42) 
1

>  <r_i_docking_score>  (42) 
-3.46041

>  <r_i_glide_ligand_efficiency>  (42) 
-0.266185

>  <r_i_glide_ligand_efficiency_sa>  (42) 
-0.625891

>  <r_i_glide_ligand_efficiency_ln>  (42) 
-0.970676

>  <r_i_glide_gscore>  (42) 
-3.46041

>  <r_i_glide_lipo>  (42) 
-0.536642

>  <r_i_glide_hbond>  (42) 
0

>  <r_i_glide_metal>  (42) 
-0

>  <r_i_glide_rewards>  (42) 
-2.18

>  <r_i_glide_evdw>  (42) 
-12.8918

>  <r_i_glide_ecoul>  (42) 
-3.7159

>  <r_i_glide_erotb>  (42) 
0.48493

>  <r_i_glide_esite>  (42) 
-0.026723

>  <r_i_glide_emodel>  (42) 
-20.7594

>  <r_i_glide_energy>  (42) 
-16.6077

>  <r_i_glide_einternal>  (42) 
0.048139

>  <r_i_glide_intrahb_reward>  (42) 
-0

>  <i_i_glide_confnum>  (42) 
4

>  <i_i_glide_posenum>  (42) 
10

>  <r_i_glide_eff_state_penalty>  (42) 
0

>  <ligand_id>  (42) 
6

>  <original_smiles>  (42) 
C1CC(N2CC3C(C2)C32CC2)CO1

>  <smiles>  (42) 
[H]C1([H])OC([H])([H])C([H])([N+]2([H])C([H])([H])C3([H])C([H])(C34C([H])([H])C4([H])[H])C2([H])[H])C1([H])[H]

$$$$
6:1:0
     RDKit          3D

 31 34  0  0  1  0  0  0  0  0999 V2000
   -5.7124  -11.9782   -7.1808 C   0  0  0  0  0  0  0  0  0  0  0  0
   -6.1817  -10.5584   -7.5015 C   0  0  0  0  0  0  0  0  0  0  0  0
   -5.2363   -9.6617   -6.6970 C   0  0  1  0  0  0  0  0  0  0  0  0
   -5.9508   -8.7836   -5.7473 N   0  0  2  0  0  0  0  0  0  0  0  0
   -6.9763   -7.8888   -6.3752 C   0  0  0  0  0  0  0  0  0  0  0  0
   -7.1050   -6.7161   -5.4303 C   0  0  1  0  0  0  0  0  0  0  0  0
   -5.9365   -6.7190   -4.5409 C   0  0  1  0  0  0  0  0  0  0  0  0
   -5.0602   -7.8900   -4.9364 C   0  0  0  0  0  0  0  0  0  0  0  0
   -6.1045   -5.5750   -5.5322 C   0  0  0  0  0  0  0  0  0  0  0  0
   -6.9468   -4.3139   -5.6861 C   0  0  0  0  0  0  0  0  0  0  0  0
   -5.7849   -4.2819   -4.8080 C   0  0  0  0  0  0  0  0  0  0  0  0
   -4.2899  -10.6525   -6.0022 C   0  0  0  0  0  0  0  0  0  0  0  0
   -5.0570  -11.8424   -5.9302 O   0  0  0  0  0  0  0  0  0  0  0  0
   -5.0107  -12.3454   -7.9308 H   0  0  0  0  0  0  0  0  0  0  0  0
   -6.5486  -12.6739   -7.1087 H   0  0  0  0  0  0  0  0  0  0  0  0
   -6.1387  -10.3589   -8.5746 H   0  0  0  0  0  0  0  0  0  0  0  0
   -7.2203  -10.4508   -7.1873 H   0  0  0  0  0  0  0  0  0  0  0  0
   -4.6598   -9.0154   -7.3813 H   0  0  0  0  0  0  0  0  0  0  0  0
   -6.6337   -7.5171   -7.3498 H   0  0  0  0  0  0  0  0  0  0  0  0
   -7.9524   -8.3723   -6.4949 H   0  0  0  0  0  0  0  0  0  0  0  0
   -8.0815   -6.5210   -4.9825 H   0  0  0  0  0  0  0  0  0  0  0  0
   -6.1582   -6.5612   -3.4862 H   0  0  0  0  0  0  0  0  0  0  0  0
   -4.6838   -8.3869   -4.0356 H   0  0  0  0  0  0  0  0  0  0  0  0
   -4.2094   -7.5221   -5.5273 H   0  0  0  0  0  0  0  0  0  0  0  0
   -6.8844   -3.8502   -6.6647 H   0  0  0  0  0  0  0  0  0  0  0  0
   -7.9089   -4.2464   -5.1727 H   0  0  0  0  0  0  0  0  0  0  0  0
   -6.0195   -4.2240   -3.7451 H   0  0  0  0  0  0  0  0  0  0  0  0
   -4.8818   -3.8064   -5.1536 H   0  0  0  0  0  0  0  0  0  0  0  0
   -3.4109  -10.8427   -6.6224 H   0  0  0  0  0  0  0  0  0  0  0  0
   -3.9380  -10.3426   -5.0157 H   0  0  0  0  0  0  0  0  0  0  0  0
   -6.4471   -9.3805   -5.0868 H   0  0  0  0  0  0  0  0  0  0  0  0
  1 13  1  0
  1  2  1  0
  1 14  1  0
  1 15  1  0
  2  3  1  0
  2 16  1  0
  2 17  1  0
  3  4  1  0
  3 12  1  0
  3 18  1  6
  4  8  1  0
  4  5  1  0
  4 31  1  1
  5  6  1  0
  5 19  1  0
  5 20  1  0
  6  9  1  0
  6  7  1  0
  6 21  1  1
  7  8  1  0
  7  9  1  0
  7 22  1  1
  8 23  1  0
  8 24  1  0
  9 11  1  0
  9 10  1  0
 10 11  1  0
 10 25  1  0
 10 26  1  0
 11 27  1  0
 11 28  1  0
 12 13  1  0
 12 29  1  0
 12 30  1  0
M  CHG  1   4   1
M  END
>  <i_m_ct_stereo_status>  (43) 
1

>  <s_m_source_file>  (43) 
/var/tmp/pbs.5076255.sched01/tmp7dv9smms/08akalw19.sdf

>  <i_m_source_file_index>  (43) 
16

>  <i_lp_mmshare_version>  (43) 
48012

>  <i_f3d_flags>  (43) 
0

>  <s_epik_input>  (43) 
W0NIMl0xT1tDSDJdW0NIMl1bQ0BIXTFOKFtDSDJdMilbQ0gyXVtDQEBIXTNbQ0BIXTJDMzRbQ0gyXVtDSDJdNA==

>  <s_epik_cmdline>  (43) 
J2VwaWtfcHl0aG9uJywgJy1waHQnLCAnMi4wJywgJy1waCcsICc3LjAnLCAnLXRuJywgJzgnLCAnLW1hJywgJzIwMCcsICctaW1hZScsICc8aW5maWxlLm1hZT4nLCAnLW9tYWUnLCAnPG91dGZpbGUubWFlPic=

>  <r_epik_Ionization_Penalty>  (43) 
0.00284618

>  <r_epik_Ionization_Penalty_Charging>  (43) 
0.00284618

>  <r_epik_Ionization_Penalty_Neutral>  (43) 
3.2758e-14

>  <r_epik_State_Penalty>  (43) 
0.00199125

>  <r_epik_Charging_Adjusted_Penalty>  (43) 
0.00483742

>  <i_epik_Tot_Q>  (43) 
1

>  <i_epik_Tot_abs_Q>  (43) 
1

>  <s_lp_Force_Field>  (43) 
OPLS3e

>  <r_lp_Energy>  (43) 
29.517

>  <b_lp_Chiralities_Consistent>  (43) 
1

>  <s_lp_Variant>  (43) 
6:0-2

>  <s_i_glide_gridfile>  (43) 
pfpi4k_grid

>  <i_i_glide_lignum>  (43) 
16

>  <i_i_glide_rotatable_bonds>  (43) 
1

>  <r_i_docking_score>  (43) 
-5.45819

>  <r_i_glide_ligand_efficiency>  (43) 
-0.419861

>  <r_i_glide_ligand_efficiency_sa>  (43) 
-0.987233

>  <r_i_glide_ligand_efficiency_ln>  (43) 
-1.53107

>  <r_i_glide_gscore>  (43) 
-5.45819

>  <r_i_glide_lipo>  (43) 
-2.39619

>  <r_i_glide_hbond>  (43) 
0

>  <r_i_glide_metal>  (43) 
-0

>  <r_i_glide_rewards>  (43) 
-2.37605

>  <r_i_glide_evdw>  (43) 
-19.7309

>  <r_i_glide_ecoul>  (43) 
-1.22889

>  <r_i_glide_erotb>  (43) 
0.48493

>  <r_i_glide_esite>  (43) 
0

>  <r_i_glide_emodel>  (43) 
-26.5563

>  <r_i_glide_energy>  (43) 
-20.9598

>  <r_i_glide_einternal>  (43) 
0.0338359

>  <r_i_glide_intrahb_reward>  (43) 
-0

>  <i_i_glide_confnum>  (43) 
5

>  <i_i_glide_posenum>  (43) 
9

>  <r_i_glide_eff_state_penalty>  (43) 
0

>  <ligand_id>  (43) 
6

>  <original_smiles>  (43) 
C1CC(N2CC3C(C2)C32CC2)CO1

>  <smiles>  (43) 
[H]C1([H])OC([H])([H])C([H])([N+]2([H])C([H])([H])C3([H])C([H])(C34C([H])([H])C4([H])[H])C2([H])[H])C1([H])[H]

$$$$
6:1:1
     RDKit          3D

 31 34  0  0  1  0  0  0  0  0999 V2000
   -5.7284  -11.6053   -6.7276 C   0  0  0  0  0  0  0  0  0  0  0  0
   -7.0124  -11.0268   -7.3278 C   0  0  0  0  0  0  0  0  0  0  0  0
   -6.6216   -9.6330   -7.8193 C   0  0  1  0  0  0  0  0  0  0  0  0
   -7.3761   -8.5590   -7.1395 N   0  0  2  0  0  0  0  0  0  0  0  0
   -7.3711   -7.2588   -7.8366 C   0  0  0  0  0  0  0  0  0  0  0  0
   -7.5472   -6.2130   -6.7605 C   0  0  1  0  0  0  0  0  0  0  0  0
   -7.3398   -6.8542   -5.4903 C   0  0  1  0  0  0  0  0  0  0  0  0
   -6.9695   -8.2985   -5.7354 C   0  0  0  0  0  0  0  0  0  0  0  0
   -6.3379   -5.8051   -5.9042 C   0  0  0  0  0  0  0  0  0  0  0  0
   -6.3043   -4.2782   -5.8849 C   0  0  0  0  0  0  0  0  0  0  0  0
   -6.0495   -4.9851   -4.6503 C   0  0  0  0  0  0  0  0  0  0  0  0
   -5.1300   -9.5737   -7.4943 C   0  0  0  0  0  0  0  0  0  0  0  0
   -4.9397  -10.4711   -6.4232 O   0  0  0  0  0  0  0  0  0  0  0  0
   -5.1933  -12.2176   -7.4545 H   0  0  0  0  0  0  0  0  0  0  0  0
   -5.9164  -12.2061   -5.8380 H   0  0  0  0  0  0  0  0  0  0  0  0
   -7.3883  -11.6571   -8.1349 H   0  0  0  0  0  0  0  0  0  0  0  0
   -7.7962  -10.9705   -6.5720 H   0  0  0  0  0  0  0  0  0  0  0  0
   -6.7627   -9.5639   -8.9032 H   0  0  0  0  0  0  0  0  0  0  0  0
   -6.3597   -7.1285   -8.1897 H   0  0  0  0  0  0  0  0  0  0  0  0
   -8.0658   -7.1528   -8.6675 H   0  0  0  0  0  0  0  0  0  0  0  0
   -8.4482   -5.5943   -6.8048 H   0  0  0  0  0  0  0  0  0  0  0  0
   -8.1098   -6.6084   -4.7778 H   0  0  0  0  0  0  0  0  0  0  0  0
   -7.4235   -9.0392   -5.0907 H   0  0  0  0  0  0  0  0  0  0  0  0
   -5.9141   -8.3326   -5.4960 H   0  0  0  0  0  0  0  0  0  0  0  0
   -5.4237   -3.7999   -6.3009 H   0  0  0  0  0  0  0  0  0  0  0  0
   -7.2458   -3.7540   -5.9669 H   0  0  0  0  0  0  0  0  0  0  0  0
   -6.7920   -4.8084   -3.8815 H   0  0  0  0  0  0  0  0  0  0  0  0
   -5.0166   -5.0468   -4.3234 H   0  0  0  0  0  0  0  0  0  0  0  0
   -4.5704  -10.0016   -8.3156 H   0  0  0  0  0  0  0  0  0  0  0  0
   -4.7114   -8.5789   -7.3250 H   0  0  0  0  0  0  0  0  0  0  0  0
   -8.3534   -8.8364   -7.1369 H   0  0  0  0  0  0  0  0  0  0  0  0
  1 13  1  0
  1  2  1  0
  1 14  1  0
  1 15  1  0
  2  3  1  0
  2 16  1  0
  2 17  1  0
  3  4  1  0
  3 12  1  0
  3 18  1  6
  4  8  1  0
  4  5  1  0
  4 31  1  1
  5  6  1  0
  5 19  1  0
  5 20  1  0
  6  9  1  0
  6  7  1  0
  6 21  1  1
  7  8  1  0
  7  9  1  0
  7 22  1  1
  8 23  1  0
  8 24  1  0
  9 11  1  0
  9 10  1  0
 10 11  1  0
 10 25  1  0
 10 26  1  0
 11 27  1  0
 11 28  1  0
 12 13  1  0
 12 29  1  0
 12 30  1  0
M  CHG  1   4   1
M  END
>  <i_m_ct_stereo_status>  (44) 
1

>  <s_m_source_file>  (44) 
/var/tmp/pbs.5076255.sched01/tmp7dv9smms/08akalw19.sdf

>  <i_m_source_file_index>  (44) 
16

>  <i_lp_mmshare_version>  (44) 
48012

>  <i_f3d_flags>  (44) 
0

>  <s_epik_input>  (44) 
W0NIMl0xT1tDSDJdW0NIMl1bQ0BIXTFOKFtDSDJdMilbQ0gyXVtDQEBIXTNbQ0BIXTJDMzRbQ0gyXVtDSDJdNA==

>  <s_epik_cmdline>  (44) 
J2VwaWtfcHl0aG9uJywgJy1waHQnLCAnMi4wJywgJy1waCcsICc3LjAnLCAnLXRuJywgJzgnLCAnLW1hJywgJzIwMCcsICctaW1hZScsICc8aW5maWxlLm1hZT4nLCAnLW9tYWUnLCAnPG91dGZpbGUubWFlPic=

>  <r_epik_Ionization_Penalty>  (44) 
0.00284618

>  <r_epik_Ionization_Penalty_Charging>  (44) 
0.00284618

>  <r_epik_Ionization_Penalty_Neutral>  (44) 
3.2758e-14

>  <r_epik_State_Penalty>  (44) 
0.00199125

>  <r_epik_Charging_Adjusted_Penalty>  (44) 
0.00483742

>  <i_epik_Tot_Q>  (44) 
1

>  <i_epik_Tot_abs_Q>  (44) 
1

>  <s_lp_Force_Field>  (44) 
OPLS3e

>  <r_lp_Energy>  (44) 
29.517

>  <b_lp_Chiralities_Consistent>  (44) 
1

>  <s_lp_Variant>  (44) 
6:0-2

>  <s_i_glide_gridfile>  (44) 
pfpi4k_grid

>  <i_i_glide_lignum>  (44) 
16

>  <i_i_glide_rotatable_bonds>  (44) 
1

>  <r_i_docking_score>  (44) 
-4.59222

>  <r_i_glide_ligand_efficiency>  (44) 
-0.353247

>  <r_i_glide_ligand_efficiency_sa>  (44) 
-0.830603

>  <r_i_glide_ligand_efficiency_ln>  (44) 
-1.28816

>  <r_i_glide_gscore>  (44) 
-4.59222

>  <r_i_glide_lipo>  (44) 
-1.97236

>  <r_i_glide_hbond>  (44) 
0

>  <r_i_glide_metal>  (44) 
-0

>  <r_i_glide_rewards>  (44) 
-2.955

>  <r_i_glide_evdw>  (44) 
-5.55537

>  <r_i_glide_ecoul>  (44) 
0.853201

>  <r_i_glide_erotb>  (44) 
0.48493

>  <r_i_glide_esite>  (44) 
0

>  <r_i_glide_emodel>  (44) 
-5.98873

>  <r_i_glide_energy>  (44) 
-4.70216

>  <r_i_glide_einternal>  (44) 
5.67113

>  <r_i_glide_intrahb_reward>  (44) 
-0

>  <i_i_glide_confnum>  (44) 
5

>  <i_i_glide_posenum>  (44) 
35

>  <r_i_glide_eff_state_penalty>  (44) 
0

>  <ligand_id>  (44) 
6

>  <original_smiles>  (44) 
C1CC(N2CC3C(C2)C32CC2)CO1

>  <smiles>  (44) 
[H]C1([H])OC([H])([H])C([H])([N+]2([H])C([H])([H])C3([H])C([H])(C34C([H])([H])C4([H])[H])C2([H])[H])C1([H])[H]

$$$$
6:1:2
     RDKit          3D

 31 34  0  0  1  0  0  0  0  0999 V2000
   -3.8381  -12.2360   -6.5746 C   0  0  0  0  0  0  0  0  0  0  0  0
   -5.1383  -11.7775   -5.9115 C   0  0  0  0  0  0  0  0  0  0  0  0
   -6.0947  -11.5685   -7.1104 C   0  0  1  0  0  0  0  0  0  0  0  0
   -6.5558  -10.1598   -7.2523 N   0  0  2  0  0  0  0  0  0  0  0  0
   -5.4731   -9.1558   -7.4901 C   0  0  0  0  0  0  0  0  0  0  0  0
   -6.0290   -7.8657   -6.9258 C   0  0  1  0  0  0  0  0  0  0  0  0
   -7.1814   -8.1751   -6.1120 C   0  0  1  0  0  0  0  0  0  0  0  0
   -7.3925   -9.6747   -6.1135 C   0  0  0  0  0  0  0  0  0  0  0  0
   -5.9241   -7.6624   -5.4142 C   0  0  0  0  0  0  0  0  0  0  0  0
   -5.2143   -6.3241   -5.1850 C   0  0  0  0  0  0  0  0  0  0  0  0
   -6.3744   -6.6354   -4.3628 C   0  0  0  0  0  0  0  0  0  0  0  0
   -5.2779  -12.0273   -8.3214 C   0  0  0  0  0  0  0  0  0  0  0  0
   -3.9360  -11.8016   -7.9226 O   0  0  0  0  0  0  0  0  0  0  0  0
   -3.7266  -13.3233   -6.5420 H   0  0  0  0  0  0  0  0  0  0  0  0
   -2.9817  -11.7864   -6.0835 H   0  0  0  0  0  0  0  0  0  0  0  0
   -5.4946  -12.5561   -5.2392 H   0  0  0  0  0  0  0  0  0  0  0  0
   -4.9596  -10.8519   -5.3606 H   0  0  0  0  0  0  0  0  0  0  0  0
   -6.9752  -12.2086   -7.0093 H   0  0  0  0  0  0  0  0  0  0  0  0
   -4.5730   -9.4213   -6.9062 H   0  0  0  0  0  0  0  0  0  0  0  0
   -5.2522   -9.0175   -8.5598 H   0  0  0  0  0  0  0  0  0  0  0  0
   -6.1715   -7.0140   -7.5846 H   0  0  0  0  0  0  0  0  0  0  0  0
   -8.0398   -7.5174   -6.2779 H   0  0  0  0  0  0  0  0  0  0  0  0
   -8.4573   -9.9058   -6.2429 H   0  0  0  0  0  0  0  0  0  0  0  0
   -7.0421  -10.0602   -5.1426 H   0  0  0  0  0  0  0  0  0  0  0  0
   -4.2178   -6.3969   -4.7567 H   0  0  0  0  0  0  0  0  0  0  0  0
   -5.4069   -5.5131   -5.8682 H   0  0  0  0  0  0  0  0  0  0  0  0
   -7.2442   -6.0389   -4.5911 H   0  0  0  0  0  0  0  0  0  0  0  0
   -6.2127   -6.8862   -3.3130 H   0  0  0  0  0  0  0  0  0  0  0  0
   -5.4175  -13.0929   -8.5097 H   0  0  0  0  0  0  0  0  0  0  0  0
   -5.5391  -11.4931   -9.2343 H   0  0  0  0  0  0  0  0  0  0  0  0
   -7.1700  -10.1208   -8.0670 H   0  0  0  0  0  0  0  0  0  0  0  0
  1 13  1  0
  1  2  1  0
  1 14  1  0
  1 15  1  0
  2  3  1  0
  2 16  1  0
  2 17  1  0
  3  4  1  0
  3 12  1  0
  3 18  1  1
  4  8  1  0
  4  5  1  0
  4 31  1  6
  5  6  1  0
  5 19  1  0
  5 20  1  0
  6  9  1  0
  6  7  1  0
  6 21  1  6
  7  8  1  0
  7  9  1  0
  7 22  1  6
  8 23  1  0
  8 24  1  0
  9 11  1  0
  9 10  1  0
 10 11  1  0
 10 25  1  0
 10 26  1  0
 11 27  1  0
 11 28  1  0
 12 13  1  0
 12 29  1  0
 12 30  1  0
M  CHG  1   4   1
M  END
>  <i_m_ct_stereo_status>  (45) 
1

>  <s_m_source_file>  (45) 
/var/tmp/pbs.5076255.sched01/tmp7dv9smms/08akalw19.sdf

>  <i_m_source_file_index>  (45) 
16

>  <i_lp_mmshare_version>  (45) 
48012

>  <i_f3d_flags>  (45) 
0

>  <s_epik_input>  (45) 
W0NIMl0xT1tDSDJdW0NIMl1bQ0BIXTFOKFtDSDJdMilbQ0gyXVtDQEBIXTNbQ0BIXTJDMzRbQ0gyXVtDSDJdNA==

>  <s_epik_cmdline>  (45) 
J2VwaWtfcHl0aG9uJywgJy1waHQnLCAnMi4wJywgJy1waCcsICc3LjAnLCAnLXRuJywgJzgnLCAnLW1hJywgJzIwMCcsICctaW1hZScsICc8aW5maWxlLm1hZT4nLCAnLW9tYWUnLCAnPG91dGZpbGUubWFlPic=

>  <r_epik_Ionization_Penalty>  (45) 
0.00284618

>  <r_epik_Ionization_Penalty_Charging>  (45) 
0.00284618

>  <r_epik_Ionization_Penalty_Neutral>  (45) 
3.2758e-14

>  <r_epik_State_Penalty>  (45) 
0.00199125

>  <r_epik_Charging_Adjusted_Penalty>  (45) 
0.00483742

>  <i_epik_Tot_Q>  (45) 
1

>  <i_epik_Tot_abs_Q>  (45) 
1

>  <s_lp_Force_Field>  (45) 
OPLS3e

>  <r_lp_Energy>  (45) 
29.517

>  <b_lp_Chiralities_Consistent>  (45) 
1

>  <s_lp_Variant>  (45) 
6:0-2

>  <s_i_glide_gridfile>  (45) 
pfpi4k_grid

>  <i_i_glide_lignum>  (45) 
16

>  <i_i_glide_rotatable_bonds>  (45) 
1

>  <r_i_docking_score>  (45) 
-4.2008

>  <r_i_glide_ligand_efficiency>  (45) 
-0.323138

>  <r_i_glide_ligand_efficiency_sa>  (45) 
-0.759806

>  <r_i_glide_ligand_efficiency_ln>  (45) 
-1.17836

>  <r_i_glide_gscore>  (45) 
-4.2008

>  <r_i_glide_lipo>  (45) 
-1.38585

>  <r_i_glide_hbond>  (45) 
0

>  <r_i_glide_metal>  (45) 
-0

>  <r_i_glide_rewards>  (45) 
-2.53608

>  <r_i_glide_evdw>  (45) 
-13.9585

>  <r_i_glide_ecoul>  (45) 
-0.439179

>  <r_i_glide_erotb>  (45) 
0.48493

>  <r_i_glide_esite>  (45) 
0

>  <r_i_glide_emodel>  (45) 
-16.2269

>  <r_i_glide_energy>  (45) 
-14.3977

>  <r_i_glide_einternal>  (45) 
4.68684

>  <r_i_glide_intrahb_reward>  (45) 
-0

>  <i_i_glide_confnum>  (45) 
5

>  <i_i_glide_posenum>  (45) 
32

>  <r_i_glide_eff_state_penalty>  (45) 
0

>  <ligand_id>  (45) 
6

>  <original_smiles>  (45) 
C1CC(N2CC3C(C2)C32CC2)CO1

>  <smiles>  (45) 
[H]C1([H])OC([H])([H])C([H])([N+]2([H])C([H])([H])C3([H])C([H])(C34C([H])([H])C4([H])[H])C2([H])[H])C1([H])[H]

$$$$
7:0:0
     RDKit          3D

 34 37  0  0  1  0  0  0  0  0999 V2000
   -0.8872    2.0450    2.6564 N   0  0  0  0  0  0  0  0  0  0  0  0
   -1.1368    1.6070    3.8865 C   0  0  0  0  0  0  0  0  0  0  0  0
   -1.3745    0.2860    4.0860 N   0  0  0  0  0  0  0  0  0  0  0  0
   -1.6478   -0.1664    5.3106 C   0  0  0  0  0  0  0  0  0  0  0  0
   -1.7086    0.5048    6.4704 N   0  0  0  0  0  0  0  0  0  0  0  0
   -1.4194    1.8393    6.2619 C   0  0  0  0  0  0  0  0  0  0  0  0
   -1.1490    2.4707    5.0144 C   0  0  0  0  0  0  0  0  0  0  0  0
   -0.9593    3.8488    5.1922 N   0  0  0  0  0  0  0  0  0  0  0  0
   -1.0626    3.9998    6.4828 C   0  0  0  0  0  0  0  0  0  0  0  0
   -1.3253    2.8561    7.2115 N   0  0  0  0  0  0  0  0  0  0  0  0
   -1.5521    2.7717    8.6308 C   0  0  2  0  0  0  0  0  0  0  0  0
   -1.3104    3.9114    9.6301 C   0  0  2  0  0  0  0  0  0  0  0  0
    0.1622    3.4955    9.4646 C   0  0  0  0  0  0  0  0  0  0  0  0
   -0.5606    2.1468    9.6233 C   0  0  1  0  0  0  0  0  0  0  0  0
   -1.2163    2.0685   10.9935 C   0  0  1  0  0  0  0  0  0  0  0  0
   -0.2413    1.6757   12.1211 C   0  0  0  0  0  0  0  0  0  0  0  0
   -0.1819    0.2643   12.2136 O   0  0  0  0  0  0  0  0  0  0  0  0
   -1.8092    3.4906   10.9995 C   0  0  1  0  0  0  0  0  0  0  0  0
   -1.2928    4.3559   11.9859 O   0  0  0  0  0  0  0  0  0  0  0  0
   -0.8725    1.4107    1.8823 H   0  0  0  0  0  0  0  0  0  0  0  0
   -0.6572    3.0158    2.5093 H   0  0  0  0  0  0  0  0  0  0  0  0
   -1.8205   -1.2312    5.3659 H   0  0  0  0  0  0  0  0  0  0  0  0
   -0.9624    4.9745    6.9420 H   0  0  0  0  0  0  0  0  0  0  0  0
   -2.5469    2.3559    8.7408 H   0  0  0  0  0  0  0  0  0  0  0  0
   -1.5547    4.9071    9.2807 H   0  0  0  0  0  0  0  0  0  0  0  0
    0.6572    3.7017    8.5047 H   0  0  0  0  0  0  0  0  0  0  0  0
    0.7875    3.7731   10.3166 H   0  0  0  0  0  0  0  0  0  0  0  0
   -0.0141    1.2833    9.2513 H   0  0  0  0  0  0  0  0  0  0  0  0
   -2.0443    1.3687   10.9831 H   0  0  0  0  0  0  0  0  0  0  0  0
    0.7606    2.0747   11.9501 H   0  0  0  0  0  0  0  0  0  0  0  0
   -0.5826    2.0604   13.0835 H   0  0  0  0  0  0  0  0  0  0  0  0
   -1.0694   -0.0220   12.4677 H   0  0  0  0  0  0  0  0  0  0  0  0
   -2.8997    3.4820   11.0416 H   0  0  0  0  0  0  0  0  0  0  0  0
   -1.6031    4.0410   12.8240 H   0  0  0  0  0  0  0  0  0  0  0  0
  1  2  1  0
  1 21  1  0
  1 20  1  0
  2  3  1  0
  2  7  2  0
  3  4  2  0
  4 22  1  0
  4  5  1  0
  5  6  2  0
  6 10  1  0
  6  7  1  0
  7  8  1  0
  8  9  2  0
  9 23  1  0
  9 10  1  0
 10 11  1  0
 11 14  1  0
 11 12  1  0
 11 24  1  6
 12 18  1  0
 12 13  1  0
 12 25  1  6
 13 14  1  0
 13 26  1  0
 13 27  1  0
 14 15  1  0
 14 28  1  6
 15 16  1  0
 15 18  1  0
 15 29  1  6
 16 17  1  0
 16 30  1  0
 16 31  1  0
 17 32  1  0
 18 19  1  0
 18 33  1  6
 19 34  1  0
M  END
>  <i_m_ct_stereo_status>  (46) 
1

>  <s_m_source_file>  (46) 
/var/tmp/pbs.5076255.sched01/tmp7dv9smms/08akalw19.sdf

>  <i_m_source_file_index>  (46) 
17

>  <i_lp_mmshare_version>  (46) 
48012

>  <i_f3d_flags>  (46) 
0

>  <s_epik_input>  (46) 
bjFbY0hdW25IXS9jKD1OXFtIXSljKGMxMiluW2NIXW4yW0NASF0oW0NASF0zNClbQ0BASF0oW0NIMl0zKVtDQEBIXShbQ0gyXVtPSF0pW0NASF00W09IXQ==

>  <s_epik_cmdline>  (46) 
J2VwaWtfcHl0aG9uJywgJy1waHQnLCAnMi4wJywgJy1waCcsICc3LjAnLCAnLXRuJywgJzgnLCAnLW1hJywgJzIwMCcsICctaW1hZScsICc8aW5maWxlLm1hZT4nLCAnLW9tYWUnLCAnPG91dGZpbGUubWFlPic=

>  <r_lp_tautomer_probability>  (46) 
1

>  <r_epik_Ionization_Penalty>  (46) 
0.0015233

>  <r_epik_Ionization_Penalty_Charging>  (46) 
0

>  <r_epik_Ionization_Penalty_Neutral>  (46) 
0.0015233

>  <r_epik_State_Penalty>  (46) 
-0

>  <r_epik_Charging_Adjusted_Penalty>  (46) 
0

>  <i_epik_Tot_Q>  (46) 
0

>  <i_epik_Tot_abs_Q>  (46) 
0

>  <s_lp_Force_Field>  (46) 
OPLS3e

>  <r_lp_Energy>  (46) 
46.3812

>  <b_lp_Chiralities_Consistent>  (46) 
1

>  <s_lp_Variant>  (46) 
7:0-1

>  <s_i_glide_gridfile>  (46) 
pfpi4k_grid

>  <i_i_glide_lignum>  (46) 
17

>  <i_i_glide_rotatable_bonds>  (46) 
4

>  <r_i_docking_score>  (46) 
-3.68778

>  <r_i_glide_ligand_efficiency>  (46) 
-0.194093

>  <r_i_glide_ligand_efficiency_sa>  (46) 
-0.517919

>  <r_i_glide_ligand_efficiency_ln>  (46) 
-0.93493

>  <r_i_glide_gscore>  (46) 
-3.68778

>  <r_i_glide_lipo>  (46) 
0

>  <r_i_glide_hbond>  (46) 
-0.355563

>  <r_i_glide_metal>  (46) 
-0

>  <r_i_glide_rewards>  (46) 
-1.65411

>  <r_i_glide_evdw>  (46) 
-15.9803

>  <r_i_glide_ecoul>  (46) 
-8.38269

>  <r_i_glide_erotb>  (46) 
0.519095

>  <r_i_glide_esite>  (46) 
-0.140778

>  <r_i_glide_emodel>  (46) 
-30.6847

>  <r_i_glide_energy>  (46) 
-24.363

>  <r_i_glide_einternal>  (46) 
1.85162

>  <r_i_glide_intrahb_reward>  (46) 
-0

>  <i_i_glide_confnum>  (46) 
5

>  <i_i_glide_posenum>  (46) 
38

>  <r_i_glide_eff_state_penalty>  (46) 
0

>  <ligand_id>  (46) 
7

>  <original_smiles>  (46) 
N=c1[nH]cnc2c1ncn2C1C2CC1C(CO)C2O

>  <smiles>  (46) 
[H]OC([H])([H])C1([H])C([H])(O[H])C2([H])C([H])([H])C1([H])C2([H])n1c([H])nc2c(N([H])[H])nc([H])nc21

$$$$
7:0:1
     RDKit          3D

 34 37  0  0  1  0  0  0  0  0999 V2000
    0.9963   -0.4145    2.1558 N   0  0  0  0  0  0  0  0  0  0  0  0
    0.6242   -0.3213    3.4413 C   0  0  0  0  0  0  0  0  0  0  0  0
    1.1408   -1.1929    4.3376 N   0  0  0  0  0  0  0  0  0  0  0  0
    0.7738   -1.1108    5.6232 C   0  0  0  0  0  0  0  0  0  0  0  0
   -0.0686   -0.2416    6.2043 N   0  0  0  0  0  0  0  0  0  0  0  0
   -0.5599    0.6500    5.2894 C   0  0  0  0  0  0  0  0  0  0  0  0
   -0.2865    0.6632    3.8984 C   0  0  0  0  0  0  0  0  0  0  0  0
   -1.0085    1.6688    3.2752 N   0  0  0  0  0  0  0  0  0  0  0  0
   -1.6475    2.2504    4.2496 C   0  0  0  0  0  0  0  0  0  0  0  0
   -1.4129    1.7238    5.5013 N   0  0  0  0  0  0  0  0  0  0  0  0
   -2.0230    2.1278    6.7372 C   0  0  2  0  0  0  0  0  0  0  0  0
   -2.4967    3.5576    7.0312 C   0  0  2  0  0  0  0  0  0  0  0  0
   -0.9987    3.8134    7.2715 C   0  0  0  0  0  0  0  0  0  0  0  0
   -1.2390    2.4867    8.0159 C   0  0  1  0  0  0  0  0  0  0  0  0
   -2.2363    2.6967    9.1521 C   0  0  1  0  0  0  0  0  0  0  0  0
   -1.6064    3.2962   10.4213 C   0  0  0  0  0  0  0  0  0  0  0  0
   -2.6192    3.7399   11.2992 O   0  0  0  0  0  0  0  0  0  0  0  0
   -3.2315    3.5755    8.3595 C   0  0  1  0  0  0  0  0  0  0  0  0
   -3.3674    4.9091    8.8049 O   0  0  0  0  0  0  0  0  0  0  0  0
    1.6300   -1.1382    1.8627 H   0  0  0  0  0  0  0  0  0  0  0  0
    0.5958    0.2154    1.4769 H   0  0  0  0  0  0  0  0  0  0  0  0
    1.2531   -1.8183    6.2857 H   0  0  0  0  0  0  0  0  0  0  0  0
   -2.3312    3.0730    4.0789 H   0  0  0  0  0  0  0  0  0  0  0  0
   -2.8031    1.3967    6.9250 H   0  0  0  0  0  0  0  0  0  0  0  0
   -2.9431    4.0884    6.1974 H   0  0  0  0  0  0  0  0  0  0  0  0
   -0.3403    3.7888    6.3986 H   0  0  0  0  0  0  0  0  0  0  0  0
   -0.7919    4.6707    7.9193 H   0  0  0  0  0  0  0  0  0  0  0  0
   -0.3501    1.8857    8.2129 H   0  0  0  0  0  0  0  0  0  0  0  0
   -2.7171    1.7509    9.4079 H   0  0  0  0  0  0  0  0  0  0  0  0
   -1.0041    2.5405   10.9268 H   0  0  0  0  0  0  0  0  0  0  0  0
   -0.9392    4.1265   10.1884 H   0  0  0  0  0  0  0  0  0  0  0  0
   -2.8004    3.0491   11.9413 H   0  0  0  0  0  0  0  0  0  0  0  0
   -4.2144    3.1061    8.2919 H   0  0  0  0  0  0  0  0  0  0  0  0
   -3.6751    4.8883    9.7028 H   0  0  0  0  0  0  0  0  0  0  0  0
  1  2  1  0
  1 21  1  0
  1 20  1  0
  2  3  1  0
  2  7  2  0
  3  4  2  0
  4 22  1  0
  4  5  1  0
  5  6  2  0
  6 10  1  0
  6  7  1  0
  7  8  1  0
  8  9  2  0
  9 23  1  0
  9 10  1  0
 10 11  1  0
 11 14  1  0
 11 12  1  0
 11 24  1  1
 12 18  1  0
 12 13  1  0
 12 25  1  6
 13 14  1  0
 13 26  1  0
 13 27  1  0
 14 15  1  0
 14 28  1  1
 15 16  1  0
 15 18  1  0
 15 29  1  1
 16 17  1  0
 16 30  1  0
 16 31  1  0
 17 32  1  0
 18 19  1  0
 18 33  1  6
 19 34  1  0
M  END
>  <i_m_ct_stereo_status>  (47) 
1

>  <s_m_source_file>  (47) 
/var/tmp/pbs.5076255.sched01/tmp7dv9smms/08akalw19.sdf

>  <i_m_source_file_index>  (47) 
17

>  <i_lp_mmshare_version>  (47) 
48012

>  <i_f3d_flags>  (47) 
0

>  <s_epik_input>  (47) 
bjFbY0hdW25IXS9jKD1OXFtIXSljKGMxMiluW2NIXW4yW0NASF0oW0NASF0zNClbQ0BASF0oW0NIMl0zKVtDQEBIXShbQ0gyXVtPSF0pW0NASF00W09IXQ==

>  <s_epik_cmdline>  (47) 
J2VwaWtfcHl0aG9uJywgJy1waHQnLCAnMi4wJywgJy1waCcsICc3LjAnLCAnLXRuJywgJzgnLCAnLW1hJywgJzIwMCcsICctaW1hZScsICc8aW5maWxlLm1hZT4nLCAnLW9tYWUnLCAnPG91dGZpbGUubWFlPic=

>  <r_lp_tautomer_probability>  (47) 
1

>  <r_epik_Ionization_Penalty>  (47) 
0.0015233

>  <r_epik_Ionization_Penalty_Charging>  (47) 
0

>  <r_epik_Ionization_Penalty_Neutral>  (47) 
0.0015233

>  <r_epik_State_Penalty>  (47) 
-0

>  <r_epik_Charging_Adjusted_Penalty>  (47) 
0

>  <i_epik_Tot_Q>  (47) 
0

>  <i_epik_Tot_abs_Q>  (47) 
0

>  <s_lp_Force_Field>  (47) 
OPLS3e

>  <r_lp_Energy>  (47) 
46.3812

>  <b_lp_Chiralities_Consistent>  (47) 
1

>  <s_lp_Variant>  (47) 
7:0-1

>  <s_i_glide_gridfile>  (47) 
pfpi4k_grid

>  <i_i_glide_lignum>  (47) 
17

>  <i_i_glide_rotatable_bonds>  (47) 
4

>  <r_i_docking_score>  (47) 
-3.50317

>  <r_i_glide_ligand_efficiency>  (47) 
-0.184377

>  <r_i_glide_ligand_efficiency_sa>  (47) 
-0.491992

>  <r_i_glide_ligand_efficiency_ln>  (47) 
-0.888128

>  <r_i_glide_gscore>  (47) 
-3.50317

>  <r_i_glide_lipo>  (47) 
-0.174517

>  <r_i_glide_hbond>  (47) 
0

>  <r_i_glide_metal>  (47) 
-0

>  <r_i_glide_rewards>  (47) 
-2.12764

>  <r_i_glide_evdw>  (47) 
-17.1131

>  <r_i_glide_ecoul>  (47) 
-4.8614

>  <r_i_glide_erotb>  (47) 
0.519095

>  <r_i_glide_esite>  (47) 
-0.13524

>  <r_i_glide_emodel>  (47) 
-32.097

>  <r_i_glide_energy>  (47) 
-21.9745

>  <r_i_glide_einternal>  (47) 
2.48702

>  <r_i_glide_intrahb_reward>  (47) 
-0.5

>  <i_i_glide_confnum>  (47) 
2

>  <i_i_glide_posenum>  (47) 
18

>  <r_i_glide_eff_state_penalty>  (47) 
0

>  <ligand_id>  (47) 
7

>  <original_smiles>  (47) 
N=c1[nH]cnc2c1ncn2C1C2CC1C(CO)C2O

>  <smiles>  (47) 
[H]OC([H])([H])C1([H])C([H])(O[H])C2([H])C([H])([H])C1([H])C2([H])n1c([H])nc2c(N([H])[H])nc([H])nc21

$$$$
7:0:2
     RDKit          3D

 34 37  0  0  1  0  0  0  0  0999 V2000
   -0.9017    1.5843    2.5572 N   0  0  0  0  0  0  0  0  0  0  0  0
   -1.0318    1.1453    3.8182 C   0  0  0  0  0  0  0  0  0  0  0  0
   -0.9818   -0.1827    4.0661 N   0  0  0  0  0  0  0  0  0  0  0  0
   -1.1210   -0.6295    5.3162 C   0  0  0  0  0  0  0  0  0  0  0  0
   -1.3092    0.0740    6.4415 N   0  0  0  0  0  0  0  0  0  0  0  0
   -1.3343    1.4180    6.1864 C   0  0  0  0  0  0  0  0  0  0  0  0
   -1.2201    2.0262    4.9065 C   0  0  0  0  0  0  0  0  0  0  0  0
   -1.3352    3.4037    5.0128 N   0  0  0  0  0  0  0  0  0  0  0  0
   -1.4916    3.5921    6.2900 C   0  0  0  0  0  0  0  0  0  0  0  0
   -1.4899    2.4656    7.0786 N   0  0  0  0  0  0  0  0  0  0  0  0
   -1.6546    2.3860    8.5124 C   0  0  2  0  0  0  0  0  0  0  0  0
   -2.0447    3.5685    9.4152 C   0  0  2  0  0  0  0  0  0  0  0  0
   -0.5562    3.9452    9.3012 C   0  0  0  0  0  0  0  0  0  0  0  0
   -0.5015    2.4278    9.5349 C   0  0  1  0  0  0  0  0  0  0  0  0
   -1.0689    2.1130   10.9148 C   0  0  1  0  0  0  0  0  0  0  0  0
   -0.0718    2.3570   12.0650 C   0  0  0  0  0  0  0  0  0  0  0  0
    0.8712    1.3023   12.0956 O   0  0  0  0  0  0  0  0  0  0  0  0
   -2.3012    3.0485   10.8176 C   0  0  1  0  0  0  0  0  0  0  0  0
   -2.3234    4.1372   11.7251 O   0  0  0  0  0  0  0  0  0  0  0  0
   -0.7509    0.9409    1.7958 H   0  0  0  0  0  0  0  0  0  0  0  0
   -0.8955    2.5821    2.3832 H   0  0  0  0  0  0  0  0  0  0  0  0
   -1.0506   -1.7063    5.4209 H   0  0  0  0  0  0  0  0  0  0  0  0
   -1.6176    4.5744    6.7134 H   0  0  0  0  0  0  0  0  0  0  0  0
   -2.3108    1.5335    8.6852 H   0  0  0  0  0  0  0  0  0  0  0  0
   -2.7627    4.2724    8.9987 H   0  0  0  0  0  0  0  0  0  0  0  0
   -0.1627    4.3099    8.3526 H   0  0  0  0  0  0  0  0  0  0  0  0
   -0.1957    4.5546   10.1319 H   0  0  0  0  0  0  0  0  0  0  0  0
    0.4204    1.9338    9.2293 H   0  0  0  0  0  0  0  0  0  0  0  0
   -1.3911    1.0732   10.9602 H   0  0  0  0  0  0  0  0  0  0  0  0
    0.4566    3.3039   11.9471 H   0  0  0  0  0  0  0  0  0  0  0  0
   -0.5882    2.3849   13.0250 H   0  0  0  0  0  0  0  0  0  0  0  0
    0.4135    0.5153   12.3573 H   0  0  0  0  0  0  0  0  0  0  0  0
   -3.2399    2.4962   10.8837 H   0  0  0  0  0  0  0  0  0  0  0  0
   -2.5866    3.7690   12.5604 H   0  0  0  0  0  0  0  0  0  0  0  0
  1  2  1  0
  1 21  1  0
  1 20  1  0
  2  3  1  0
  2  7  2  0
  3  4  2  0
  4 22  1  0
  4  5  1  0
  5  6  2  0
  6 10  1  0
  6  7  1  0
  7  8  1  0
  8  9  2  0
  9 23  1  0
  9 10  1  0
 10 11  1  0
 11 14  1  0
 11 12  1  0
 11 24  1  6
 12 18  1  0
 12 13  1  0
 12 25  1  6
 13 14  1  0
 13 26  1  0
 13 27  1  0
 14 15  1  0
 14 28  1  6
 15 16  1  0
 15 18  1  0
 15 29  1  6
 16 17  1  0
 16 30  1  0
 16 31  1  0
 17 32  1  0
 18 19  1  0
 18 33  1  6
 19 34  1  0
M  END
>  <i_m_ct_stereo_status>  (48) 
1

>  <s_m_source_file>  (48) 
/var/tmp/pbs.5076255.sched01/tmp7dv9smms/08akalw19.sdf

>  <i_m_source_file_index>  (48) 
17

>  <i_lp_mmshare_version>  (48) 
48012

>  <i_f3d_flags>  (48) 
0

>  <s_epik_input>  (48) 
bjFbY0hdW25IXS9jKD1OXFtIXSljKGMxMiluW2NIXW4yW0NASF0oW0NASF0zNClbQ0BASF0oW0NIMl0zKVtDQEBIXShbQ0gyXVtPSF0pW0NASF00W09IXQ==

>  <s_epik_cmdline>  (48) 
J2VwaWtfcHl0aG9uJywgJy1waHQnLCAnMi4wJywgJy1waCcsICc3LjAnLCAnLXRuJywgJzgnLCAnLW1hJywgJzIwMCcsICctaW1hZScsICc8aW5maWxlLm1hZT4nLCAnLW9tYWUnLCAnPG91dGZpbGUubWFlPic=

>  <r_lp_tautomer_probability>  (48) 
1

>  <r_epik_Ionization_Penalty>  (48) 
0.0015233

>  <r_epik_Ionization_Penalty_Charging>  (48) 
0

>  <r_epik_Ionization_Penalty_Neutral>  (48) 
0.0015233

>  <r_epik_State_Penalty>  (48) 
-0

>  <r_epik_Charging_Adjusted_Penalty>  (48) 
0

>  <i_epik_Tot_Q>  (48) 
0

>  <i_epik_Tot_abs_Q>  (48) 
0

>  <s_lp_Force_Field>  (48) 
OPLS3e

>  <r_lp_Energy>  (48) 
46.3812

>  <b_lp_Chiralities_Consistent>  (48) 
1

>  <s_lp_Variant>  (48) 
7:0-1

>  <s_i_glide_gridfile>  (48) 
pfpi4k_grid

>  <i_i_glide_lignum>  (48) 
17

>  <i_i_glide_rotatable_bonds>  (48) 
4

>  <r_i_docking_score>  (48) 
-3.31365

>  <r_i_glide_ligand_efficiency>  (48) 
-0.174403

>  <r_i_glide_ligand_efficiency_sa>  (48) 
-0.465377

>  <r_i_glide_ligand_efficiency_ln>  (48) 
-0.840083

>  <r_i_glide_gscore>  (48) 
-3.31365

>  <r_i_glide_lipo>  (48) 
0

>  <r_i_glide_hbond>  (48) 
-0.252262

>  <r_i_glide_metal>  (48) 
-0

>  <r_i_glide_rewards>  (48) 
-1.67697

>  <r_i_glide_evdw>  (48) 
-17.376

>  <r_i_glide_ecoul>  (48) 
-6.08304

>  <r_i_glide_erotb>  (48) 
0.519095

>  <r_i_glide_esite>  (48) 
-0.122259

>  <r_i_glide_emodel>  (48) 
-29.0691

>  <r_i_glide_energy>  (48) 
-23.4591

>  <r_i_glide_einternal>  (48) 
1.71938

>  <r_i_glide_intrahb_reward>  (48) 
-0

>  <i_i_glide_confnum>  (48) 
6

>  <i_i_glide_posenum>  (48) 
28

>  <r_i_glide_eff_state_penalty>  (48) 
0

>  <ligand_id>  (48) 
7

>  <original_smiles>  (48) 
N=c1[nH]cnc2c1ncn2C1C2CC1C(CO)C2O

>  <smiles>  (48) 
[H]OC([H])([H])C1([H])C([H])(O[H])C2([H])C([H])([H])C1([H])C2([H])n1c([H])nc2c(N([H])[H])nc([H])nc21

$$$$
8:0:0
     RDKit          3D

 61 66  0  0  1  0  0  0  0  0999 V2000
    2.2163   -7.6630    2.5949 C   0  0  0  0  0  0  0  0  0  0  0  0
    3.5810   -7.6752    1.8767 C   0  0  0  0  0  0  0  0  0  0  0  0
    3.8550   -9.0698    1.2772 C   0  0  0  0  0  0  0  0  0  0  0  0
    4.7841   -7.1443    2.7198 C   0  0  2  0  0  0  0  0  0  0  0  0
    5.0133   -7.9753    3.9856 C   0  0  0  0  0  0  0  0  0  0  0  0
    4.5300   -7.1163    5.1555 C   0  0  0  0  0  0  0  0  0  0  0  0
    4.0190   -5.9121    4.5240 N   0  0  0  0  0  0  0  0  0  0  0  0
    3.8783   -4.7630    5.4129 C   0  0  0  0  0  0  0  0  0  0  0  0
    2.8500   -3.5031    4.6056 S   0  0  0  0  0  0  0  0  0  0  0  0
    3.1109   -3.7761    2.8674 C   0  0  0  0  0  0  0  0  0  0  0  0
    2.6196   -3.0731    1.8428 C   0  0  0  0  0  0  0  0  0  0  0  0
    1.8284   -1.8927    1.9860 C   0  0  0  0  0  0  0  0  0  0  0  0
    1.1504   -0.9672    2.1782 N   0  0  0  0  0  0  0  0  0  0  0  0
    3.1685   -3.5744    0.5339 C   0  0  1  0  0  0  0  0  0  0  0  0
    2.2234   -4.5711   -0.1417 C   0  0  0  0  0  0  0  0  0  0  0  0
    1.7469   -5.5532    0.4027 O   0  0  0  0  0  0  0  0  0  0  0  0
    1.8654   -4.1665   -1.3657 N   0  0  0  0  0  0  0  0  0  0  0  0
    2.5870   -3.0573   -1.7353 C   0  0  0  0  0  0  0  0  0  0  0  0
    2.5594   -2.4187   -2.9830 C   0  0  0  0  0  0  0  0  0  0  0  0
    3.3266   -1.2464   -3.1097 C   0  0  0  0  0  0  0  0  0  0  0  0
    4.0549   -0.7553   -2.0028 C   0  0  0  0  0  0  0  0  0  0  0  0
    4.0151   -1.3964   -0.7508 C   0  0  0  0  0  0  0  0  0  0  0  0
    3.3284   -2.6137   -0.6483 C   0  0  0  0  0  0  0  0  0  0  0  0
    4.3875   -4.3965    1.0622 C   0  0  1  0  0  0  0  0  0  0  0  0
    5.6696   -3.6234    0.8922 C   0  0  0  0  0  0  0  0  0  0  0  0
    5.8588   -2.3488    1.4550 C   0  0  0  0  0  0  0  0  0  0  0  0
    7.0077   -1.6314    1.1656 C   0  0  0  0  0  0  0  0  0  0  0  0
    8.0479   -2.1993    0.4298 C   0  0  0  0  0  0  0  0  0  0  0  0
    7.8411   -3.4832   -0.0929 C   0  0  0  0  0  0  0  0  0  0  0  0
    9.0272   -4.2472   -1.0595 Cl  0  0  0  0  0  0  0  0  0  0  0  0
    6.6707   -4.2093    0.1220 C   0  0  0  0  0  0  0  0  0  0  0  0
    4.0531   -4.7046    2.4577 N   0  0  0  0  0  0  0  0  0  0  0  0
    4.7661   -5.6937    3.2848 C   0  0  2  0  0  0  0  0  0  0  0  0
    6.2048   -5.2053    3.5761 C   0  0  0  0  0  0  0  0  0  0  0  0
    2.2121   -8.3038    3.4767 H   0  0  0  0  0  0  0  0  0  0  0  0
    1.4252   -8.0105    1.9295 H   0  0  0  0  0  0  0  0  0  0  0  0
    1.9496   -6.6567    2.9136 H   0  0  0  0  0  0  0  0  0  0  0  0
    3.4842   -7.0376    1.0067 H   0  0  0  0  0  0  0  0  0  0  0  0
    3.9117   -9.8506    2.0380 H   0  0  0  0  0  0  0  0  0  0  0  0
    4.7909   -9.0919    0.7152 H   0  0  0  0  0  0  0  0  0  0  0  0
    3.0633   -9.3760    0.5924 H   0  0  0  0  0  0  0  0  0  0  0  0
    5.6539   -7.2489    2.0684 H   0  0  0  0  0  0  0  0  0  0  0  0
    4.5128   -8.9372    3.9778 H   0  0  0  0  0  0  0  0  0  0  0  0
    6.0720   -8.1817    4.1154 H   0  0  0  0  0  0  0  0  0  0  0  0
    3.7340   -7.6029    5.7155 H   0  0  0  0  0  0  0  0  0  0  0  0
    5.3488   -6.8795    5.8314 H   0  0  0  0  0  0  0  0  0  0  0  0
    3.3716   -5.0625    6.3248 H   0  0  0  0  0  0  0  0  0  0  0  0
    4.8500   -4.3602    5.6929 H   0  0  0  0  0  0  0  0  0  0  0  0
    1.2234   -4.6496   -1.9773 H   0  0  0  0  0  0  0  0  0  0  0  0
    1.9444   -2.7878   -3.7872 H   0  0  0  0  0  0  0  0  0  0  0  0
    3.2806   -0.6568   -4.0077 H   0  0  0  0  0  0  0  0  0  0  0  0
    4.5775    0.1746   -2.0698 H   0  0  0  0  0  0  0  0  0  0  0  0
    4.4590   -0.8995    0.0955 H   0  0  0  0  0  0  0  0  0  0  0  0
    4.4910   -5.3159    0.5021 H   0  0  0  0  0  0  0  0  0  0  0  0
    5.1062   -1.9176    2.0938 H   0  0  0  0  0  0  0  0  0  0  0  0
    7.1495   -0.6454    1.6093 H   0  0  0  0  0  0  0  0  0  0  0  0
    9.0019   -1.7075    0.2959 H   0  0  0  0  0  0  0  0  0  0  0  0
    6.5755   -5.1866   -0.3145 H   0  0  0  0  0  0  0  0  0  0  0  0
    6.1807   -4.1752    3.9226 H   0  0  0  0  0  0  0  0  0  0  0  0
    6.8212   -5.2327    2.6761 H   0  0  0  0  0  0  0  0  0  0  0  0
    6.7198   -5.8106    4.3248 H   0  0  0  0  0  0  0  0  0  0  0  0
  1  2  1  0
  1 35  1  0
  1 36  1  0
  1 37  1  0
  2  3  1  0
  2  4  1  0
  2 38  1  0
  3 39  1  0
  3 40  1  0
  3 41  1  0
  4 33  1  0
  4  5  1  0
  4 42  1  6
  5  6  1  0
  5 43  1  0
  5 44  1  0
  6  7  1  0
  6 45  1  0
  6 46  1  0
  7 33  1  0
  7  8  1  0
  8  9  1  0
  8 47  1  0
  8 48  1  0
  9 10  1  0
 10 32  1  0
 10 11  2  0
 11 12  1  0
 14 11  1  1
 12 13  3  0
 14 23  1  0
 14 15  1  0
 14 24  1  0
 15 16  2  0
 15 17  1  0
 17 18  1  0
 17 49  1  0
 18 23  2  0
 18 19  1  0
 19 20  2  0
 19 50  1  0
 20 21  1  0
 20 51  1  0
 21 22  2  0
 21 52  1  0
 22 23  1  0
 22 53  1  0
 24 25  1  0
 24 32  1  0
 24 54  1  6
 25 31  1  0
 25 26  2  0
 26 27  1  0
 26 55  1  0
 27 28  2  0
 27 56  1  0
 28 29  1  0
 28 57  1  0
 29 30  1  0
 29 31  2  0
 31 58  1  0
 32 33  1  0
 33 34  1  1
 34 59  1  0
 34 60  1  0
 34 61  1  0
M  END
>  <i_m_ct_stereo_status>  (49) 
1

>  <s_m_source_file>  (49) 
/var/tmp/pbs.5076255.sched01/tmp7dv9smms/08akalw19.sdf

>  <i_m_source_file_index>  (49) 
18

>  <i_lp_mmshare_version>  (49) 
48012

>  <i_f3d_flags>  (49) 
0

>  <s_epik_input>  (49) 
W0NIM11bQ0hdKFtDSDNdKVtDQEBIXTFbQ0gyXVtDSDJdTihbQ0gyXVMyKVtDQF0xKFtDSDNdKU4oW0NAQEhdM2M0W2NIXVtjSF1bY0hdYyhDbClbY0hdNClDMj1DKEMjTilbQ0BAXTM1YzZjKFtOSF1DNT1PKVtjSF1bY0hdW2NIXVtjSF02

>  <s_epik_cmdline>  (49) 
J2VwaWtfcHl0aG9uJywgJy1waHQnLCAnMi4wJywgJy1waCcsICc3LjAnLCAnLXRuJywgJzgnLCAnLW1hJywgJzIwMCcsICctaW1hZScsICc8aW5maWxlLm1hZT4nLCAnLW9tYWUnLCAnPG91dGZpbGUubWFlPic=

>  <r_lp_tautomer_probability>  (49) 
1

>  <r_epik_Ionization_Penalty>  (49) 
3.993e-05

>  <r_epik_Ionization_Penalty_Charging>  (49) 
0

>  <r_epik_Ionization_Penalty_Neutral>  (49) 
3.993e-05

>  <r_epik_State_Penalty>  (49) 
-0

>  <r_epik_Charging_Adjusted_Penalty>  (49) 
0

>  <i_epik_Tot_Q>  (49) 
0

>  <i_epik_Tot_abs_Q>  (49) 
0

>  <s_epik_Chemistry_Notes>  (49) 
This compound contains an acetal/aminal-like group ( X-CH(R)-Y where X, Y are N, S, or O) that may be acid/base labile, releasing an aldehyde.

>  <s_lp_Force_Field>  (49) 
OPLS3e

>  <r_lp_Energy>  (49) 
44.281

>  <b_lp_Chiralities_Consistent>  (49) 
1

>  <s_lp_Variant>  (49) 
8:0-1

>  <s_i_glide_gridfile>  (49) 
pfpi4k_grid

>  <i_i_glide_lignum>  (49) 
18

>  <i_i_glide_rotatable_bonds>  (49) 
3

>  <r_i_docking_score>  (49) 
-2.48659

>  <r_i_glide_ligand_efficiency>  (49) 
-0.073135

>  <r_i_glide_ligand_efficiency_sa>  (49) 
-0.236929

>  <r_i_glide_ligand_efficiency_ln>  (49) 
-0.549358

>  <r_i_glide_gscore>  (49) 
-2.48659

>  <r_i_glide_lipo>  (49) 
-0.701295

>  <r_i_glide_hbond>  (49) 
-0.2558

>  <r_i_glide_metal>  (49) 
-0

>  <r_i_glide_rewards>  (49) 
-0.0610351

>  <r_i_glide_evdw>  (49) 
-14.4538

>  <r_i_glide_ecoul>  (49) 
-4.4337

>  <r_i_glide_erotb>  (49) 
0.0844149

>  <r_i_glide_esite>  (49) 
-0.165132

>  <r_i_glide_emodel>  (49) 
-20.8426

>  <r_i_glide_energy>  (49) 
-18.8875

>  <r_i_glide_einternal>  (49) 
0.556823

>  <r_i_glide_intrahb_reward>  (49) 
-0

>  <i_i_glide_confnum>  (49) 
3

>  <i_i_glide_posenum>  (49) 
36

>  <r_i_glide_eff_state_penalty>  (49) 
0

>  <ligand_id>  (49) 
8

>  <original_smiles>  (49) 
CC(C)C1CCN2CSC3=C(C#N)C4(C(=O)Nc5ccccc54)C(c4cccc(Cl)c4)N3C12C

>  <smiles>  (49) 
[H]c1c([H])c([H])c2c(c1[H])N([H])C(=O)C21C(C#N)=C2SC([H])([H])N3C([H])([H])C([H])([H])C([H])(C([H])(C([H])([H])[H])C([H])([H])[H])C3(C([H])([H])[H])N2C1([H])c1c([H])c([H])c([H])c(Cl)c1[H]

$$$$
8:0:1
     RDKit          3D

 61 66  0  0  1  0  0  0  0  0999 V2000
    4.1164   -2.1856    5.6100 C   0  0  0  0  0  0  0  0  0  0  0  0
    4.2228   -1.1719    6.7633 C   0  0  0  0  0  0  0  0  0  0  0  0
    5.6521   -1.1711    7.3433 C   0  0  0  0  0  0  0  0  0  0  0  0
    3.1383   -1.3154    7.8798 C   0  0  2  0  0  0  0  0  0  0  0  0
    3.1514   -2.7090    8.5294 C   0  0  0  0  0  0  0  0  0  0  0  0
    1.9122   -3.4312    7.9917 C   0  0  0  0  0  0  0  0  0  0  0  0
    1.3100   -2.4788    7.0692 N   0  0  0  0  0  0  0  0  0  0  0  0
   -0.0800   -2.7511    6.7350 C   0  0  0  0  0  0  0  0  0  0  0  0
   -0.5663   -1.7533    5.3007 S   0  0  0  0  0  0  0  0  0  0  0  0
    0.4990   -0.3400    5.3548 C   0  0  0  0  0  0  0  0  0  0  0  0
    0.5345    0.6942    4.5151 C   0  0  0  0  0  0  0  0  0  0  0  0
   -0.3000    0.8718    3.3801 C   0  0  0  0  0  0  0  0  0  0  0  0
   -0.9843    0.9914    2.4553 N   0  0  0  0  0  0  0  0  0  0  0  0
    1.5419    1.7162    4.9697 C   0  0  1  0  0  0  0  0  0  0  0  0
    2.8643    1.5465    4.1867 C   0  0  0  0  0  0  0  0  0  0  0  0
    3.3946    0.4606    3.9595 O   0  0  0  0  0  0  0  0  0  0  0  0
    3.2880    2.7067    3.6872 N   0  0  0  0  0  0  0  0  0  0  0  0
    2.3683    3.7126    3.9422 C   0  0  0  0  0  0  0  0  0  0  0  0
    2.4332    5.0530    3.5312 C   0  0  0  0  0  0  0  0  0  0  0  0
    1.3493    5.8857    3.8771 C   0  0  0  0  0  0  0  0  0  0  0  0
    0.2410    5.3699    4.5853 C   0  0  0  0  0  0  0  0  0  0  0  0
    0.1853    4.0099    4.9585 C   0  0  0  0  0  0  0  0  0  0  0  0
    1.2968    3.1917    4.6609 C   0  0  0  0  0  0  0  0  0  0  0  0
    1.7337    1.2623    6.4630 C   0  0  1  0  0  0  0  0  0  0  0  0
    0.9429    2.1063    7.4713 C   0  0  0  0  0  0  0  0  0  0  0  0
    1.6041    2.8534    8.4720 C   0  0  0  0  0  0  0  0  0  0  0  0
    0.8509    3.6070    9.3994 C   0  0  0  0  0  0  0  0  0  0  0  0
   -0.5552    3.6311    9.3240 C   0  0  0  0  0  0  0  0  0  0  0  0
   -1.2172    2.8904    8.3301 C   0  0  0  0  0  0  0  0  0  0  0  0
   -2.9348    2.9452    8.1835 Cl  0  0  0  0  0  0  0  0  0  0  0  0
   -0.4692    2.1137    7.4299 C   0  0  0  0  0  0  0  0  0  0  0  0
    1.3370   -0.1609    6.4457 N   0  0  0  0  0  0  0  0  0  0  0  0
    1.6289   -1.1229    7.5213 C   0  0  2  0  0  0  0  0  0  0  0  0
    0.8180   -0.7567    8.7952 C   0  0  0  0  0  0  0  0  0  0  0  0
    4.2397   -3.2159    5.9484 H   0  0  0  0  0  0  0  0  0  0  0  0
    4.8818   -1.9972    4.8546 H   0  0  0  0  0  0  0  0  0  0  0  0
    3.1523   -2.1120    5.1071 H   0  0  0  0  0  0  0  0  0  0  0  0
    4.1157   -0.1916    6.3190 H   0  0  0  0  0  0  0  0  0  0  0  0
    5.9330   -2.1348    7.7695 H   0  0  0  0  0  0  0  0  0  0  0  0
    5.7662   -0.4187    8.1246 H   0  0  0  0  0  0  0  0  0  0  0  0
    6.3856   -0.9407    6.5703 H   0  0  0  0  0  0  0  0  0  0  0  0
    3.4021   -0.5745    8.6380 H   0  0  0  0  0  0  0  0  0  0  0  0
    4.0591   -3.2725    8.3258 H   0  0  0  0  0  0  0  0  0  0  0  0
    3.0782   -2.6227    9.6119 H   0  0  0  0  0  0  0  0  0  0  0  0
    2.1755   -4.3511    7.4668 H   0  0  0  0  0  0  0  0  0  0  0  0
    1.2288   -3.6801    8.8058 H   0  0  0  0  0  0  0  0  0  0  0  0
   -0.2128   -3.8041    6.4741 H   0  0  0  0  0  0  0  0  0  0  0  0
   -0.7271   -2.5457    7.5844 H   0  0  0  0  0  0  0  0  0  0  0  0
    4.0876    2.8144    3.0622 H   0  0  0  0  0  0  0  0  0  0  0  0
    3.2783    5.4214    2.9673 H   0  0  0  0  0  0  0  0  0  0  0  0
    1.3588    6.9253    3.5831 H   0  0  0  0  0  0  0  0  0  0  0  0
   -0.5814    6.0170    4.8395 H   0  0  0  0  0  0  0  0  0  0  0  0
   -0.6905    3.6334    5.4638 H   0  0  0  0  0  0  0  0  0  0  0  0
    2.7852    1.3498    6.7373 H   0  0  0  0  0  0  0  0  0  0  0  0
    2.6838    2.8405    8.5414 H   0  0  0  0  0  0  0  0  0  0  0  0
    1.3552    4.1663   10.1759 H   0  0  0  0  0  0  0  0  0  0  0  0
   -1.1281    4.2159   10.0236 H   0  0  0  0  0  0  0  0  0  0  0  0
   -0.9925    1.5634    6.6641 H   0  0  0  0  0  0  0  0  0  0  0  0
   -0.2277   -0.5656    8.5537 H   0  0  0  0  0  0  0  0  0  0  0  0
    1.2024    0.1536    9.2546 H   0  0  0  0  0  0  0  0  0  0  0  0
    0.8540   -1.5251    9.5682 H   0  0  0  0  0  0  0  0  0  0  0  0
  1  2  1  0
  1 35  1  0
  1 36  1  0
  1 37  1  0
  2  3  1  0
  2  4  1  0
  2 38  1  0
  3 39  1  0
  3 40  1  0
  3 41  1  0
  4 33  1  0
  4  5  1  0
  4 42  1  1
  5  6  1  0
  5 43  1  0
  5 44  1  0
  6  7  1  0
  6 45  1  0
  6 46  1  0
  7 33  1  0
  7  8  1  0
  8  9  1  0
  8 47  1  0
  8 48  1  0
  9 10  1  0
 10 32  1  0
 10 11  2  0
 11 12  1  0
 14 11  1  6
 12 13  3  0
 14 23  1  0
 14 15  1  0
 14 24  1  0
 15 16  2  0
 15 17  1  0
 17 18  1  0
 17 49  1  0
 18 23  2  0
 18 19  1  0
 19 20  2  0
 19 50  1  0
 20 21  1  0
 20 51  1  0
 21 22  2  0
 21 52  1  0
 22 23  1  0
 22 53  1  0
 24 25  1  0
 24 32  1  0
 24 54  1  1
 25 31  1  0
 25 26  2  0
 26 27  1  0
 26 55  1  0
 27 28  2  0
 27 56  1  0
 28 29  1  0
 28 57  1  0
 29 30  1  0
 29 31  2  0
 31 58  1  0
 32 33  1  0
 33 34  1  1
 34 59  1  0
 34 60  1  0
 34 61  1  0
M  END
>  <i_m_ct_stereo_status>  (50) 
1

>  <s_m_source_file>  (50) 
/var/tmp/pbs.5076255.sched01/tmp7dv9smms/08akalw19.sdf

>  <i_m_source_file_index>  (50) 
18

>  <i_lp_mmshare_version>  (50) 
48012

>  <i_f3d_flags>  (50) 
0

>  <s_epik_input>  (50) 
W0NIM11bQ0hdKFtDSDNdKVtDQEBIXTFbQ0gyXVtDSDJdTihbQ0gyXVMyKVtDQF0xKFtDSDNdKU4oW0NAQEhdM2M0W2NIXVtjSF1bY0hdYyhDbClbY0hdNClDMj1DKEMjTilbQ0BAXTM1YzZjKFtOSF1DNT1PKVtjSF1bY0hdW2NIXVtjSF02

>  <s_epik_cmdline>  (50) 
J2VwaWtfcHl0aG9uJywgJy1waHQnLCAnMi4wJywgJy1waCcsICc3LjAnLCAnLXRuJywgJzgnLCAnLW1hJywgJzIwMCcsICctaW1hZScsICc8aW5maWxlLm1hZT4nLCAnLW9tYWUnLCAnPG91dGZpbGUubWFlPic=

>  <r_lp_tautomer_probability>  (50) 
1

>  <r_epik_Ionization_Penalty>  (50) 
3.993e-05

>  <r_epik_Ionization_Penalty_Charging>  (50) 
0

>  <r_epik_Ionization_Penalty_Neutral>  (50) 
3.993e-05

>  <r_epik_State_Penalty>  (50) 
-0

>  <r_epik_Charging_Adjusted_Penalty>  (50) 
0

>  <i_epik_Tot_Q>  (50) 
0

>  <i_epik_Tot_abs_Q>  (50) 
0

>  <s_epik_Chemistry_Notes>  (50) 
This compound contains an acetal/aminal-like group ( X-CH(R)-Y where X, Y are N, S, or O) that may be acid/base labile, releasing an aldehyde.

>  <s_lp_Force_Field>  (50) 
OPLS3e

>  <r_lp_Energy>  (50) 
44.281

>  <b_lp_Chiralities_Consistent>  (50) 
1

>  <s_lp_Variant>  (50) 
8:0-1

>  <s_i_glide_gridfile>  (50) 
pfpi4k_grid

>  <i_i_glide_lignum>  (50) 
18

>  <i_i_glide_rotatable_bonds>  (50) 
3

>  <r_i_docking_score>  (50) 
-1.75628

>  <r_i_glide_ligand_efficiency>  (50) 
-0.0516552

>  <r_i_glide_ligand_efficiency_sa>  (50) 
-0.167343

>  <r_i_glide_ligand_efficiency_ln>  (50) 
-0.388011

>  <r_i_glide_gscore>  (50) 
-1.75628

>  <r_i_glide_lipo>  (50) 
-0.121713

>  <r_i_glide_hbond>  (50) 
-0.32

>  <r_i_glide_metal>  (50) 
-0

>  <r_i_glide_rewards>  (50) 
-0.0610351

>  <r_i_glide_evdw>  (50) 
-22.4035

>  <r_i_glide_ecoul>  (50) 
-1.06442

>  <r_i_glide_erotb>  (50) 
0.0844149

>  <r_i_glide_esite>  (50) 
-0.0581073

>  <r_i_glide_emodel>  (50) 
-25.4452

>  <r_i_glide_energy>  (50) 
-23.4679

>  <r_i_glide_einternal>  (50) 
0.339809

>  <r_i_glide_intrahb_reward>  (50) 
-0

>  <i_i_glide_confnum>  (50) 
4

>  <i_i_glide_posenum>  (50) 
5

>  <r_i_glide_eff_state_penalty>  (50) 
0

>  <ligand_id>  (50) 
8

>  <original_smiles>  (50) 
CC(C)C1CCN2CSC3=C(C#N)C4(C(=O)Nc5ccccc54)C(c4cccc(Cl)c4)N3C12C

>  <smiles>  (50) 
[H]c1c([H])c([H])c2c(c1[H])N([H])C(=O)C21C(C#N)=C2SC([H])([H])N3C([H])([H])C([H])([H])C([H])(C([H])(C([H])([H])[H])C([H])([H])[H])C3(C([H])([H])[H])N2C1([H])c1c([H])c([H])c([H])c(Cl)c1[H]

$$$$
8:0:2
     RDKit          3D

 61 66  0  0  1  0  0  0  0  0999 V2000
    4.6109    0.1041    5.7789 C   0  0  0  0  0  0  0  0  0  0  0  0
    4.0607   -1.3091    6.0971 C   0  0  0  0  0  0  0  0  0  0  0  0
    3.5553   -2.0356    4.8148 C   0  0  0  0  0  0  0  0  0  0  0  0
    3.0154   -1.3843    7.2817 C   0  0  2  0  0  0  0  0  0  0  0  0
    2.9855   -2.8216    7.8454 C   0  0  0  0  0  0  0  0  0  0  0  0
    1.6722   -3.4507    7.3803 C   0  0  0  0  0  0  0  0  0  0  0  0
    1.0476   -2.4061    6.5766 N   0  0  0  0  0  0  0  0  0  0  0  0
   -0.3793   -2.5884    6.3374 C   0  0  0  0  0  0  0  0  0  0  0  0
   -0.9318   -1.4824    5.0114 S   0  0  0  0  0  0  0  0  0  0  0  0
    0.2116   -0.1149    5.0659 C   0  0  0  0  0  0  0  0  0  0  0  0
    0.2306    0.9506    4.2786 C   0  0  0  0  0  0  0  0  0  0  0  0
   -0.6746    1.2195    3.1993 C   0  0  0  0  0  0  0  0  0  0  0  0
   -1.3797    1.4247    2.3158 N   0  0  0  0  0  0  0  0  0  0  0  0
    1.3202    1.9006    4.6816 C   0  0  1  0  0  0  0  0  0  0  0  0
    2.4846    1.7323    3.6665 C   0  0  0  0  0  0  0  0  0  0  0  0
    2.8617    0.6174    3.2461 O   0  0  0  0  0  0  0  0  0  0  0  0
    2.8905    2.8683    3.2285 N   0  0  0  0  0  0  0  0  0  0  0  0
    2.1601    3.9094    3.6921 C   0  0  0  0  0  0  0  0  0  0  0  0
    2.3276    5.2763    3.3946 C   0  0  0  0  0  0  0  0  0  0  0  0
    1.3216    6.1399    3.8894 C   0  0  0  0  0  0  0  0  0  0  0  0
    0.2415    5.6241    4.6520 C   0  0  0  0  0  0  0  0  0  0  0  0
    0.1225    4.2569    4.9574 C   0  0  0  0  0  0  0  0  0  0  0  0
    1.1431    3.4043    4.4876 C   0  0  0  0  0  0  0  0  0  0  0  0
    1.5965    1.3710    6.1564 C   0  0  1  0  0  0  0  0  0  0  0  0
    0.9439    2.1841    7.2583 C   0  0  0  0  0  0  0  0  0  0  0  0
    1.7398    2.8780    8.1960 C   0  0  0  0  0  0  0  0  0  0  0  0
    1.1282    3.6084    9.2344 C   0  0  0  0  0  0  0  0  0  0  0  0
   -0.2755    3.6442    9.3278 C   0  0  0  0  0  0  0  0  0  0  0  0
   -1.0740    2.9367    8.4007 C   0  0  0  0  0  0  0  0  0  0  0  0
   -2.8022    2.9844    8.4809 Cl  0  0  0  0  0  0  0  0  0  0  0  0
   -0.4616    2.1954    7.3801 C   0  0  0  0  0  0  0  0  0  0  0  0
    1.1448   -0.0460    6.0922 N   0  0  0  0  0  0  0  0  0  0  0  0
    1.4848   -1.0892    7.0716 C   0  0  2  0  0  0  0  0  0  0  0  0
    0.8011   -0.7757    8.4307 C   0  0  0  0  0  0  0  0  0  0  0  0
    3.7958    0.6491    5.3744 H   0  0  0  0  0  0  0  0  0  0  0  0
    5.3675    0.0846    4.9819 H   0  0  0  0  0  0  0  0  0  0  0  0
    4.9854    0.6095    6.6832 H   0  0  0  0  0  0  0  0  0  0  0  0
    4.9432   -1.8802    6.4336 H   0  0  0  0  0  0  0  0  0  0  0  0
    2.6405   -1.5966    4.4097 H   0  0  0  0  0  0  0  0  0  0  0  0
    3.3293   -3.0934    5.0100 H   0  0  0  0  0  0  0  0  0  0  0  0
    4.3085   -2.0024    4.0256 H   0  0  0  0  0  0  0  0  0  0  0  0
    3.3996   -0.7257    8.0558 H   0  0  0  0  0  0  0  0  0  0  0  0
    3.8434   -3.4111    7.5336 H   0  0  0  0  0  0  0  0  0  0  0  0
    3.0144   -2.8090    8.9308 H   0  0  0  0  0  0  0  0  0  0  0  0
    1.8394   -4.3456    6.7822 H   0  0  0  0  0  0  0  0  0  0  0  0
    1.0472   -3.7173    8.2320 H   0  0  0  0  0  0  0  0  0  0  0  0
   -0.5910   -3.6095    6.0249 H   0  0  0  0  0  0  0  0  0  0  0  0
   -0.9457   -2.3983    7.2457 H   0  0  0  0  0  0  0  0  0  0  0  0
    3.7492    2.9865    2.6628 H   0  0  0  0  0  0  0  0  0  0  0  0
    3.1400    5.6111    2.7705 H   0  0  0  0  0  0  0  0  0  0  0  0
    1.3761    7.1774    3.6479 H   0  0  0  0  0  0  0  0  0  0  0  0
   -0.5191    6.2911    5.0065 H   0  0  0  0  0  0  0  0  0  0  0  0
   -0.7057    3.8695    5.5151 H   0  0  0  0  0  0  0  0  0  0  0  0
    2.6285    1.4485    6.4496 H   0  0  0  0  0  0  0  0  0  0  0  0
    2.8188    2.8443    8.1355 H   0  0  0  0  0  0  0  0  0  0  0  0
    1.7462    4.1303    9.9529 H   0  0  0  0  0  0  0  0  0  0  0  0
   -0.7461    4.2085   10.1193 H   0  0  0  0  0  0  0  0  0  0  0  0
   -1.0738    1.6666    6.6630 H   0  0  0  0  0  0  0  0  0  0  0  0
   -0.2486   -0.5185    8.2841 H   0  0  0  0  0  0  0  0  0  0  0  0
    1.2766    0.0864    8.8969 H   0  0  0  0  0  0  0  0  0  0  0  0
    0.8622   -1.5989    9.1487 H   0  0  0  0  0  0  0  0  0  0  0  0
  1  2  1  0
  1 35  1  0
  1 36  1  0
  1 37  1  0
  2  3  1  0
  2  4  1  0
  2 38  1  0
  3 39  1  0
  3 40  1  0
  3 41  1  0
  4 33  1  0
  4  5  1  0
  4 42  1  1
  5  6  1  0
  5 43  1  0
  5 44  1  0
  6  7  1  0
  6 45  1  0
  6 46  1  0
  7 33  1  0
  7  8  1  0
  8  9  1  0
  8 47  1  0
  8 48  1  0
  9 10  1  0
 10 32  1  0
 10 11  2  0
 11 12  1  0
 14 11  1  6
 12 13  3  0
 14 23  1  0
 14 15  1  0
 14 24  1  0
 15 16  2  0
 15 17  1  0
 17 18  1  0
 17 49  1  0
 18 23  2  0
 18 19  1  0
 19 20  2  0
 19 50  1  0
 20 21  1  0
 20 51  1  0
 21 22  2  0
 21 52  1  0
 22 23  1  0
 22 53  1  0
 24 25  1  0
 24 32  1  0
 24 54  1  1
 25 31  1  0
 25 26  2  0
 26 27  1  0
 26 55  1  0
 27 28  2  0
 27 56  1  0
 28 29  1  0
 28 57  1  0
 29 30  1  0
 29 31  2  0
 31 58  1  0
 32 33  1  0
 33 34  1  1
 34 59  1  0
 34 60  1  0
 34 61  1  0
M  END
>  <i_m_ct_stereo_status>  (51) 
1

>  <s_m_source_file>  (51) 
/var/tmp/pbs.5076255.sched01/tmp7dv9smms/08akalw19.sdf

>  <i_m_source_file_index>  (51) 
18

>  <i_lp_mmshare_version>  (51) 
48012

>  <i_f3d_flags>  (51) 
0

>  <s_epik_input>  (51) 
W0NIM11bQ0hdKFtDSDNdKVtDQEBIXTFbQ0gyXVtDSDJdTihbQ0gyXVMyKVtDQF0xKFtDSDNdKU4oW0NAQEhdM2M0W2NIXVtjSF1bY0hdYyhDbClbY0hdNClDMj1DKEMjTilbQ0BAXTM1YzZjKFtOSF1DNT1PKVtjSF1bY0hdW2NIXVtjSF02

>  <s_epik_cmdline>  (51) 
J2VwaWtfcHl0aG9uJywgJy1waHQnLCAnMi4wJywgJy1waCcsICc3LjAnLCAnLXRuJywgJzgnLCAnLW1hJywgJzIwMCcsICctaW1hZScsICc8aW5maWxlLm1hZT4nLCAnLW9tYWUnLCAnPG91dGZpbGUubWFlPic=

>  <r_lp_tautomer_probability>  (51) 
1

>  <r_epik_Ionization_Penalty>  (51) 
3.993e-05

>  <r_epik_Ionization_Penalty_Charging>  (51) 
0

>  <r_epik_Ionization_Penalty_Neutral>  (51) 
3.993e-05

>  <r_epik_State_Penalty>  (51) 
-0

>  <r_epik_Charging_Adjusted_Penalty>  (51) 
0

>  <i_epik_Tot_Q>  (51) 
0

>  <i_epik_Tot_abs_Q>  (51) 
0

>  <s_epik_Chemistry_Notes>  (51) 
This compound contains an acetal/aminal-like group ( X-CH(R)-Y where X, Y are N, S, or O) that may be acid/base labile, releasing an aldehyde.

>  <s_lp_Force_Field>  (51) 
OPLS3e

>  <r_lp_Energy>  (51) 
44.281

>  <b_lp_Chiralities_Consistent>  (51) 
1

>  <s_lp_Variant>  (51) 
8:0-1

>  <s_i_glide_gridfile>  (51) 
pfpi4k_grid

>  <i_i_glide_lignum>  (51) 
18

>  <i_i_glide_rotatable_bonds>  (51) 
3

>  <r_i_docking_score>  (51) 
-1.30387

>  <r_i_glide_ligand_efficiency>  (51) 
-0.0383491

>  <r_i_glide_ligand_efficiency_sa>  (51) 
-0.124236

>  <r_i_glide_ligand_efficiency_ln>  (51) 
-0.288061

>  <r_i_glide_gscore>  (51) 
-1.30387

>  <r_i_glide_lipo>  (51) 
-0.0869914

>  <r_i_glide_hbond>  (51) 
-0.32

>  <r_i_glide_metal>  (51) 
-0

>  <r_i_glide_rewards>  (51) 
-0.0610351

>  <r_i_glide_evdw>  (51) 
-24.3869

>  <r_i_glide_ecoul>  (51) 
-0.202793

>  <r_i_glide_erotb>  (51) 
0.0844149

>  <r_i_glide_esite>  (51) 
-0.0830962

>  <r_i_glide_emodel>  (51) 
-20.6091

>  <r_i_glide_energy>  (51) 
-24.5897

>  <r_i_glide_einternal>  (51) 
1.62981

>  <r_i_glide_intrahb_reward>  (51) 
-0

>  <i_i_glide_confnum>  (51) 
4

>  <i_i_glide_posenum>  (51) 
14

>  <r_i_glide_eff_state_penalty>  (51) 
0

>  <ligand_id>  (51) 
8

>  <original_smiles>  (51) 
CC(C)C1CCN2CSC3=C(C#N)C4(C(=O)Nc5ccccc54)C(c4cccc(Cl)c4)N3C12C

>  <smiles>  (51) 
[H]c1c([H])c([H])c2c(c1[H])N([H])C(=O)C21C(C#N)=C2SC([H])([H])N3C([H])([H])C([H])([H])C([H])(C([H])(C([H])([H])[H])C([H])([H])[H])C3(C([H])([H])[H])N2C1([H])c1c([H])c([H])c([H])c(Cl)c1[H]

$$$$
9:0:0
     RDKit          3D

 44 49  0  0  1  0  0  0  0  0999 V2000
    5.3731   -8.5542    1.9988 O   0  0  0  0  0  0  0  0  0  0  0  0
    4.3498   -7.8624    1.9641 C   0  0  0  0  0  0  0  0  0  0  0  0
    4.4005   -6.4140    1.6764 C   0  0  0  0  0  0  0  0  0  0  0  0
    3.2910   -5.6352    1.6020 C   0  0  0  0  0  0  0  0  0  0  0  0
    3.3573   -4.2933    1.3044 O   0  0  0  0  0  0  0  0  0  0  0  0
    4.6249   -3.8258    0.8554 C   0  0  1  0  0  0  0  0  0  0  0  0
    5.6778   -4.4092    1.6098 O   0  0  0  0  0  0  0  0  0  0  0  0
    5.6481   -5.9046    1.4031 O   0  0  0  0  0  0  0  0  0  0  0  0
    4.7173   -4.0981   -0.6760 C   0  0  1  0  0  0  0  0  0  0  0  0
    3.4928   -3.4566   -1.3662 C   0  0  0  0  0  0  0  0  0  0  0  0
    3.5013   -1.9346   -1.1161 C   0  0  2  0  0  0  0  0  0  0  0  0
    4.7865   -1.3330   -1.7079 C   0  0  0  0  0  0  0  0  0  0  0  0
    6.0035   -1.9659   -1.0082 C   0  0  2  0  0  0  0  0  0  0  0  0
    6.0027   -3.4773   -1.2608 C   0  0  0  0  0  0  0  0  0  0  0  0
    5.9630   -1.7014    0.5105 C   0  0  0  0  0  0  0  0  0  0  0  0
    4.6639   -2.3019    1.0976 C   0  0  1  0  0  0  0  0  0  0  0  0
    3.4473   -1.6473    0.4024 C   0  0  0  0  0  0  0  0  0  0  0  0
    1.8420   -6.1108    1.7587 C   0  0  1  0  0  0  0  0  0  0  0  0
    1.2154   -5.9373    0.6174 O   0  0  0  0  0  0  0  0  0  0  0  0
    1.7984   -7.5930    2.1606 C   0  0  0  0  0  0  0  0  0  0  0  0
    0.5438   -8.1779    2.4792 C   0  0  0  0  0  0  0  0  0  0  0  0
    0.4570   -9.5349    2.8519 C   0  0  0  0  0  0  0  0  0  0  0  0
    1.6191  -10.3259    2.9073 C   0  0  0  0  0  0  0  0  0  0  0  0
    2.8675   -9.7576    2.6016 C   0  0  0  0  0  0  0  0  0  0  0  0
    2.9778   -8.3994    2.2389 C   0  0  0  0  0  0  0  0  0  0  0  0
    4.7089   -5.1685   -0.8848 H   0  0  0  0  0  0  0  0  0  0  0  0
    3.4982   -3.6657   -2.4347 H   0  0  0  0  0  0  0  0  0  0  0  0
    2.5666   -3.8898   -0.9911 H   0  0  0  0  0  0  0  0  0  0  0  0
    2.6366   -1.4895   -1.6083 H   0  0  0  0  0  0  0  0  0  0  0  0
    4.8231   -1.5198   -2.7816 H   0  0  0  0  0  0  0  0  0  0  0  0
    4.7837   -0.2547   -1.5776 H   0  0  0  0  0  0  0  0  0  0  0  0
    6.9166   -1.5565   -1.4196 H   0  0  0  0  0  0  0  0  0  0  0  0
    6.8844   -3.9260   -0.8023 H   0  0  0  0  0  0  0  0  0  0  0  0
    6.0668   -3.6810   -2.3319 H   0  0  0  0  0  0  0  0  0  0  0  0
    6.8353   -2.1498    0.9894 H   0  0  0  0  0  0  0  0  0  0  0  0
    6.0146   -0.6317    0.7192 H   0  0  0  0  0  0  0  0  0  0  0  0
    4.6211   -2.1089    2.1719 H   0  0  0  0  0  0  0  0  0  0  0  0
    3.4345   -0.5733    0.5886 H   0  0  0  0  0  0  0  0  0  0  0  0
    2.5159   -2.0331    0.8193 H   0  0  0  0  0  0  0  0  0  0  0  0
    1.5193   -5.5903    2.6553 H   0  0  0  0  0  0  0  0  0  0  0  0
   -0.3682   -7.5984    2.4218 H   0  0  0  0  0  0  0  0  0  0  0  0
   -0.5051   -9.9787    3.0763 H   0  0  0  0  0  0  0  0  0  0  0  0
    1.5576  -11.3713    3.1720 H   0  0  0  0  0  0  0  0  0  0  0  0
    3.7490  -10.3806    2.6577 H   0  0  0  0  0  0  0  0  0  0  0  0
  1  2  2  0
  2 25  1  0
  2  3  1  0
  3  8  1  0
  3  4  2  0
  4  5  1  0
  4 18  1  0
  6  5  1  1
  6 16  1  0
  6  7  1  0
  6  9  1  0
  7  8  1  0
  9 14  1  0
  9 10  1  0
  9 26  1  1
 10 11  1  0
 10 27  1  0
 10 28  1  0
 11 17  1  0
 11 12  1  0
 11 29  1  6
 12 13  1  0
 12 30  1  0
 12 31  1  0
 13 14  1  0
 13 15  1  0
 13 32  1  6
 14 33  1  0
 14 34  1  0
 15 16  1  0
 15 35  1  0
 15 36  1  0
 16 17  1  0
 16 37  1  1
 17 38  1  0
 17 39  1  0
 18 19  1  0
 18 20  1  0
 18 40  1  1
 20 25  2  0
 20 21  1  0
 21 22  2  0
 21 41  1  0
 22 23  1  0
 22 42  1  0
 23 24  2  0
 23 43  1  0
 24 25  1  0
 24 44  1  0
M  CHG  1  19  -1
M  END
>  <i_m_ct_stereo_status>  (52) 
1

>  <s_m_source_file>  (52) 
/var/tmp/pbs.5076255.sched01/tmp7dv9smms/08akalw19.sdf

>  <i_m_source_file_index>  (52) 
19

>  <i_lp_mmshare_version>  (52) 
48012

>  <i_f3d_flags>  (52) 
0

>  <s_epik_input>  (52) 
W2NIXTFbY0hdW2NIXVtjSF1jKFtDQEBIXTJbT0hdKWMxQyg9TylDKE9PMyk9QzJPW0NAXTM0W0NAQEhdNVtDSDJdW0NASF02W0NIMl1bQ0BASF0oW0NIMl01KVtDSDJdW0NAQEhdNFtDSDJdNg==

>  <s_epik_cmdline>  (52) 
J2VwaWtfcHl0aG9uJywgJy1waHQnLCAnMi4wJywgJy1waCcsICc3LjAnLCAnLXRuJywgJzgnLCAnLW1hJywgJzIwMCcsICctaW1hZScsICc8aW5maWxlLm1hZT4nLCAnLW9tYWUnLCAnPG91dGZpbGUubWFlPic=

>  <r_epik_Ionization_Penalty>  (52) 
0.0788397

>  <r_epik_Ionization_Penalty_Charging>  (52) 
0.0788397

>  <r_epik_Ionization_Penalty_Neutral>  (52) 
0

>  <r_epik_State_Penalty>  (52) 
0.0697202

>  <r_epik_Charging_Adjusted_Penalty>  (52) 
0.14856

>  <i_epik_Tot_Q>  (52) 
-1

>  <i_epik_Tot_abs_Q>  (52) 
1

>  <s_lp_Force_Field>  (52) 
OPLS3e

>  <r_lp_Energy>  (52) 
32.6269

>  <b_lp_Chiralities_Consistent>  (52) 
1

>  <s_lp_Variant>  (52) 
9:0-1

>  <s_i_glide_gridfile>  (52) 
pfpi4k_grid

>  <i_i_glide_lignum>  (52) 
19

>  <i_i_glide_rotatable_bonds>  (52) 
0

>  <r_i_docking_score>  (52) 
-3.50535

>  <r_i_glide_ligand_efficiency>  (52) 
-0.140214

>  <r_i_glide_ligand_efficiency_sa>  (52) 
-0.409989

>  <r_i_glide_ligand_efficiency_ln>  (52) 
-0.830874

>  <r_i_glide_gscore>  (52) 
-3.50535

>  <r_i_glide_lipo>  (52) 
-0.45782

>  <r_i_glide_hbond>  (52) 
-0.2

>  <r_i_glide_metal>  (52) 
-0

>  <r_i_glide_rewards>  (52) 
-1.14615

>  <r_i_glide_evdw>  (52) 
-28.9128

>  <r_i_glide_ecoul>  (52) 
-1.70497

>  <r_i_glide_erotb>  (52) 
0

>  <r_i_glide_esite>  (52) 
0

>  <r_i_glide_emodel>  (52) 
-39.3632

>  <r_i_glide_energy>  (52) 
-30.6177

>  <r_i_glide_einternal>  (52) 
0

>  <r_i_glide_intrahb_reward>  (52) 
-0

>  <i_i_glide_confnum>  (52) 
1

>  <i_i_glide_posenum>  (52) 
1

>  <r_i_glide_eff_state_penalty>  (52) 
0

>  <ligand_id>  (52) 
9

>  <original_smiles>  (52) 
O=C1C2=C(OC3(OO2)C2CC4CC(C2)CC3C4)C(O)c2ccccc21

>  <smiles>  (52) 
[H]c1c([H])c([H])c2c(c1[H])C(=O)C1=C(OC3(OO1)C1([H])C([H])([H])C4([H])C([H])([H])C([H])(C1([H])[H])C([H])([H])C3([H])C4([H])[H])C2([H])[O-]

$$$$
9:0:1
     RDKit          3D

 44 49  0  0  1  0  0  0  0  0999 V2000
    0.8058   -4.2131    5.1210 O   0  0  0  0  0  0  0  0  0  0  0  0
    1.1213   -4.8684    4.1221 C   0  0  0  0  0  0  0  0  0  0  0  0
    1.8456   -4.2672    2.9821 C   0  0  0  0  0  0  0  0  0  0  0  0
    2.2049   -4.9734    1.8765 C   0  0  0  0  0  0  0  0  0  0  0  0
    2.8747   -4.3959    0.8251 O   0  0  0  0  0  0  0  0  0  0  0  0
    3.3947   -3.0958    1.0699 C   0  0  1  0  0  0  0  0  0  0  0  0
    2.4568   -2.3052    1.7870 O   0  0  0  0  0  0  0  0  0  0  0  0
    2.1883   -2.9474    3.1228 O   0  0  0  0  0  0  0  0  0  0  0  0
    4.7650   -3.2536    1.7948 C   0  0  1  0  0  0  0  0  0  0  0  0
    5.6714   -4.1770    0.9443 C   0  0  0  0  0  0  0  0  0  0  0  0
    5.8927   -3.5389   -0.4426 C   0  0  2  0  0  0  0  0  0  0  0  0
    6.5844   -2.1749   -0.2666 C   0  0  0  0  0  0  0  0  0  0  0  0
    5.6792   -1.2458    0.5738 C   0  0  2  0  0  0  0  0  0  0  0  0
    5.4507   -1.8803    1.9614 C   0  0  0  0  0  0  0  0  0  0  0  0
    4.3117   -1.0567   -0.1186 C   0  0  0  0  0  0  0  0  0  0  0  0
    3.6302   -2.4322   -0.3037 C   0  0  1  0  0  0  0  0  0  0  0  0
    4.5403   -3.3423   -1.1605 C   0  0  0  0  0  0  0  0  0  0  0  0
    1.9709   -6.4665    1.6484 C   0  0  1  0  0  0  0  0  0  0  0  0
    3.1508   -7.0430    1.6296 O   0  0  0  0  0  0  0  0  0  0  0  0
    1.1252   -7.0665    2.7828 C   0  0  0  0  0  0  0  0  0  0  0  0
    0.7132   -8.4217    2.6890 C   0  0  0  0  0  0  0  0  0  0  0  0
   -0.0395   -9.0159    3.7198 C   0  0  0  0  0  0  0  0  0  0  0  0
   -0.3936   -8.2703    4.8560 C   0  0  0  0  0  0  0  0  0  0  0  0
    0.0013   -6.9269    4.9616 C   0  0  0  0  0  0  0  0  0  0  0  0
    0.7527   -6.3090    3.9403 C   0  0  0  0  0  0  0  0  0  0  0  0
    4.6332   -3.7113    2.7755 H   0  0  0  0  0  0  0  0  0  0  0  0
    6.6259   -4.3477    1.4422 H   0  0  0  0  0  0  0  0  0  0  0  0
    5.2201   -5.1638    0.8294 H   0  0  0  0  0  0  0  0  0  0  0  0
    6.5231   -4.1915   -1.0436 H   0  0  0  0  0  0  0  0  0  0  0  0
    7.5496   -2.3059    0.2251 H   0  0  0  0  0  0  0  0  0  0  0  0
    6.7840   -1.7433   -1.2451 H   0  0  0  0  0  0  0  0  0  0  0  0
    6.1626   -0.2758    0.6921 H   0  0  0  0  0  0  0  0  0  0  0  0
    4.8414   -1.2250    2.5849 H   0  0  0  0  0  0  0  0  0  0  0  0
    6.4028   -1.9977    2.4778 H   0  0  0  0  0  0  0  0  0  0  0  0
    3.6765   -0.4032    0.4829 H   0  0  0  0  0  0  0  0  0  0  0  0
    4.4297   -0.5616   -1.0828 H   0  0  0  0  0  0  0  0  0  0  0  0
    2.6689   -2.3029   -0.8042 H   0  0  0  0  0  0  0  0  0  0  0  0
    4.6857   -2.9086   -2.1500 H   0  0  0  0  0  0  0  0  0  0  0  0
    4.0636   -4.3085   -1.3260 H   0  0  0  0  0  0  0  0  0  0  0  0
    1.3221   -6.5043    0.7744 H   0  0  0  0  0  0  0  0  0  0  0  0
    0.9825   -9.0283    1.8320 H   0  0  0  0  0  0  0  0  0  0  0  0
   -0.3446  -10.0509    3.6487 H   0  0  0  0  0  0  0  0  0  0  0  0
   -0.9606   -8.7354    5.6482 H   0  0  0  0  0  0  0  0  0  0  0  0
   -0.2817   -6.3688    5.8402 H   0  0  0  0  0  0  0  0  0  0  0  0
  1  2  2  0
  2 25  1  0
  2  3  1  0
  3  8  1  0
  3  4  2  0
  4  5  1  0
  4 18  1  0
  6  5  1  6
  6 16  1  0
  6  7  1  0
  6  9  1  0
  7  8  1  0
  9 14  1  0
  9 10  1  0
  9 26  1  1
 10 11  1  0
 10 27  1  0
 10 28  1  0
 11 17  1  0
 11 12  1  0
 11 29  1  6
 12 13  1  0
 12 30  1  0
 12 31  1  0
 13 14  1  0
 13 15  1  0
 13 32  1  1
 14 33  1  0
 14 34  1  0
 15 16  1  0
 15 35  1  0
 15 36  1  0
 16 17  1  0
 16 37  1  6
 17 38  1  0
 17 39  1  0
 18 19  1  0
 18 20  1  0
 18 40  1  6
 20 25  2  0
 20 21  1  0
 21 22  2  0
 21 41  1  0
 22 23  1  0
 22 42  1  0
 23 24  2  0
 23 43  1  0
 24 25  1  0
 24 44  1  0
M  CHG  1  19  -1
M  END
>  <i_m_ct_stereo_status>  (53) 
1

>  <s_m_source_file>  (53) 
/var/tmp/pbs.5076255.sched01/tmp7dv9smms/08akalw19.sdf

>  <i_m_source_file_index>  (53) 
19

>  <i_lp_mmshare_version>  (53) 
48012

>  <i_f3d_flags>  (53) 
0

>  <s_epik_input>  (53) 
W2NIXTFbY0hdW2NIXVtjSF1jKFtDQEBIXTJbT0hdKWMxQyg9TylDKE9PMyk9QzJPW0NAXTM0W0NAQEhdNVtDSDJdW0NASF02W0NIMl1bQ0BASF0oW0NIMl01KVtDSDJdW0NAQEhdNFtDSDJdNg==

>  <s_epik_cmdline>  (53) 
J2VwaWtfcHl0aG9uJywgJy1waHQnLCAnMi4wJywgJy1waCcsICc3LjAnLCAnLXRuJywgJzgnLCAnLW1hJywgJzIwMCcsICctaW1hZScsICc8aW5maWxlLm1hZT4nLCAnLW9tYWUnLCAnPG91dGZpbGUubWFlPic=

>  <r_epik_Ionization_Penalty>  (53) 
0.0788397

>  <r_epik_Ionization_Penalty_Charging>  (53) 
0.0788397

>  <r_epik_Ionization_Penalty_Neutral>  (53) 
0

>  <r_epik_State_Penalty>  (53) 
0.0697202

>  <r_epik_Charging_Adjusted_Penalty>  (53) 
0.14856

>  <i_epik_Tot_Q>  (53) 
-1

>  <i_epik_Tot_abs_Q>  (53) 
1

>  <s_lp_Force_Field>  (53) 
OPLS3e

>  <r_lp_Energy>  (53) 
32.6269

>  <b_lp_Chiralities_Consistent>  (53) 
1

>  <s_lp_Variant>  (53) 
9:0-1

>  <s_i_glide_gridfile>  (53) 
pfpi4k_grid

>  <i_i_glide_lignum>  (53) 
19

>  <i_i_glide_rotatable_bonds>  (53) 
0

>  <r_i_docking_score>  (53) 
-2.79126

>  <r_i_glide_ligand_efficiency>  (53) 
-0.111651

>  <r_i_glide_ligand_efficiency_sa>  (53) 
-0.326468

>  <r_i_glide_ligand_efficiency_ln>  (53) 
-0.661613

>  <r_i_glide_gscore>  (53) 
-2.79126

>  <r_i_glide_lipo>  (53) 
-0.382489

>  <r_i_glide_hbond>  (53) 
0

>  <r_i_glide_metal>  (53) 
-0

>  <r_i_glide_rewards>  (53) 
-1.09526

>  <r_i_glide_evdw>  (53) 
-27.6899

>  <r_i_glide_ecoul>  (53) 
0.554653

>  <r_i_glide_erotb>  (53) 
0

>  <r_i_glide_esite>  (53) 
-0.0122159

>  <r_i_glide_emodel>  (53) 
-34.04

>  <r_i_glide_energy>  (53) 
-27.1353

>  <r_i_glide_einternal>  (53) 
0

>  <r_i_glide_intrahb_reward>  (53) 
-0

>  <i_i_glide_confnum>  (53) 
1

>  <i_i_glide_posenum>  (53) 
6

>  <r_i_glide_eff_state_penalty>  (53) 
0

>  <ligand_id>  (53) 
9

>  <original_smiles>  (53) 
O=C1C2=C(OC3(OO2)C2CC4CC(C2)CC3C4)C(O)c2ccccc21

>  <smiles>  (53) 
[H]c1c([H])c([H])c2c(c1[H])C(=O)C1=C(OC3(OO1)C1([H])C([H])([H])C4([H])C([H])([H])C([H])(C1([H])[H])C([H])([H])C3([H])C4([H])[H])C2([H])[O-]

$$$$
9:0:2
     RDKit          3D

 44 49  0  0  1  0  0  0  0  0999 V2000
   -3.3213    2.5948    7.5634 O   0  0  0  0  0  0  0  0  0  0  0  0
   -2.1436    2.9746    7.5397 C   0  0  0  0  0  0  0  0  0  0  0  0
   -1.1077    2.2302    6.7867 C   0  0  0  0  0  0  0  0  0  0  0  0
    0.1772    2.6440    6.7281 C   0  0  0  0  0  0  0  0  0  0  0  0
    1.1260    1.9616    5.9922 O   0  0  0  0  0  0  0  0  0  0  0  0
    0.6233    0.9579    5.1266 C   0  0  1  0  0  0  0  0  0  0  0  0
   -0.4116    0.2140    5.7549 O   0  0  0  0  0  0  0  0  0  0  0  0
   -1.5523    1.1418    6.0886 O   0  0  0  0  0  0  0  0  0  0  0  0
    0.1931    1.6386    3.7940 C   0  0  1  0  0  0  0  0  0  0  0  0
    1.3889    2.4448    3.2391 C   0  0  0  0  0  0  0  0  0  0  0  0
    2.5683    1.4918    2.9701 C   0  0  2  0  0  0  0  0  0  0  0  0
    2.1544    0.4405    1.9263 C   0  0  0  0  0  0  0  0  0  0  0  0
    0.9686   -0.3713    2.4832 C   0  0  2  0  0  0  0  0  0  0  0  0
   -0.2182    0.5794    2.7510 C   0  0  0  0  0  0  0  0  0  0  0  0
    1.3601   -1.0710    3.8018 C   0  0  0  0  0  0  0  0  0  0  0  0
    1.7952   -0.0082    4.8371 C   0  0  1  0  0  0  0  0  0  0  0  0
    2.9948    0.7903    4.2754 C   0  0  0  0  0  0  0  0  0  0  0  0
    0.7608    3.9278    7.3336 C   0  0  1  0  0  0  0  0  0  0  0  0
    1.0688    4.7165    6.3645 O   0  0  0  0  0  0  0  0  0  0  0  0
   -0.3023    4.6236    8.2221 C   0  0  0  0  0  0  0  0  0  0  0  0
    0.0929    5.7595    8.9760 C   0  0  0  0  0  0  0  0  0  0  0  0
   -0.8503    6.4405    9.7739 C   0  0  0  0  0  0  0  0  0  0  0  0
   -2.1816    6.0018    9.8222 C   0  0  0  0  0  0  0  0  0  0  0  0
   -2.5825    4.8786    9.0831 C   0  0  0  0  0  0  0  0  0  0  0  0
   -1.6532    4.1753    8.2786 C   0  0  0  0  0  0  0  0  0  0  0  0
   -0.6397    2.3233    3.9549 H   0  0  0  0  0  0  0  0  0  0  0  0
    1.1091    2.9576    2.3197 H   0  0  0  0  0  0  0  0  0  0  0  0
    1.6888    3.2284    3.9371 H   0  0  0  0  0  0  0  0  0  0  0  0
    3.3992    2.0770    2.5809 H   0  0  0  0  0  0  0  0  0  0  0  0
    1.8602    0.9277    0.9956 H   0  0  0  0  0  0  0  0  0  0  0  0
    2.9920   -0.2127    1.6782 H   0  0  0  0  0  0  0  0  0  0  0  0
    0.6762   -1.1190    1.7468 H   0  0  0  0  0  0  0  0  0  0  0  0
   -1.0792    0.0218    3.1171 H   0  0  0  0  0  0  0  0  0  0  0  0
   -0.5328    1.0579    1.8197 H   0  0  0  0  0  0  0  0  0  0  0  0
    0.5137   -1.6438    4.1824 H   0  0  0  0  0  0  0  0  0  0  0  0
    2.1637   -1.7875    3.6343 H   0  0  0  0  0  0  0  0  0  0  0  0
    2.0881   -0.4969    5.7666 H   0  0  0  0  0  0  0  0  0  0  0  0
    3.8430    0.1296    4.0983 H   0  0  0  0  0  0  0  0  0  0  0  0
    3.3369    1.5297    5.0005 H   0  0  0  0  0  0  0  0  0  0  0  0
    1.4964    3.5513    8.0512 H   0  0  0  0  0  0  0  0  0  0  0  0
    1.1126    6.1217    8.9500 H   0  0  0  0  0  0  0  0  0  0  0  0
   -0.5481    7.3024   10.3484 H   0  0  0  0  0  0  0  0  0  0  0  0
   -2.9041    6.5236   10.4320 H   0  0  0  0  0  0  0  0  0  0  0  0
   -3.6073    4.5506    9.1426 H   0  0  0  0  0  0  0  0  0  0  0  0
  1  2  2  0
  2 25  1  0
  2  3  1  0
  3  8  1  0
  3  4  2  0
  4  5  1  0
  4 18  1  0
  6  5  1  1
  6 16  1  0
  6  7  1  0
  6  9  1  0
  7  8  1  0
  9 14  1  0
  9 10  1  0
  9 26  1  1
 10 11  1  0
 10 27  1  0
 10 28  1  0
 11 17  1  0
 11 12  1  0
 11 29  1  6
 12 13  1  0
 12 30  1  0
 12 31  1  0
 13 14  1  0
 13 15  1  0
 13 32  1  6
 14 33  1  0
 14 34  1  0
 15 16  1  0
 15 35  1  0
 15 36  1  0
 16 17  1  0
 16 37  1  1
 17 38  1  0
 17 39  1  0
 18 19  1  0
 18 20  1  0
 18 40  1  1
 20 25  2  0
 20 21  1  0
 21 22  2  0
 21 41  1  0
 22 23  1  0
 22 42  1  0
 23 24  2  0
 23 43  1  0
 24 25  1  0
 24 44  1  0
M  CHG  1  19  -1
M  END
>  <i_m_ct_stereo_status>  (54) 
1

>  <s_m_source_file>  (54) 
/var/tmp/pbs.5076255.sched01/tmp7dv9smms/08akalw19.sdf

>  <i_m_source_file_index>  (54) 
19

>  <i_lp_mmshare_version>  (54) 
48012

>  <i_f3d_flags>  (54) 
0

>  <s_epik_input>  (54) 
W2NIXTFbY0hdW2NIXVtjSF1jKFtDQEBIXTJbT0hdKWMxQyg9TylDKE9PMyk9QzJPW0NAXTM0W0NAQEhdNVtDSDJdW0NASF02W0NIMl1bQ0BASF0oW0NIMl01KVtDSDJdW0NAQEhdNFtDSDJdNg==

>  <s_epik_cmdline>  (54) 
J2VwaWtfcHl0aG9uJywgJy1waHQnLCAnMi4wJywgJy1waCcsICc3LjAnLCAnLXRuJywgJzgnLCAnLW1hJywgJzIwMCcsICctaW1hZScsICc8aW5maWxlLm1hZT4nLCAnLW9tYWUnLCAnPG91dGZpbGUubWFlPic=

>  <r_epik_Ionization_Penalty>  (54) 
0.0788397

>  <r_epik_Ionization_Penalty_Charging>  (54) 
0.0788397

>  <r_epik_Ionization_Penalty_Neutral>  (54) 
0

>  <r_epik_State_Penalty>  (54) 
0.0697202

>  <r_epik_Charging_Adjusted_Penalty>  (54) 
0.14856

>  <i_epik_Tot_Q>  (54) 
-1

>  <i_epik_Tot_abs_Q>  (54) 
1

>  <s_lp_Force_Field>  (54) 
OPLS3e

>  <r_lp_Energy>  (54) 
32.6269

>  <b_lp_Chiralities_Consistent>  (54) 
1

>  <s_lp_Variant>  (54) 
9:0-1

>  <s_i_glide_gridfile>  (54) 
pfpi4k_grid

>  <i_i_glide_lignum>  (54) 
19

>  <i_i_glide_rotatable_bonds>  (54) 
0

>  <r_i_docking_score>  (54) 
-2.58496

>  <r_i_glide_ligand_efficiency>  (54) 
-0.103398

>  <r_i_glide_ligand_efficiency_sa>  (54) 
-0.302338

>  <r_i_glide_ligand_efficiency_ln>  (54) 
-0.612712

>  <r_i_glide_gscore>  (54) 
-2.58496

>  <r_i_glide_lipo>  (54) 
-0.0474066

>  <r_i_glide_hbond>  (54) 
0

>  <r_i_glide_metal>  (54) 
-0

>  <r_i_glide_rewards>  (54) 
-1.18456

>  <r_i_glide_evdw>  (54) 
-22.0466

>  <r_i_glide_ecoul>  (54) 
-1.64312

>  <r_i_glide_erotb>  (54) 
0

>  <r_i_glide_esite>  (54) 
-0.0041948

>  <r_i_glide_emodel>  (54) 
-30.0221

>  <r_i_glide_energy>  (54) 
-23.6897

>  <r_i_glide_einternal>  (54) 
0

>  <r_i_glide_intrahb_reward>  (54) 
-0

>  <i_i_glide_confnum>  (54) 
2

>  <i_i_glide_posenum>  (54) 
29

>  <r_i_glide_eff_state_penalty>  (54) 
0

>  <ligand_id>  (54) 
9

>  <original_smiles>  (54) 
O=C1C2=C(OC3(OO2)C2CC4CC(C2)CC3C4)C(O)c2ccccc21

>  <smiles>  (54) 
[H]c1c([H])c([H])c2c(c1[H])C(=O)C1=C(OC3(OO1)C1([H])C([H])([H])C4([H])C([H])([H])C([H])(C1([H])[H])C([H])([H])C3([H])C4([H])[H])C2([H])[O-]

$$$$
9:1:0
     RDKit          3D

 45 50  0  0  1  0  0  0  0  0999 V2000
    3.2855   -3.9683   -0.1822 O   0  0  0  0  0  0  0  0  0  0  0  0
    3.9185   -4.8586    0.3834 C   0  0  0  0  0  0  0  0  0  0  0  0
    3.2167   -6.0067    0.9859 C   0  0  0  0  0  0  0  0  0  0  0  0
    3.8904   -7.0062    1.5917 C   0  0  0  0  0  0  0  0  0  0  0  0
    3.2658   -8.0290    2.2525 O   0  0  0  0  0  0  0  0  0  0  0  0
    1.8629   -7.9008    2.4081 C   0  0  1  0  0  0  0  0  0  0  0  0
    1.2632   -7.3385    1.2419 O   0  0  0  0  0  0  0  0  0  0  0  0
    1.8410   -5.9588    1.0084 O   0  0  0  0  0  0  0  0  0  0  0  0
    1.2846   -9.3196    2.5978 C   0  0  2  0  0  0  0  0  0  0  0  0
   -0.2330   -9.2487    2.8882 C   0  0  0  0  0  0  0  0  0  0  0  0
   -0.4780   -8.4239    4.1716 C   0  0  1  0  0  0  0  0  0  0  0  0
    0.2327   -9.0962    5.3638 C   0  0  0  0  0  0  0  0  0  0  0  0
    1.7466   -9.1804    5.0770 C   0  0  1  0  0  0  0  0  0  0  0  0
    1.9954  -10.0008    3.7915 C   0  0  0  0  0  0  0  0  0  0  0  0
    2.2995   -7.7522    4.8969 C   0  0  0  0  0  0  0  0  0  0  0  0
    1.5911   -7.0697    3.6994 C   0  0  2  0  0  0  0  0  0  0  0  0
    0.0754   -6.9969    3.9816 C   0  0  0  0  0  0  0  0  0  0  0  0
    5.3950   -7.0587    1.7557 C   0  0  1  0  0  0  0  0  0  0  0  0
    5.8854   -8.2882    1.2834 O   0  0  0  0  0  0  0  0  0  0  0  0
    6.1186   -5.8537    1.1732 C   0  0  0  0  0  0  0  0  0  0  0  0
    7.5236   -5.7662    1.3052 C   0  0  0  0  0  0  0  0  0  0  0  0
    8.2183   -4.6592    0.7741 C   0  0  0  0  0  0  0  0  0  0  0  0
    7.5134   -3.6355    0.1080 C   0  0  0  0  0  0  0  0  0  0  0  0
    6.1111   -3.7173   -0.0133 C   0  0  0  0  0  0  0  0  0  0  0  0
    5.4022   -4.8182    0.5164 C   0  0  0  0  0  0  0  0  0  0  0  0
    1.4566   -9.8991    1.6892 H   0  0  0  0  0  0  0  0  0  0  0  0
   -0.7630   -8.8030    2.0442 H   0  0  0  0  0  0  0  0  0  0  0  0
   -0.6392  -10.2553    3.0056 H   0  0  0  0  0  0  0  0  0  0  0  0
   -1.5502   -8.3824    4.3719 H   0  0  0  0  0  0  0  0  0  0  0  0
    0.0570   -8.5266    6.2775 H   0  0  0  0  0  0  0  0  0  0  0  0
   -0.1723  -10.0927    5.5411 H   0  0  0  0  0  0  0  0  0  0  0  0
    2.2451   -9.6693    5.9153 H   0  0  0  0  0  0  0  0  0  0  0  0
    1.6467  -11.0272    3.9103 H   0  0  0  0  0  0  0  0  0  0  0  0
    3.0685  -10.0737    3.6033 H   0  0  0  0  0  0  0  0  0  0  0  0
    2.1542   -7.1752    5.8093 H   0  0  0  0  0  0  0  0  0  0  0  0
    3.3790   -7.7907    4.7409 H   0  0  0  0  0  0  0  0  0  0  0  0
    1.9850   -6.0583    3.5957 H   0  0  0  0  0  0  0  0  0  0  0  0
   -0.4365   -6.5012    3.1582 H   0  0  0  0  0  0  0  0  0  0  0  0
   -0.1128   -6.3980    4.8731 H   0  0  0  0  0  0  0  0  0  0  0  0
    5.5841   -7.0517    2.8323 H   0  0  0  0  0  0  0  0  0  0  0  0
    5.3828   -8.9808    1.6835 H   0  0  0  0  0  0  0  0  0  0  0  0
    8.0746   -6.5486    1.8122 H   0  0  0  0  0  0  0  0  0  0  0  0
    9.2924   -4.5950    0.8778 H   0  0  0  0  0  0  0  0  0  0  0  0
    8.0445   -2.7929   -0.3045 H   0  0  0  0  0  0  0  0  0  0  0  0
    5.5809   -2.9255   -0.5180 H   0  0  0  0  0  0  0  0  0  0  0  0
  1  2  2  0
  2 25  1  0
  2  3  1  0
  3  8  1  0
  3  4  2  0
  4  5  1  0
  4 18  1  0
  6  5  1  6
  6 16  1  0
  6  7  1  0
  6  9  1  0
  7  8  1  0
  9 14  1  0
  9 10  1  0
  9 26  1  6
 10 11  1  0
 10 27  1  0
 10 28  1  0
 11 17  1  0
 11 12  1  0
 11 29  1  1
 12 13  1  0
 12 30  1  0
 12 31  1  0
 13 14  1  0
 13 15  1  0
 13 32  1  1
 14 33  1  0
 14 34  1  0
 15 16  1  0
 15 35  1  0
 15 36  1  0
 16 17  1  0
 16 37  1  6
 17 38  1  0
 17 39  1  0
 18 19  1  0
 18 20  1  0
 18 40  1  1
 19 41  1  0
 20 25  2  0
 20 21  1  0
 21 22  2  0
 21 42  1  0
 22 23  1  0
 22 43  1  0
 23 24  2  0
 23 44  1  0
 24 25  1  0
 24 45  1  0
M  END
>  <i_m_ct_stereo_status>  (55) 
1

>  <s_m_source_file>  (55) 
/var/tmp/pbs.5076255.sched01/tmp7dv9smms/08akalw19.sdf

>  <i_m_source_file_index>  (55) 
20

>  <i_lp_mmshare_version>  (55) 
48012

>  <i_f3d_flags>  (55) 
0

>  <s_epik_input>  (55) 
W2NIXTFbY0hdW2NIXVtjSF1jKFtDQEBIXTJbT0hdKWMxQyg9TylDKE9PMyk9QzJPW0NAXTM0W0NAQEhdNVtDSDJdW0NASF02W0NIMl1bQ0BASF0oW0NIMl01KVtDSDJdW0NAQEhdNFtDSDJdNg==

>  <s_epik_cmdline>  (55) 
J2VwaWtfcHl0aG9uJywgJy1waHQnLCAnMi4wJywgJy1waCcsICc3LjAnLCAnLXRuJywgJzgnLCAnLW1hJywgJzIwMCcsICctaW1hZScsICc8aW5maWxlLm1hZT4nLCAnLW9tYWUnLCAnPG91dGZpbGUubWFlPic=

>  <r_epik_Ionization_Penalty>  (55) 
1.23397

>  <r_epik_Ionization_Penalty_Charging>  (55) 
0

>  <r_epik_Ionization_Penalty_Neutral>  (55) 
1.23397

>  <r_epik_State_Penalty>  (55) 
1.30234

>  <r_epik_Charging_Adjusted_Penalty>  (55) 
1.30234

>  <i_epik_Tot_Q>  (55) 
0

>  <i_epik_Tot_abs_Q>  (55) 
0

>  <s_lp_Force_Field>  (55) 
OPLS3e

>  <r_lp_Energy>  (55) 
23.9795

>  <b_lp_Chiralities_Consistent>  (55) 
1

>  <s_lp_Variant>  (55) 
9:0-2

>  <s_i_glide_gridfile>  (55) 
pfpi4k_grid

>  <i_i_glide_lignum>  (55) 
20

>  <i_i_glide_rotatable_bonds>  (55) 
1

>  <r_i_docking_score>  (55) 
-3.51048

>  <r_i_glide_ligand_efficiency>  (55) 
-0.140419

>  <r_i_glide_ligand_efficiency_sa>  (55) 
-0.410588

>  <r_i_glide_ligand_efficiency_ln>  (55) 
-0.832088

>  <r_i_glide_gscore>  (55) 
-3.51048

>  <r_i_glide_lipo>  (55) 
-0.768697

>  <r_i_glide_hbond>  (55) 
-0.0339952

>  <r_i_glide_metal>  (55) 
-0

>  <r_i_glide_rewards>  (55) 
-1.11122

>  <r_i_glide_evdw>  (55) 
-29.212

>  <r_i_glide_ecoul>  (55) 
-0.799562

>  <r_i_glide_erotb>  (55) 
0

>  <r_i_glide_esite>  (55) 
-0.0160306

>  <r_i_glide_emodel>  (55) 
-36.7294

>  <r_i_glide_energy>  (55) 
-30.0116

>  <r_i_glide_einternal>  (55) 
0.019155

>  <r_i_glide_intrahb_reward>  (55) 
-0

>  <i_i_glide_confnum>  (55) 
1

>  <i_i_glide_posenum>  (55) 
13

>  <r_i_glide_eff_state_penalty>  (55) 
0

>  <ligand_id>  (55) 
9

>  <original_smiles>  (55) 
O=C1C2=C(OC3(OO2)C2CC4CC(C2)CC3C4)C(O)c2ccccc21

>  <smiles>  (55) 
[H]OC1([H])C2=C(OOC3(O2)C2([H])C([H])([H])C4([H])C([H])([H])C([H])(C2([H])[H])C([H])([H])C3([H])C4([H])[H])C(=O)c2c([H])c([H])c([H])c([H])c21

$$$$
9:1:1
     RDKit          3D

 45 50  0  0  1  0  0  0  0  0999 V2000
    3.1065   -2.3867    3.7170 O   0  0  0  0  0  0  0  0  0  0  0  0
    3.0170   -3.2326    2.8282 C   0  0  0  0  0  0  0  0  0  0  0  0
    2.2118   -4.4512    3.0311 C   0  0  0  0  0  0  0  0  0  0  0  0
    2.0684   -5.3724    2.0561 C   0  0  0  0  0  0  0  0  0  0  0  0
    1.3956   -6.5474    2.2450 O   0  0  0  0  0  0  0  0  0  0  0  0
    1.0108   -6.8323    3.5740 C   0  0  1  0  0  0  0  0  0  0  0  0
    0.5468   -5.6533    4.2317 O   0  0  0  0  0  0  0  0  0  0  0  0
    1.6855   -4.6508    4.2902 O   0  0  0  0  0  0  0  0  0  0  0  0
   -0.1724   -7.8213    3.5089 C   0  0  2  0  0  0  0  0  0  0  0  0
   -0.5732   -8.2660    4.9293 C   0  0  0  0  0  0  0  0  0  0  0  0
    0.6200   -8.9605    5.6219 C   0  0  1  0  0  0  0  0  0  0  0  0
    1.0401  -10.2011    4.8067 C   0  0  0  0  0  0  0  0  0  0  0  0
    1.4392   -9.7623    3.3821 C   0  0  1  0  0  0  0  0  0  0  0  0
    0.2458   -9.0654    2.6940 C   0  0  0  0  0  0  0  0  0  0  0  0
    2.6265   -8.7809    3.4720 C   0  0  0  0  0  0  0  0  0  0  0  0
    2.2080   -7.5310    4.2894 C   0  0  2  0  0  0  0  0  0  0  0  0
    1.8022   -7.9738    5.7116 C   0  0  0  0  0  0  0  0  0  0  0  0
    2.7140   -5.2910    0.6857 C   0  0  1  0  0  0  0  0  0  0  0  0
    1.7233   -5.4313   -0.3122 O   0  0  0  0  0  0  0  0  0  0  0  0
    3.5863   -4.0616    0.4970 C   0  0  0  0  0  0  0  0  0  0  0  0
    4.2952   -3.8990   -0.7198 C   0  0  0  0  0  0  0  0  0  0  0  0
    5.1061   -2.7631   -0.9247 C   0  0  0  0  0  0  0  0  0  0  0  0
    5.2237   -1.7862    0.0872 C   0  0  0  0  0  0  0  0  0  0  0  0
    4.5335   -1.9536    1.3064 C   0  0  0  0  0  0  0  0  0  0  0  0
    3.7164   -3.0866    1.5213 C   0  0  0  0  0  0  0  0  0  0  0  0
   -1.0233   -7.3389    3.0269 H   0  0  0  0  0  0  0  0  0  0  0  0
   -0.8943   -7.4023    5.5108 H   0  0  0  0  0  0  0  0  0  0  0  0
   -1.4233   -8.9467    4.8852 H   0  0  0  0  0  0  0  0  0  0  0  0
    0.3287   -9.2755    6.6253 H   0  0  0  0  0  0  0  0  0  0  0  0
    1.8802  -10.7006    5.2943 H   0  0  0  0  0  0  0  0  0  0  0  0
    0.2293  -10.9312    4.7753 H   0  0  0  0  0  0  0  0  0  0  0  0
    1.7273  -10.6386    2.7988 H   0  0  0  0  0  0  0  0  0  0  0  0
   -0.5940   -9.7513    2.5781 H   0  0  0  0  0  0  0  0  0  0  0  0
    0.5309   -8.7680    1.6832 H   0  0  0  0  0  0  0  0  0  0  0  0
    3.4850   -9.2722    3.9296 H   0  0  0  0  0  0  0  0  0  0  0  0
    2.9486   -8.4989    2.4682 H   0  0  0  0  0  0  0  0  0  0  0  0
    3.0639   -6.8596    4.3567 H   0  0  0  0  0  0  0  0  0  0  0  0
    1.5272   -7.1065    6.3127 H   0  0  0  0  0  0  0  0  0  0  0  0
    2.6468   -8.4443    6.2177 H   0  0  0  0  0  0  0  0  0  0  0  0
    3.3671   -6.1616    0.6078 H   0  0  0  0  0  0  0  0  0  0  0  0
    2.1688   -5.5175   -1.1573 H   0  0  0  0  0  0  0  0  0  0  0  0
    4.2147   -4.6431   -1.4989 H   0  0  0  0  0  0  0  0  0  0  0  0
    5.6338   -2.6427   -1.8607 H   0  0  0  0  0  0  0  0  0  0  0  0
    5.8367   -0.9117   -0.0635 H   0  0  0  0  0  0  0  0  0  0  0  0
    4.6381   -1.2008    2.0712 H   0  0  0  0  0  0  0  0  0  0  0  0
  1  2  2  0
  2 25  1  0
  2  3  1  0
  3  8  1  0
  3  4  2  0
  4  5  1  0
  4 18  1  0
  6  5  1  6
  6 16  1  0
  6  7  1  0
  6  9  1  0
  7  8  1  0
  9 14  1  0
  9 10  1  0
  9 26  1  6
 10 11  1  0
 10 27  1  0
 10 28  1  0
 11 17  1  0
 11 12  1  0
 11 29  1  1
 12 13  1  0
 12 30  1  0
 12 31  1  0
 13 14  1  0
 13 15  1  0
 13 32  1  6
 14 33  1  0
 14 34  1  0
 15 16  1  0
 15 35  1  0
 15 36  1  0
 16 17  1  0
 16 37  1  1
 17 38  1  0
 17 39  1  0
 18 19  1  0
 18 20  1  0
 18 40  1  1
 19 41  1  0
 20 25  2  0
 20 21  1  0
 21 22  2  0
 21 42  1  0
 22 23  1  0
 22 43  1  0
 23 24  2  0
 23 44  1  0
 24 25  1  0
 24 45  1  0
M  END
>  <i_m_ct_stereo_status>  (56) 
1

>  <s_m_source_file>  (56) 
/var/tmp/pbs.5076255.sched01/tmp7dv9smms/08akalw19.sdf

>  <i_m_source_file_index>  (56) 
20

>  <i_lp_mmshare_version>  (56) 
48012

>  <i_f3d_flags>  (56) 
0

>  <s_epik_input>  (56) 
W2NIXTFbY0hdW2NIXVtjSF1jKFtDQEBIXTJbT0hdKWMxQyg9TylDKE9PMyk9QzJPW0NAXTM0W0NAQEhdNVtDSDJdW0NASF02W0NIMl1bQ0BASF0oW0NIMl01KVtDSDJdW0NAQEhdNFtDSDJdNg==

>  <s_epik_cmdline>  (56) 
J2VwaWtfcHl0aG9uJywgJy1waHQnLCAnMi4wJywgJy1waCcsICc3LjAnLCAnLXRuJywgJzgnLCAnLW1hJywgJzIwMCcsICctaW1hZScsICc8aW5maWxlLm1hZT4nLCAnLW9tYWUnLCAnPG91dGZpbGUubWFlPic=

>  <r_epik_Ionization_Penalty>  (56) 
1.23397

>  <r_epik_Ionization_Penalty_Charging>  (56) 
0

>  <r_epik_Ionization_Penalty_Neutral>  (56) 
1.23397

>  <r_epik_State_Penalty>  (56) 
1.30234

>  <r_epik_Charging_Adjusted_Penalty>  (56) 
1.30234

>  <i_epik_Tot_Q>  (56) 
0

>  <i_epik_Tot_abs_Q>  (56) 
0

>  <s_lp_Force_Field>  (56) 
OPLS3e

>  <r_lp_Energy>  (56) 
23.9795

>  <b_lp_Chiralities_Consistent>  (56) 
1

>  <s_lp_Variant>  (56) 
9:0-2

>  <s_i_glide_gridfile>  (56) 
pfpi4k_grid

>  <i_i_glide_lignum>  (56) 
20

>  <i_i_glide_rotatable_bonds>  (56) 
1

>  <r_i_docking_score>  (56) 
-3.35575

>  <r_i_glide_ligand_efficiency>  (56) 
-0.13423

>  <r_i_glide_ligand_efficiency_sa>  (56) 
-0.392491

>  <r_i_glide_ligand_efficiency_ln>  (56) 
-0.795413

>  <r_i_glide_gscore>  (56) 
-3.35575

>  <r_i_glide_lipo>  (56) 
-0.048742

>  <r_i_glide_hbond>  (56) 
0

>  <r_i_glide_metal>  (56) 
-0

>  <r_i_glide_rewards>  (56) 
-1.08839

>  <r_i_glide_evdw>  (56) 
-22.688

>  <r_i_glide_ecoul>  (56) 
-7.08694

>  <r_i_glide_erotb>  (56) 
0

>  <r_i_glide_esite>  (56) 
-0.0211807

>  <r_i_glide_emodel>  (56) 
-35.8493

>  <r_i_glide_energy>  (56) 
-29.7749

>  <r_i_glide_einternal>  (56) 
0.706251

>  <r_i_glide_intrahb_reward>  (56) 
-0

>  <i_i_glide_confnum>  (56) 
1

>  <i_i_glide_posenum>  (56) 
3

>  <r_i_glide_eff_state_penalty>  (56) 
0

>  <ligand_id>  (56) 
9

>  <original_smiles>  (56) 
O=C1C2=C(OC3(OO2)C2CC4CC(C2)CC3C4)C(O)c2ccccc21

>  <smiles>  (56) 
[H]OC1([H])C2=C(OOC3(O2)C2([H])C([H])([H])C4([H])C([H])([H])C([H])(C2([H])[H])C([H])([H])C3([H])C4([H])[H])C(=O)c2c([H])c([H])c([H])c([H])c21

$$$$
9:1:2
     RDKit          3D

 45 50  0  0  1  0  0  0  0  0999 V2000
    0.7895   -4.2651    4.9862 O   0  0  0  0  0  0  0  0  0  0  0  0
    1.2533   -4.9774    4.0962 C   0  0  0  0  0  0  0  0  0  0  0  0
    2.3985   -4.5224    3.2853 C   0  0  0  0  0  0  0  0  0  0  0  0
    2.9325   -5.3010    2.3212 C   0  0  0  0  0  0  0  0  0  0  0  0
    3.9186   -4.8628    1.4787 O   0  0  0  0  0  0  0  0  0  0  0  0
    4.2557   -3.4909    1.5791 C   0  0  1  0  0  0  0  0  0  0  0  0
    4.2291   -3.0549    2.9365 O   0  0  0  0  0  0  0  0  0  0  0  0
    2.8241   -3.2297    3.4734 O   0  0  0  0  0  0  0  0  0  0  0  0
    5.7034   -3.3226    1.0626 C   0  0  2  0  0  0  0  0  0  0  0  0
    6.0963   -1.8262    1.0247 C   0  0  0  0  0  0  0  0  0  0  0  0
    5.1326   -1.0632    0.0912 C   0  0  1  0  0  0  0  0  0  0  0  0
    5.2199   -1.6422   -1.3366 C   0  0  0  0  0  0  0  0  0  0  0  0
    4.8415   -3.1383   -1.3057 C   0  0  1  0  0  0  0  0  0  0  0  0
    5.7997   -3.9037   -0.3663 C   0  0  0  0  0  0  0  0  0  0  0  0
    3.3942   -3.2748   -0.7913 C   0  0  0  0  0  0  0  0  0  0  0  0
    3.2966   -2.6964    0.6426 C   0  0  2  0  0  0  0  0  0  0  0  0
    3.6913   -1.2069    0.6154 C   0  0  0  0  0  0  0  0  0  0  0  0
    2.4258   -6.6780    1.9410 C   0  0  1  0  0  0  0  0  0  0  0  0
    3.4866   -7.6038    1.9977 O   0  0  0  0  0  0  0  0  0  0  0  0
    1.2109   -7.1217    2.7390 C   0  0  0  0  0  0  0  0  0  0  0  0
    0.6186   -8.3714    2.4491 C   0  0  0  0  0  0  0  0  0  0  0  0
   -0.5018   -8.8176    3.1768 C   0  0  0  0  0  0  0  0  0  0  0  0
   -1.0354   -8.0156    4.2035 C   0  0  0  0  0  0  0  0  0  0  0  0
   -0.4533   -6.7638    4.4921 C   0  0  0  0  0  0  0  0  0  0  0  0
    0.6677   -6.3058    3.7657 C   0  0  0  0  0  0  0  0  0  0  0  0
    6.3830   -3.8622    1.7237 H   0  0  0  0  0  0  0  0  0  0  0  0
    6.0617   -1.3966    2.0280 H   0  0  0  0  0  0  0  0  0  0  0  0
    7.1259   -1.7138    0.6822 H   0  0  0  0  0  0  0  0  0  0  0  0
    5.4040   -0.0067    0.0791 H   0  0  0  0  0  0  0  0  0  0  0  0
    4.5434   -1.1020   -2.0014 H   0  0  0  0  0  0  0  0  0  0  0  0
    6.2200   -1.5154   -1.7449 H   0  0  0  0  0  0  0  0  0  0  0  0
    4.9155   -3.5567   -2.3105 H   0  0  0  0  0  0  0  0  0  0  0  0
    6.8262   -3.8515   -0.7279 H   0  0  0  0  0  0  0  0  0  0  0  0
    5.5375   -4.9646   -0.3622 H   0  0  0  0  0  0  0  0  0  0  0  0
    2.7041   -2.7617   -1.4611 H   0  0  0  0  0  0  0  0  0  0  0  0
    3.0945   -4.3240   -0.8083 H   0  0  0  0  0  0  0  0  0  0  0  0
    2.2637   -2.7845    0.9800 H   0  0  0  0  0  0  0  0  0  0  0  0
    3.5966   -0.7701    1.6098 H   0  0  0  0  0  0  0  0  0  0  0  0
    3.0084   -0.6558   -0.0305 H   0  0  0  0  0  0  0  0  0  0  0  0
    2.1131   -6.6089    0.8970 H   0  0  0  0  0  0  0  0  0  0  0  0
    3.1957   -8.4217    1.6192 H   0  0  0  0  0  0  0  0  0  0  0  0
    1.0206   -9.0052    1.6701 H   0  0  0  0  0  0  0  0  0  0  0  0
   -0.9450   -9.7836    2.9641 H   0  0  0  0  0  0  0  0  0  0  0  0
   -1.8775   -8.3737    4.7744 H   0  0  0  0  0  0  0  0  0  0  0  0
   -0.8709   -6.1657    5.2871 H   0  0  0  0  0  0  0  0  0  0  0  0
  1  2  2  0
  2 25  1  0
  2  3  1  0
  3  8  1  0
  3  4  2  0
  4  5  1  0
  4 18  1  0
  6  5  1  1
  6 16  1  0
  6  7  1  0
  6  9  1  0
  7  8  1  0
  9 14  1  0
  9 10  1  0
  9 26  1  1
 10 11  1  0
 10 27  1  0
 10 28  1  0
 11 17  1  0
 11 12  1  0
 11 29  1  6
 12 13  1  0
 12 30  1  0
 12 31  1  0
 13 14  1  0
 13 15  1  0
 13 32  1  6
 14 33  1  0
 14 34  1  0
 15 16  1  0
 15 35  1  0
 15 36  1  0
 16 17  1  0
 16 37  1  1
 17 38  1  0
 17 39  1  0
 18 19  1  0
 18 20  1  0
 18 40  1  6
 19 41  1  0
 20 25  2  0
 20 21  1  0
 21 22  2  0
 21 42  1  0
 22 23  1  0
 22 43  1  0
 23 24  2  0
 23 44  1  0
 24 25  1  0
 24 45  1  0
M  END
>  <i_m_ct_stereo_status>  (57) 
1

>  <s_m_source_file>  (57) 
/var/tmp/pbs.5076255.sched01/tmp7dv9smms/08akalw19.sdf

>  <i_m_source_file_index>  (57) 
20

>  <i_lp_mmshare_version>  (57) 
48012

>  <i_f3d_flags>  (57) 
0

>  <s_epik_input>  (57) 
W2NIXTFbY0hdW2NIXVtjSF1jKFtDQEBIXTJbT0hdKWMxQyg9TylDKE9PMyk9QzJPW0NAXTM0W0NAQEhdNVtDSDJdW0NASF02W0NIMl1bQ0BASF0oW0NIMl01KVtDSDJdW0NAQEhdNFtDSDJdNg==

>  <s_epik_cmdline>  (57) 
J2VwaWtfcHl0aG9uJywgJy1waHQnLCAnMi4wJywgJy1waCcsICc3LjAnLCAnLXRuJywgJzgnLCAnLW1hJywgJzIwMCcsICctaW1hZScsICc8aW5maWxlLm1hZT4nLCAnLW9tYWUnLCAnPG91dGZpbGUubWFlPic=

>  <r_epik_Ionization_Penalty>  (57) 
1.23397

>  <r_epik_Ionization_Penalty_Charging>  (57) 
0

>  <r_epik_Ionization_Penalty_Neutral>  (57) 
1.23397

>  <r_epik_State_Penalty>  (57) 
1.30234

>  <r_epik_Charging_Adjusted_Penalty>  (57) 
1.30234

>  <i_epik_Tot_Q>  (57) 
0

>  <i_epik_Tot_abs_Q>  (57) 
0

>  <s_lp_Force_Field>  (57) 
OPLS3e

>  <r_lp_Energy>  (57) 
23.9795

>  <b_lp_Chiralities_Consistent>  (57) 
1

>  <s_lp_Variant>  (57) 
9:0-2

>  <s_i_glide_gridfile>  (57) 
pfpi4k_grid

>  <i_i_glide_lignum>  (57) 
20

>  <i_i_glide_rotatable_bonds>  (57) 
1

>  <r_i_docking_score>  (57) 
-3.08654

>  <r_i_glide_ligand_efficiency>  (57) 
-0.123462

>  <r_i_glide_ligand_efficiency_sa>  (57) 
-0.361004

>  <r_i_glide_ligand_efficiency_ln>  (57) 
-0.731602

>  <r_i_glide_gscore>  (57) 
-3.08654

>  <r_i_glide_lipo>  (57) 
-0.374678

>  <r_i_glide_hbond>  (57) 
0

>  <r_i_glide_metal>  (57) 
-0

>  <r_i_glide_rewards>  (57) 
-1.1053

>  <r_i_glide_evdw>  (57) 
-28.2105

>  <r_i_glide_ecoul>  (57) 
-1.2628

>  <r_i_glide_erotb>  (57) 
0

>  <r_i_glide_esite>  (57) 
-0.00661187

>  <r_i_glide_emodel>  (57) 
-35.0378

>  <r_i_glide_energy>  (57) 
-29.4733

>  <r_i_glide_einternal>  (57) 
0.708448

>  <r_i_glide_intrahb_reward>  (57) 
-0

>  <i_i_glide_confnum>  (57) 
1

>  <i_i_glide_posenum>  (57) 
2

>  <r_i_glide_eff_state_penalty>  (57) 
0

>  <ligand_id>  (57) 
9

>  <original_smiles>  (57) 
O=C1C2=C(OC3(OO2)C2CC4CC(C2)CC3C4)C(O)c2ccccc21

>  <smiles>  (57) 
[H]OC1([H])C2=C(OOC3(O2)C2([H])C([H])([H])C4([H])C([H])([H])C([H])(C2([H])[H])C([H])([H])C3([H])C4([H])[H])C(=O)c2c([H])c([H])c([H])c([H])c21

$$$$
10:0:0
     RDKit          3D

 16 18  0  0  1  0  0  0  0  0999 V2000
   -0.5111   -9.1148    2.7924 C   0  0  0  0  0  0  0  0  0  0  0  0
   -0.5861   -7.8910    2.0854 C   0  0  0  0  0  0  0  0  0  0  0  0
   -0.3789   -6.6621    2.6212 N   0  0  0  0  0  0  0  0  0  0  0  0
   -0.0558   -6.6713    3.9524 C   0  0  0  0  0  0  0  0  0  0  0  0
    0.2178   -5.5385    4.7677 N   0  0  0  0  0  0  0  0  0  0  0  0
    0.4786   -5.9740    6.0120 C   0  0  0  0  0  0  0  0  0  0  0  0
    0.7753   -5.4958    7.1890 N   0  0  0  0  0  0  0  0  0  0  0  0
    0.8764   -6.6784    7.9742 O   0  0  0  0  0  0  0  0  0  0  0  0
    0.6174   -7.8406    7.2027 N   0  0  0  0  0  0  0  0  0  0  0  0
    0.3959   -7.3095    6.0390 C   0  0  0  0  0  0  0  0  0  0  0  0
    0.0570   -7.8628    4.7830 C   0  0  0  0  0  0  0  0  0  0  0  0
   -0.1854   -9.1027    4.1621 C   0  0  0  0  0  0  0  0  0  0  0  0
    0.2356   -4.5640    4.4917 H   0  0  0  0  0  0  0  0  0  0  0  0
   -0.6951  -10.0579    2.2898 H   0  0  0  0  0  0  0  0  0  0  0  0
   -0.8328   -7.9006    1.0328 H   0  0  0  0  0  0  0  0  0  0  0  0
   -0.1235  -10.0187    4.7349 H   0  0  0  0  0  0  0  0  0  0  0  0
  1 12  2  0
  1  2  1  0
  1 14  1  0
  2  3  2  0
  2 15  1  0
  3  4  1  0
  4 11  2  0
  4  5  1  0
  5 13  1  0
  5  6  1  0
  6 10  1  0
  6  7  2  0
  7  8  1  0
  8  9  1  0
  9 10  2  0
 10 11  1  0
 11 12  1  0
 12 16  1  0
M  END
>  <i_m_ct_stereo_status>  (58) 
1

>  <s_m_source_file>  (58) 
/var/tmp/pbs.5076255.sched01/tmp7dv9smms/08akalw19.sdf

>  <i_m_source_file_index>  (58) 
21

>  <i_lp_mmshare_version>  (58) 
48012

>  <i_f3d_flags>  (58) 
0

>  <s_epik_input>  (58) 
bjFbY0hdW2NIXVtjSF1jKGMxMiljM2MoW25IXTIpbm9uMw==

>  <s_epik_cmdline>  (58) 
J2VwaWtfcHl0aG9uJywgJy1waHQnLCAnMi4wJywgJy1waCcsICc3LjAnLCAnLXRuJywgJzgnLCAnLW1hJywgJzIwMCcsICctaW1hZScsICc8aW5maWxlLm1hZT4nLCAnLW9tYWUnLCAnPG91dGZpbGUubWFlPic=

>  <r_epik_Ionization_Penalty>  (58) 
0.0346729

>  <r_epik_Ionization_Penalty_Charging>  (58) 
0

>  <r_epik_Ionization_Penalty_Neutral>  (58) 
0.0346729

>  <r_epik_State_Penalty>  (58) 
0.0288335

>  <r_epik_Charging_Adjusted_Penalty>  (58) 
0.0288335

>  <i_epik_Tot_Q>  (58) 
0

>  <i_epik_Tot_abs_Q>  (58) 
0

>  <s_lp_Force_Field>  (58) 
OPLS3e

>  <r_lp_Energy>  (58) 
13.3706

>  <b_lp_Chiralities_Consistent>  (58) 
1

>  <s_lp_Variant>  (58) 
10:0-1

>  <s_i_glide_gridfile>  (58) 
pfpi4k_grid

>  <i_i_glide_lignum>  (58) 
21

>  <i_i_glide_rotatable_bonds>  (58) 
0

>  <r_i_docking_score>  (58) 
-3.96859

>  <r_i_glide_ligand_efficiency>  (58) 
-0.330716

>  <r_i_glide_ligand_efficiency_sa>  (58) 
-0.75715

>  <r_i_glide_ligand_efficiency_ln>  (58) 
-1.13879

>  <r_i_glide_gscore>  (58) 
-3.96859

>  <r_i_glide_lipo>  (58) 
0

>  <r_i_glide_hbond>  (58) 
-0.16

>  <r_i_glide_metal>  (58) 
-0

>  <r_i_glide_rewards>  (58) 
-2.25

>  <r_i_glide_evdw>  (58) 
-12.1079

>  <r_i_glide_ecoul>  (58) 
-5.70845

>  <r_i_glide_erotb>  (58) 
0

>  <r_i_glide_esite>  (58) 
-0.0969268

>  <r_i_glide_emodel>  (58) 
-22.7717

>  <r_i_glide_energy>  (58) 
-17.8163

>  <r_i_glide_einternal>  (58) 
0

>  <r_i_glide_intrahb_reward>  (58) 
-0

>  <i_i_glide_confnum>  (58) 
1

>  <i_i_glide_posenum>  (58) 
3

>  <r_i_glide_eff_state_penalty>  (58) 
0

>  <ligand_id>  (58) 
10

>  <original_smiles>  (58) 
c1cnc2[nH]c3nonc3c2c1

>  <smiles>  (58) 
[H]c1nc2c(c([H])c1[H])c1nonc1n2[H]

$$$$
10:0:1
     RDKit          3D

 16 18  0  0  1  0  0  0  0  0999 V2000
   -1.2462   -8.6393    3.1154 C   0  0  0  0  0  0  0  0  0  0  0  0
   -0.7625   -7.8092    2.0820 C   0  0  0  0  0  0  0  0  0  0  0  0
   -0.0711   -6.6546    2.2614 N   0  0  0  0  0  0  0  0  0  0  0  0
    0.2108   -6.3536    3.5639 C   0  0  0  0  0  0  0  0  0  0  0  0
    0.9408   -5.2301    4.0423 N   0  0  0  0  0  0  0  0  0  0  0  0
    0.9596   -5.2886    5.3869 C   0  0  0  0  0  0  0  0  0  0  0  0
    1.4117   -4.6080    6.4034 N   0  0  0  0  0  0  0  0  0  0  0  0
    0.9697   -5.3922    7.5072 O   0  0  0  0  0  0  0  0  0  0  0  0
    0.2364   -6.5337    7.0777 N   0  0  0  0  0  0  0  0  0  0  0  0
    0.2956   -6.3800    5.7897 C   0  0  0  0  0  0  0  0  0  0  0  0
   -0.2262   -7.1311    4.7119 C   0  0  0  0  0  0  0  0  0  0  0  0
   -0.9743   -8.2943    4.4545 C   0  0  0  0  0  0  0  0  0  0  0  0
    1.3766   -4.4938    3.5014 H   0  0  0  0  0  0  0  0  0  0  0  0
   -1.8099   -9.5374    2.8959 H   0  0  0  0  0  0  0  0  0  0  0  0
   -0.9754   -8.0659    1.0539 H   0  0  0  0  0  0  0  0  0  0  0  0
   -1.3252   -8.9160    5.2678 H   0  0  0  0  0  0  0  0  0  0  0  0
  1 12  2  0
  1  2  1  0
  1 14  1  0
  2  3  2  0
  2 15  1  0
  3  4  1  0
  4 11  2  0
  4  5  1  0
  5 13  1  0
  5  6  1  0
  6 10  1  0
  6  7  2  0
  7  8  1  0
  8  9  1  0
  9 10  2  0
 10 11  1  0
 11 12  1  0
 12 16  1  0
M  END
>  <i_m_ct_stereo_status>  (59) 
1

>  <s_m_source_file>  (59) 
/var/tmp/pbs.5076255.sched01/tmp7dv9smms/08akalw19.sdf

>  <i_m_source_file_index>  (59) 
21

>  <i_lp_mmshare_version>  (59) 
48012

>  <i_f3d_flags>  (59) 
0

>  <s_epik_input>  (59) 
bjFbY0hdW2NIXVtjSF1jKGMxMiljM2MoW25IXTIpbm9uMw==

>  <s_epik_cmdline>  (59) 
J2VwaWtfcHl0aG9uJywgJy1waHQnLCAnMi4wJywgJy1waCcsICc3LjAnLCAnLXRuJywgJzgnLCAnLW1hJywgJzIwMCcsICctaW1hZScsICc8aW5maWxlLm1hZT4nLCAnLW9tYWUnLCAnPG91dGZpbGUubWFlPic=

>  <r_epik_Ionization_Penalty>  (59) 
0.0346729

>  <r_epik_Ionization_Penalty_Charging>  (59) 
0

>  <r_epik_Ionization_Penalty_Neutral>  (59) 
0.0346729

>  <r_epik_State_Penalty>  (59) 
0.0288335

>  <r_epik_Charging_Adjusted_Penalty>  (59) 
0.0288335

>  <i_epik_Tot_Q>  (59) 
0

>  <i_epik_Tot_abs_Q>  (59) 
0

>  <s_lp_Force_Field>  (59) 
OPLS3e

>  <r_lp_Energy>  (59) 
13.3706

>  <b_lp_Chiralities_Consistent>  (59) 
1

>  <s_lp_Variant>  (59) 
10:0-1

>  <s_i_glide_gridfile>  (59) 
pfpi4k_grid

>  <i_i_glide_lignum>  (59) 
21

>  <i_i_glide_rotatable_bonds>  (59) 
0

>  <r_i_docking_score>  (59) 
-3.82987

>  <r_i_glide_ligand_efficiency>  (59) 
-0.319156

>  <r_i_glide_ligand_efficiency_sa>  (59) 
-0.730684

>  <r_i_glide_ligand_efficiency_ln>  (59) 
-1.09899

>  <r_i_glide_gscore>  (59) 
-3.82987

>  <r_i_glide_lipo>  (59) 
0

>  <r_i_glide_hbond>  (59) 
-0.16

>  <r_i_glide_metal>  (59) 
-0

>  <r_i_glide_rewards>  (59) 
-2.25

>  <r_i_glide_evdw>  (59) 
-12.6394

>  <r_i_glide_ecoul>  (59) 
-4.72711

>  <r_i_glide_erotb>  (59) 
0

>  <r_i_glide_esite>  (59) 
-0.0788334

>  <r_i_glide_emodel>  (59) 
-22.1462

>  <r_i_glide_energy>  (59) 
-17.3665

>  <r_i_glide_einternal>  (59) 
0

>  <r_i_glide_intrahb_reward>  (59) 
-0

>  <i_i_glide_confnum>  (59) 
1

>  <i_i_glide_posenum>  (59) 
10

>  <r_i_glide_eff_state_penalty>  (59) 
0

>  <ligand_id>  (59) 
10

>  <original_smiles>  (59) 
c1cnc2[nH]c3nonc3c2c1

>  <smiles>  (59) 
[H]c1nc2c(c([H])c1[H])c1nonc1n2[H]

$$$$
10:0:2
     RDKit          3D

 16 18  0  0  1  0  0  0  0  0999 V2000
    4.1272   -0.5113   -3.1326 C   0  0  0  0  0  0  0  0  0  0  0  0
    3.2853   -1.3113   -3.9314 C   0  0  0  0  0  0  0  0  0  0  0  0
    2.6555   -2.4371   -3.5166 N   0  0  0  0  0  0  0  0  0  0  0  0
    2.8553   -2.7474   -2.1970 C   0  0  0  0  0  0  0  0  0  0  0  0
    2.2755   -3.8403   -1.4890 N   0  0  0  0  0  0  0  0  0  0  0  0
    2.7535   -3.8136   -0.2313 C   0  0  0  0  0  0  0  0  0  0  0  0
    2.6798   -4.4992    0.8708 N   0  0  0  0  0  0  0  0  0  0  0  0
    3.5235   -3.7524    1.7466 O   0  0  0  0  0  0  0  0  0  0  0  0
    4.0906   -2.6309    1.0899 N   0  0  0  0  0  0  0  0  0  0  0  0
    3.5705   -2.7575   -0.0927 C   0  0  0  0  0  0  0  0  0  0  0  0
    3.7103   -2.0122   -1.2775 C   0  0  0  0  0  0  0  0  0  0  0  0
    4.3555   -0.8670   -1.7884 C   0  0  0  0  0  0  0  0  0  0  0  0
    1.7189   -4.5810   -1.8904 H   0  0  0  0  0  0  0  0  0  0  0  0
    4.5721    0.3896   -3.5337 H   0  0  0  0  0  0  0  0  0  0  0  0
    3.1079   -1.0385   -4.9615 H   0  0  0  0  0  0  0  0  0  0  0  0
    4.9657   -0.2625   -1.1399 H   0  0  0  0  0  0  0  0  0  0  0  0
  1 12  2  0
  1  2  1  0
  1 14  1  0
  2  3  2  0
  2 15  1  0
  3  4  1  0
  4 11  2  0
  4  5  1  0
  5 13  1  0
  5  6  1  0
  6 10  1  0
  6  7  2  0
  7  8  1  0
  8  9  1  0
  9 10  2  0
 10 11  1  0
 11 12  1  0
 12 16  1  0
M  END
>  <i_m_ct_stereo_status>  (60) 
1

>  <s_m_source_file>  (60) 
/var/tmp/pbs.5076255.sched01/tmp7dv9smms/08akalw19.sdf

>  <i_m_source_file_index>  (60) 
21

>  <i_lp_mmshare_version>  (60) 
48012

>  <i_f3d_flags>  (60) 
0

>  <s_epik_input>  (60) 
bjFbY0hdW2NIXVtjSF1jKGMxMiljM2MoW25IXTIpbm9uMw==

>  <s_epik_cmdline>  (60) 
J2VwaWtfcHl0aG9uJywgJy1waHQnLCAnMi4wJywgJy1waCcsICc3LjAnLCAnLXRuJywgJzgnLCAnLW1hJywgJzIwMCcsICctaW1hZScsICc8aW5maWxlLm1hZT4nLCAnLW9tYWUnLCAnPG91dGZpbGUubWFlPic=

>  <r_epik_Ionization_Penalty>  (60) 
0.0346729

>  <r_epik_Ionization_Penalty_Charging>  (60) 
0

>  <r_epik_Ionization_Penalty_Neutral>  (60) 
0.0346729

>  <r_epik_State_Penalty>  (60) 
0.0288335

>  <r_epik_Charging_Adjusted_Penalty>  (60) 
0.0288335

>  <i_epik_Tot_Q>  (60) 
0

>  <i_epik_Tot_abs_Q>  (60) 
0

>  <s_lp_Force_Field>  (60) 
OPLS3e

>  <r_lp_Energy>  (60) 
13.3706

>  <b_lp_Chiralities_Consistent>  (60) 
1

>  <s_lp_Variant>  (60) 
10:0-1

>  <s_i_glide_gridfile>  (60) 
pfpi4k_grid

>  <i_i_glide_lignum>  (60) 
21

>  <i_i_glide_rotatable_bonds>  (60) 
0

>  <r_i_docking_score>  (60) 
-3.82446

>  <r_i_glide_ligand_efficiency>  (60) 
-0.318705

>  <r_i_glide_ligand_efficiency_sa>  (60) 
-0.729652

>  <r_i_glide_ligand_efficiency_ln>  (60) 
-1.09743

>  <r_i_glide_gscore>  (60) 
-3.82446

>  <r_i_glide_lipo>  (60) 
-0.322788

>  <r_i_glide_hbond>  (60) 
-0.0666558

>  <r_i_glide_metal>  (60) 
-0

>  <r_i_glide_rewards>  (60) 
-2.25

>  <r_i_glide_evdw>  (60) 
-15.1509

>  <r_i_glide_ecoul>  (60) 
-2.21245

>  <r_i_glide_erotb>  (60) 
0

>  <r_i_glide_esite>  (60) 
-0.0956023

>  <r_i_glide_emodel>  (60) 
-22.1327

>  <r_i_glide_energy>  (60) 
-17.3633

>  <r_i_glide_einternal>  (60) 
0

>  <r_i_glide_intrahb_reward>  (60) 
-0

>  <i_i_glide_confnum>  (60) 
1

>  <i_i_glide_posenum>  (60) 
4

>  <r_i_glide_eff_state_penalty>  (60) 
0

>  <ligand_id>  (60) 
10

>  <original_smiles>  (60) 
c1cnc2[nH]c3nonc3c2c1

>  <smiles>  (60) 
[H]c1nc2c(c([H])c1[H])c1nonc1n2[H]

$$$$
10:1:0
     RDKit          3D

 15 17  0  0  1  0  0  0  0  0999 V2000
    3.7909   -7.3750    1.2804 C   0  0  0  0  0  0  0  0  0  0  0  0
    3.3535   -6.1237    0.8005 C   0  0  0  0  0  0  0  0  0  0  0  0
    2.0709   -5.7002    0.8830 N   0  0  0  0  0  0  0  0  0  0  0  0
    1.1494   -6.4931    1.4626 C   0  0  0  0  0  0  0  0  0  0  0  0
   -0.1839   -6.2864    1.6751 N   0  0  0  0  0  0  0  0  0  0  0  0
   -0.6999   -7.3740    2.2980 C   0  0  0  0  0  0  0  0  0  0  0  0
   -1.8279   -7.8035    2.7852 N   0  0  0  0  0  0  0  0  0  0  0  0
   -1.4611   -9.0895    3.2799 O   0  0  0  0  0  0  0  0  0  0  0  0
   -0.0774   -9.3685    3.0852 N   0  0  0  0  0  0  0  0  0  0  0  0
    0.2860   -8.2789    2.4878 C   0  0  0  0  0  0  0  0  0  0  0  0
    1.5048   -7.7749    1.9791 C   0  0  0  0  0  0  0  0  0  0  0  0
    2.8407   -8.2212    1.8841 C   0  0  0  0  0  0  0  0  0  0  0  0
    4.8234   -7.6821    1.1765 H   0  0  0  0  0  0  0  0  0  0  0  0
    4.0463   -5.4461    0.3209 H   0  0  0  0  0  0  0  0  0  0  0  0
    3.1221   -9.1951    2.2638 H   0  0  0  0  0  0  0  0  0  0  0  0
  1 12  2  0
  1  2  1  0
  1 13  1  0
  2  3  2  0
  2 14  1  0
  3  4  1  0
  4 11  2  0
  4  5  1  0
  5  6  1  0
  6 10  1  0
  6  7  2  0
  7  8  1  0
  8  9  1  0
  9 10  2  0
 10 11  1  0
 11 12  1  0
 12 15  1  0
M  CHG  1   5  -1
M  END
>  <i_m_ct_stereo_status>  (61) 
1

>  <s_m_source_file>  (61) 
/var/tmp/pbs.5076255.sched01/tmp7dv9smms/08akalw19.sdf

>  <i_m_source_file_index>  (61) 
22

>  <i_lp_mmshare_version>  (61) 
48012

>  <i_f3d_flags>  (61) 
0

>  <s_epik_input>  (61) 
bjFbY0hdW2NIXVtjSF1jKGMxMiljM2MoW25IXTIpbm9uMw==

>  <s_epik_cmdline>  (61) 
J2VwaWtfcHl0aG9uJywgJy1waHQnLCAnMi4wJywgJy1waCcsICc3LjAnLCAnLXRuJywgJzgnLCAnLW1hJywgJzIwMCcsICctaW1hZScsICc8aW5maWxlLm1hZT4nLCAnLW9tYWUnLCAnPG91dGZpbGUubWFlPic=

>  <r_epik_Ionization_Penalty>  (61) 
1.69945

>  <r_epik_Ionization_Penalty_Charging>  (61) 
1.69945

>  <r_epik_Ionization_Penalty_Neutral>  (61) 
1.82334e-08

>  <r_epik_State_Penalty>  (61) 
1.80532

>  <r_epik_Charging_Adjusted_Penalty>  (61) 
3.50477

>  <i_epik_Tot_Q>  (61) 
-1

>  <i_epik_Tot_abs_Q>  (61) 
1

>  <s_lp_Force_Field>  (61) 
OPLS3e

>  <r_lp_Energy>  (61) 
15.281

>  <b_lp_Chiralities_Consistent>  (61) 
1

>  <s_lp_Variant>  (61) 
10:0-2

>  <s_i_glide_gridfile>  (61) 
pfpi4k_grid

>  <i_i_glide_lignum>  (61) 
22

>  <i_i_glide_rotatable_bonds>  (61) 
0

>  <r_i_docking_score>  (61) 
-4.46172

>  <r_i_glide_ligand_efficiency>  (61) 
-0.37181

>  <r_i_glide_ligand_efficiency_sa>  (61) 
-0.851233

>  <r_i_glide_ligand_efficiency_ln>  (61) 
-1.2803

>  <r_i_glide_gscore>  (61) 
-4.46172

>  <r_i_glide_lipo>  (61) 
-0.0924089

>  <r_i_glide_hbond>  (61) 
-0.375927

>  <r_i_glide_metal>  (61) 
-0

>  <r_i_glide_rewards>  (61) 
-2.25

>  <r_i_glide_evdw>  (61) 
-15.265

>  <r_i_glide_ecoul>  (61) 
-4.37046

>  <r_i_glide_erotb>  (61) 
0

>  <r_i_glide_esite>  (61) 
-0.32457

>  <r_i_glide_emodel>  (61) 
-30.0989

>  <r_i_glide_energy>  (61) 
-19.6354

>  <r_i_glide_einternal>  (61) 
0

>  <r_i_glide_intrahb_reward>  (61) 
-0

>  <i_i_glide_confnum>  (61) 
2

>  <i_i_glide_posenum>  (61) 
24

>  <r_i_glide_eff_state_penalty>  (61) 
0

>  <ligand_id>  (61) 
10

>  <original_smiles>  (61) 
c1cnc2[nH]c3nonc3c2c1

>  <smiles>  (61) 
[H]c1nc2[n-]c3nonc3c2c([H])c1[H]

$$$$
10:1:1
     RDKit          3D

 15 17  0  0  1  0  0  0  0  0999 V2000
   -0.1205   -9.8106    3.2867 C   0  0  0  0  0  0  0  0  0  0  0  0
   -1.2742   -9.0649    2.9829 C   0  0  0  0  0  0  0  0  0  0  0  0
   -1.2498   -7.8879    2.3252 N   0  0  0  0  0  0  0  0  0  0  0  0
   -0.0674   -7.3989    1.8905 C   0  0  0  0  0  0  0  0  0  0  0  0
    0.2245   -6.2626    1.1950 N   0  0  0  0  0  0  0  0  0  0  0  0
    1.5733   -6.1843    1.0117 C   0  0  0  0  0  0  0  0  0  0  0  0
    2.4795   -5.4152    0.4735 N   0  0  0  0  0  0  0  0  0  0  0  0
    3.6878   -6.1241    0.7562 O   0  0  0  0  0  0  0  0  0  0  0  0
    3.4381   -7.3200    1.4888 N   0  0  0  0  0  0  0  0  0  0  0  0
    2.1450   -7.2614    1.5928 C   0  0  0  0  0  0  0  0  0  0  0  0
    1.1529   -8.0896    2.1694 C   0  0  0  0  0  0  0  0  0  0  0  0
    1.1251   -9.3105    2.8746 C   0  0  0  0  0  0  0  0  0  0  0  0
   -0.1855  -10.7321    3.8493 H   0  0  0  0  0  0  0  0  0  0  0  0
   -2.2500   -9.4108    3.2856 H   0  0  0  0  0  0  0  0  0  0  0  0
    2.0415   -9.8433    3.0975 H   0  0  0  0  0  0  0  0  0  0  0  0
  1 12  2  0
  1  2  1  0
  1 13  1  0
  2  3  2  0
  2 14  1  0
  3  4  1  0
  4 11  2  0
  4  5  1  0
  5  6  1  0
  6 10  1  0
  6  7  2  0
  7  8  1  0
  8  9  1  0
  9 10  2  0
 10 11  1  0
 11 12  1  0
 12 15  1  0
M  CHG  1   5  -1
M  END
>  <i_m_ct_stereo_status>  (62) 
1

>  <s_m_source_file>  (62) 
/var/tmp/pbs.5076255.sched01/tmp7dv9smms/08akalw19.sdf

>  <i_m_source_file_index>  (62) 
22

>  <i_lp_mmshare_version>  (62) 
48012

>  <i_f3d_flags>  (62) 
0

>  <s_epik_input>  (62) 
bjFbY0hdW2NIXVtjSF1jKGMxMiljM2MoW25IXTIpbm9uMw==

>  <s_epik_cmdline>  (62) 
J2VwaWtfcHl0aG9uJywgJy1waHQnLCAnMi4wJywgJy1waCcsICc3LjAnLCAnLXRuJywgJzgnLCAnLW1hJywgJzIwMCcsICctaW1hZScsICc8aW5maWxlLm1hZT4nLCAnLW9tYWUnLCAnPG91dGZpbGUubWFlPic=

>  <r_epik_Ionization_Penalty>  (62) 
1.69945

>  <r_epik_Ionization_Penalty_Charging>  (62) 
1.69945

>  <r_epik_Ionization_Penalty_Neutral>  (62) 
1.82334e-08

>  <r_epik_State_Penalty>  (62) 
1.80532

>  <r_epik_Charging_Adjusted_Penalty>  (62) 
3.50477

>  <i_epik_Tot_Q>  (62) 
-1

>  <i_epik_Tot_abs_Q>  (62) 
1

>  <s_lp_Force_Field>  (62) 
OPLS3e

>  <r_lp_Energy>  (62) 
15.281

>  <b_lp_Chiralities_Consistent>  (62) 
1

>  <s_lp_Variant>  (62) 
10:0-2

>  <s_i_glide_gridfile>  (62) 
pfpi4k_grid

>  <i_i_glide_lignum>  (62) 
22

>  <i_i_glide_rotatable_bonds>  (62) 
0

>  <r_i_docking_score>  (62) 
-4.18688

>  <r_i_glide_ligand_efficiency>  (62) 
-0.348907

>  <r_i_glide_ligand_efficiency_sa>  (62) 
-0.798797

>  <r_i_glide_ligand_efficiency_ln>  (62) 
-1.20143

>  <r_i_glide_gscore>  (62) 
-4.18688

>  <r_i_glide_lipo>  (62) 
-0.0188317

>  <r_i_glide_hbond>  (62) 
-0.242292

>  <r_i_glide_metal>  (62) 
-0

>  <r_i_glide_rewards>  (62) 
-2.25

>  <r_i_glide_evdw>  (62) 
-15.4453

>  <r_i_glide_ecoul>  (62) 
-4.71366

>  <r_i_glide_erotb>  (62) 
0

>  <r_i_glide_esite>  (62) 
-0.196445

>  <r_i_glide_emodel>  (62) 
-29.9768

>  <r_i_glide_energy>  (62) 
-20.159

>  <r_i_glide_einternal>  (62) 
0

>  <r_i_glide_intrahb_reward>  (62) 
-0

>  <i_i_glide_confnum>  (62) 
1

>  <i_i_glide_posenum>  (62) 
34

>  <r_i_glide_eff_state_penalty>  (62) 
0

>  <ligand_id>  (62) 
10

>  <original_smiles>  (62) 
c1cnc2[nH]c3nonc3c2c1

>  <smiles>  (62) 
[H]c1nc2[n-]c3nonc3c2c([H])c1[H]

$$$$
10:1:2
     RDKit          3D

 15 17  0  0  1  0  0  0  0  0999 V2000
   -0.9525    3.1893    3.8044 C   0  0  0  0  0  0  0  0  0  0  0  0
   -1.7328    3.4454    4.9476 C   0  0  0  0  0  0  0  0  0  0  0  0
   -2.0534    2.5100    5.8678 N   0  0  0  0  0  0  0  0  0  0  0  0
   -1.6060    1.2459    5.7033 C   0  0  0  0  0  0  0  0  0  0  0  0
   -1.7851    0.1343    6.4788 N   0  0  0  0  0  0  0  0  0  0  0  0
   -1.1420   -0.9102    5.8889 C   0  0  0  0  0  0  0  0  0  0  0  0
   -0.9276   -2.1830    6.0677 N   0  0  0  0  0  0  0  0  0  0  0  0
   -0.1222   -2.5130    4.9321 O   0  0  0  0  0  0  0  0  0  0  0  0
    0.1112   -1.3848    4.0952 N   0  0  0  0  0  0  0  0  0  0  0  0
   -0.5477   -0.4786    4.7531 C   0  0  0  0  0  0  0  0  0  0  0  0
   -0.8081    0.8984    4.5679 C   0  0  0  0  0  0  0  0  0  0  0  0
   -0.4799    1.8795    3.6083 C   0  0  0  0  0  0  0  0  0  0  0  0
   -0.7159    3.9703    3.0918 H   0  0  0  0  0  0  0  0  0  0  0  0
   -2.1148    4.4380    5.1361 H   0  0  0  0  0  0  0  0  0  0  0  0
    0.1250    1.6325    2.7462 H   0  0  0  0  0  0  0  0  0  0  0  0
  1 12  2  0
  1  2  1  0
  1 13  1  0
  2  3  2  0
  2 14  1  0
  3  4  1  0
  4 11  2  0
  4  5  1  0
  5  6  1  0
  6 10  1  0
  6  7  2  0
  7  8  1  0
  8  9  1  0
  9 10  2  0
 10 11  1  0
 11 12  1  0
 12 15  1  0
M  CHG  1   5  -1
M  END
>  <i_m_ct_stereo_status>  (63) 
1

>  <s_m_source_file>  (63) 
/var/tmp/pbs.5076255.sched01/tmp7dv9smms/08akalw19.sdf

>  <i_m_source_file_index>  (63) 
22

>  <i_lp_mmshare_version>  (63) 
48012

>  <i_f3d_flags>  (63) 
0

>  <s_epik_input>  (63) 
bjFbY0hdW2NIXVtjSF1jKGMxMiljM2MoW25IXTIpbm9uMw==

>  <s_epik_cmdline>  (63) 
J2VwaWtfcHl0aG9uJywgJy1waHQnLCAnMi4wJywgJy1waCcsICc3LjAnLCAnLXRuJywgJzgnLCAnLW1hJywgJzIwMCcsICctaW1hZScsICc8aW5maWxlLm1hZT4nLCAnLW9tYWUnLCAnPG91dGZpbGUubWFlPic=

>  <r_epik_Ionization_Penalty>  (63) 
1.69945

>  <r_epik_Ionization_Penalty_Charging>  (63) 
1.69945

>  <r_epik_Ionization_Penalty_Neutral>  (63) 
1.82334e-08

>  <r_epik_State_Penalty>  (63) 
1.80532

>  <r_epik_Charging_Adjusted_Penalty>  (63) 
3.50477

>  <i_epik_Tot_Q>  (63) 
-1

>  <i_epik_Tot_abs_Q>  (63) 
1

>  <s_lp_Force_Field>  (63) 
OPLS3e

>  <r_lp_Energy>  (63) 
15.281

>  <b_lp_Chiralities_Consistent>  (63) 
1

>  <s_lp_Variant>  (63) 
10:0-2

>  <s_i_glide_gridfile>  (63) 
pfpi4k_grid

>  <i_i_glide_lignum>  (63) 
22

>  <i_i_glide_rotatable_bonds>  (63) 
0

>  <r_i_docking_score>  (63) 
-3.80496

>  <r_i_glide_ligand_efficiency>  (63) 
-0.31708

>  <r_i_glide_ligand_efficiency_sa>  (63) 
-0.725931

>  <r_i_glide_ligand_efficiency_ln>  (63) 
-1.09184

>  <r_i_glide_gscore>  (63) 
-3.80496

>  <r_i_glide_lipo>  (63) 
0

>  <r_i_glide_hbond>  (63) 
-0.2

>  <r_i_glide_metal>  (63) 
-0

>  <r_i_glide_rewards>  (63) 
-2.25

>  <r_i_glide_evdw>  (63) 
-11.7956

>  <r_i_glide_ecoul>  (63) 
-4.06102

>  <r_i_glide_erotb>  (63) 
0

>  <r_i_glide_esite>  (63) 
-0.156026

>  <r_i_glide_emodel>  (63) 
-24.7791

>  <r_i_glide_energy>  (63) 
-15.8566

>  <r_i_glide_einternal>  (63) 
0

>  <r_i_glide_intrahb_reward>  (63) 
-0

>  <i_i_glide_confnum>  (63) 
1

>  <i_i_glide_posenum>  (63) 
5

>  <r_i_glide_eff_state_penalty>  (63) 
0

>  <ligand_id>  (63) 
10

>  <original_smiles>  (63) 
c1cnc2[nH]c3nonc3c2c1

>  <smiles>  (63) 
[H]c1nc2[n-]c3nonc3c2c([H])c1[H]

$$$$
11:0:0
     RDKit          3D

 60 64  0  0  1  0  0  0  0  0999 V2000
    0.8630   -9.5560    2.8365 C   0  0  0  0  0  0  0  0  0  0  0  0
    0.9954   -8.2301    3.0489 C   0  0  0  0  0  0  0  0  0  0  0  0
   -0.1175   -7.4781    3.7533 C   0  0  0  0  0  0  0  0  0  0  0  0
    0.4618   -6.6179    4.8471 C   0  0  0  0  0  0  0  0  0  0  0  0
    1.7721   -6.3408    5.0159 C   0  0  0  0  0  0  0  0  0  0  0  0
    2.1749   -5.5134    6.2330 C   0  0  0  0  0  0  0  0  0  0  0  0
    2.8928   -6.8354    4.0382 C   0  0  2  0  0  0  0  0  0  0  0  0
    3.5683   -7.9951    4.8261 C   0  0  0  0  0  0  0  0  0  0  0  0
    3.9376   -5.6641    3.7453 C   0  0  1  0  0  0  0  0  0  0  0  0
    5.3573   -6.0369    3.2205 C   0  0  0  0  0  0  0  0  0  0  0  0
    5.7294   -5.4151    1.8579 C   0  0  0  0  0  0  0  0  0  0  0  0
    5.5412   -3.8753    1.7465 C   0  0  1  0  0  0  0  0  0  0  0  0
    5.6113   -3.3624    0.2560 C   0  0  0  0  0  0  0  0  0  0  0  0
    7.0582   -3.5259   -0.2761 C   0  0  0  0  0  0  0  0  0  0  0  0
    4.6521   -4.1100   -0.7102 C   0  0  0  0  0  0  0  0  0  0  0  0
    5.2051   -1.8765    0.1767 C   0  0  0  0  0  0  0  0  0  0  0  0
    5.8253   -1.0885   -0.5437 O   0  0  0  0  0  0  0  0  0  0  0  0
    4.0204   -1.4690    0.9305 C   0  0  0  0  0  0  0  0  0  0  0  0
    3.6230   -2.1617    2.0087 C   0  0  0  0  0  0  0  0  0  0  0  0
    4.3401   -3.3624    2.6331 C   0  0  2  0  0  0  0  0  0  0  0  0
    4.8957   -2.7975    3.9632 C   0  0  0  0  0  0  0  0  0  0  0  0
    3.3523   -4.5246    2.9045 C   0  0  2  0  0  0  0  0  0  0  0  0
    2.0102   -4.1753    3.2468 O   0  0  0  0  0  0  0  0  0  0  0  0
    2.2228   -4.7979    1.9570 C   0  0  2  0  0  0  0  0  0  0  0  0
    1.7548   -6.2228    1.7569 C   0  0  0  0  0  0  0  0  0  0  0  0
    0.9739   -6.4454    0.8243 O   0  0  0  0  0  0  0  0  0  0  0  0
    2.2387   -7.3809    2.6863 C   0  0  2  0  0  0  0  0  0  0  0  0
    3.2128   -8.2348    1.8203 C   0  0  0  0  0  0  0  0  0  0  0  0
    1.6243  -10.1594    2.3665 H   0  0  0  0  0  0  0  0  0  0  0  0
   -0.0322  -10.0737    3.1469 H   0  0  0  0  0  0  0  0  0  0  0  0
   -0.6642   -6.8482    3.0508 H   0  0  0  0  0  0  0  0  0  0  0  0
   -0.8356   -8.1779    4.1838 H   0  0  0  0  0  0  0  0  0  0  0  0
   -0.2680   -6.2401    5.5488 H   0  0  0  0  0  0  0  0  0  0  0  0
    2.9760   -5.9925    6.7954 H   0  0  0  0  0  0  0  0  0  0  0  0
    1.3327   -5.3979    6.9185 H   0  0  0  0  0  0  0  0  0  0  0  0
    2.4910   -4.5119    5.9422 H   0  0  0  0  0  0  0  0  0  0  0  0
    4.3283   -8.5360    4.2676 H   0  0  0  0  0  0  0  0  0  0  0  0
    2.8260   -8.7349    5.1368 H   0  0  0  0  0  0  0  0  0  0  0  0
    4.0531   -7.6356    5.7340 H   0  0  0  0  0  0  0  0  0  0  0  0
    4.1615   -5.2305    4.7143 H   0  0  0  0  0  0  0  0  0  0  0  0
    6.0991   -5.7121    3.9516 H   0  0  0  0  0  0  0  0  0  0  0  0
    5.5004   -7.1116    3.1522 H   0  0  0  0  0  0  0  0  0  0  0  0
    6.7661   -5.6719    1.6418 H   0  0  0  0  0  0  0  0  0  0  0  0
    5.1543   -5.9142    1.0897 H   0  0  0  0  0  0  0  0  0  0  0  0
    6.4364   -3.4584    2.2039 H   0  0  0  0  0  0  0  0  0  0  0  0
    7.3578   -4.5745   -0.3068 H   0  0  0  0  0  0  0  0  0  0  0  0
    7.7751   -2.9961    0.3554 H   0  0  0  0  0  0  0  0  0  0  0  0
    7.1683   -3.1393   -1.2912 H   0  0  0  0  0  0  0  0  0  0  0  0
    4.9584   -5.1382   -0.9124 H   0  0  0  0  0  0  0  0  0  0  0  0
    4.6151   -3.6185   -1.6850 H   0  0  0  0  0  0  0  0  0  0  0  0
    3.6276   -4.1319   -0.3387 H   0  0  0  0  0  0  0  0  0  0  0  0
    3.4794   -0.6007    0.5827 H   0  0  0  0  0  0  0  0  0  0  0  0
    2.7397   -1.8252    2.5380 H   0  0  0  0  0  0  0  0  0  0  0  0
    5.5439   -3.4943    4.4923 H   0  0  0  0  0  0  0  0  0  0  0  0
    4.0944   -2.4978    4.6407 H   0  0  0  0  0  0  0  0  0  0  0  0
    5.5010   -1.9097    3.7719 H   0  0  0  0  0  0  0  0  0  0  0  0
    2.0829   -4.1181    1.1240 H   0  0  0  0  0  0  0  0  0  0  0  0
    2.7084   -8.6081    0.9278 H   0  0  0  0  0  0  0  0  0  0  0  0
    3.5980   -9.1143    2.3338 H   0  0  0  0  0  0  0  0  0  0  0  0
    4.0648   -7.6715    1.4653 H   0  0  0  0  0  0  0  0  0  0  0  0
  1  2  2  0
  1 29  1  0
  1 30  1  0
  2 27  1  0
  2  3  1  0
  3  4  1  0
  3 31  1  0
  3 32  1  0
  4  5  2  0
  4 33  1  0
  5  6  1  0
  5  7  1  0
  6 34  1  0
  6 35  1  0
  6 36  1  0
  7 27  1  0
  7  8  1  1
  7  9  1  0
  8 37  1  0
  8 38  1  0
  8 39  1  0
  9 22  1  0
  9 10  1  0
  9 40  1  1
 10 11  1  0
 10 41  1  0
 10 42  1  0
 11 12  1  0
 11 43  1  0
 11 44  1  0
 12 20  1  0
 12 13  1  0
 12 45  1  1
 13 14  1  0
 13 15  1  0
 13 16  1  0
 14 46  1  0
 14 47  1  0
 14 48  1  0
 15 49  1  0
 15 50  1  0
 15 51  1  0
 16 17  2  0
 16 18  1  0
 18 19  2  0
 18 52  1  0
 19 20  1  0
 19 53  1  0
 20 21  1  1
 20 22  1  0
 21 54  1  0
 21 55  1  0
 21 56  1  0
 22 24  1  0
 22 23  1  1
 23 24  1  0
 24 25  1  0
 24 57  1  6
 25 26  2  0
 25 27  1  0
 27 28  1  6
 28 58  1  0
 28 59  1  0
 28 60  1  0
M  END
>  <i_m_ct_stereo_status>  (64) 
1

>  <s_m_source_file>  (64) 
/var/tmp/pbs.5076255.sched01/tmp7dv9smms/08akalw19.sdf

>  <i_m_source_file_index>  (64) 
23

>  <i_lp_mmshare_version>  (64) 
48012

>  <i_f3d_flags>  (64) 
0

>  <s_epik_input>  (64) 
W0NIM11DMT1bQ0hdW0NIMl1DKD1bQ0gyXSlbQ0BAXShbQ0gzXSkoQyg9TylbQ0BIXTJPMylbQ0BAXTEoW0NIM10pW0NASF0oW0NAQF0yMzQpW0NIMl1bQ0gyXVtDQEBIXTVbQ0BAXTQoW0NIM10pW0NIXT1bQ0hdQyg9TylDNShbQ0gzXSlbQ0gzXQ==

>  <s_epik_cmdline>  (64) 
J2VwaWtfcHl0aG9uJywgJy1waHQnLCAnMi4wJywgJy1waCcsICc3LjAnLCAnLXRuJywgJzgnLCAnLW1hJywgJzIwMCcsICctaW1hZScsICc8aW5maWxlLm1hZT4nLCAnLW9tYWUnLCAnPG91dGZpbGUubWFlPic=

>  <r_lp_tautomer_probability>  (64) 
1

>  <r_epik_Ionization_Penalty>  (64) 
3.02491e-11

>  <r_epik_Ionization_Penalty_Charging>  (64) 
0

>  <r_epik_Ionization_Penalty_Neutral>  (64) 
3.02491e-11

>  <r_epik_State_Penalty>  (64) 
-0

>  <r_epik_Charging_Adjusted_Penalty>  (64) 
0

>  <i_epik_Tot_Q>  (64) 
0

>  <i_epik_Tot_abs_Q>  (64) 
0

>  <s_lp_Force_Field>  (64) 
OPLS3e

>  <r_lp_Energy>  (64) 
65.1083

>  <b_lp_Chiralities_Consistent>  (64) 
1

>  <s_lp_Variant>  (64) 
11:0-1

>  <s_i_glide_gridfile>  (64) 
pfpi4k_grid

>  <i_i_glide_lignum>  (64) 
23

>  <i_i_glide_rotatable_bonds>  (64) 
0

>  <r_i_docking_score>  (64) 
-3.1631

>  <r_i_glide_ligand_efficiency>  (64) 
-0.112968

>  <r_i_glide_ligand_efficiency_sa>  (64) 
-0.343037

>  <r_i_glide_ligand_efficiency_ln>  (64) 
-0.730137

>  <r_i_glide_gscore>  (64) 
-3.1631

>  <r_i_glide_lipo>  (64) 
-0.360422

>  <r_i_glide_hbond>  (64) 
-0.167304

>  <r_i_glide_metal>  (64) 
-0

>  <r_i_glide_rewards>  (64) 
-0.844372

>  <r_i_glide_evdw>  (64) 
-27.2121

>  <r_i_glide_ecoul>  (64) 
-2.59838

>  <r_i_glide_erotb>  (64) 
0

>  <r_i_glide_esite>  (64) 
-0.0406419

>  <r_i_glide_emodel>  (64) 
-35.9486

>  <r_i_glide_energy>  (64) 
-29.8105

>  <r_i_glide_einternal>  (64) 
0

>  <r_i_glide_intrahb_reward>  (64) 
-0

>  <i_i_glide_confnum>  (64) 
2

>  <i_i_glide_posenum>  (64) 
5

>  <r_i_glide_eff_state_penalty>  (64) 
0

>  <ligand_id>  (64) 
11

>  <original_smiles>  (64) 
C=C1CC=C(C)C2(C)C3CCC4C(C)(C)C(=O)C=CC4(C)C34OC4C(=O)C12C

>  <smiles>  (64) 
[H]C([H])=C1C([H])([H])C([H])=C(C([H])([H])[H])C2(C([H])([H])[H])C1(C([H])([H])[H])C(=O)C1([H])OC13C2([H])C([H])([H])C([H])([H])C1([H])C(C([H])([H])[H])(C([H])([H])[H])C(=O)C([H])=C([H])C13C([H])([H])[H]

$$$$
11:0:1
     RDKit          3D

 60 64  0  0  1  0  0  0  0  0999 V2000
    2.1327   -9.6925    3.0129 C   0  0  0  0  0  0  0  0  0  0  0  0
    2.0710   -8.3593    3.1831 C   0  0  0  0  0  0  0  0  0  0  0  0
    0.9681   -7.7653    4.0410 C   0  0  0  0  0  0  0  0  0  0  0  0
    1.5503   -6.7711    5.0101 C   0  0  0  0  0  0  0  0  0  0  0  0
    2.8064   -6.2723    4.9666 C   0  0  0  0  0  0  0  0  0  0  0  0
    3.2416   -5.3327    6.0853 C   0  0  0  0  0  0  0  0  0  0  0  0
    3.8283   -6.6236    3.8354 C   0  0  2  0  0  0  0  0  0  0  0  0
    4.8052   -7.6153    4.5338 C   0  0  0  0  0  0  0  0  0  0  0  0
    4.6027   -5.3147    3.3561 C   0  0  1  0  0  0  0  0  0  0  0  0
    5.9646   -5.4884    2.6201 C   0  0  0  0  0  0  0  0  0  0  0  0
    6.0255   -4.8652    1.2090 C   0  0  0  0  0  0  0  0  0  0  0  0
    5.5708   -3.3807    1.1004 C   0  0  1  0  0  0  0  0  0  0  0  0
    5.3313   -2.9337   -0.3955 C   0  0  0  0  0  0  0  0  0  0  0  0
    6.6821   -2.8850   -1.1493 C   0  0  0  0  0  0  0  0  0  0  0  0
    4.3765   -3.8666   -1.1821 C   0  0  0  0  0  0  0  0  0  0  0  0
    4.6724   -1.5406   -0.4498 C   0  0  0  0  0  0  0  0  0  0  0  0
    5.0359   -0.7028   -1.2807 O   0  0  0  0  0  0  0  0  0  0  0  0
    3.5602   -1.3002    0.4705 C   0  0  0  0  0  0  0  0  0  0  0  0
    3.4441   -1.9993    1.6105 C   0  0  0  0  0  0  0  0  0  0  0  0
    4.4358   -3.0330    2.1437 C   0  0  2  0  0  0  0  0  0  0  0  0
    5.0542   -2.3168    3.3607 C   0  0  0  0  0  0  0  0  0  0  0  0
    3.7148   -4.3274    2.5903 C   0  0  2  0  0  0  0  0  0  0  0  0
    2.4032   -4.1808    3.1308 O   0  0  0  0  0  0  0  0  0  0  0  0
    2.5150   -4.8227    1.8416 C   0  0  2  0  0  0  0  0  0  0  0  0
    2.2604   -6.3119    1.7472 C   0  0  0  0  0  0  0  0  0  0  0  0
    1.3945   -6.6986    0.9573 O   0  0  0  0  0  0  0  0  0  0  0  0
    3.0786   -7.3293    2.6143 C   0  0  2  0  0  0  0  0  0  0  0  0
    4.0448   -8.0524    1.6296 C   0  0  0  0  0  0  0  0  0  0  0  0
    2.9042  -10.1871    2.4397 H   0  0  0  0  0  0  0  0  0  0  0  0
    1.3927  -10.3335    3.4682 H   0  0  0  0  0  0  0  0  0  0  0  0
    0.2220   -7.2661    3.4227 H   0  0  0  0  0  0  0  0  0  0  0  0
    0.4533   -8.5521    4.5939 H   0  0  0  0  0  0  0  0  0  0  0  0
    0.8802   -6.4823    5.8050 H   0  0  0  0  0  0  0  0  0  0  0  0
    4.1889   -5.6448    6.5252 H   0  0  0  0  0  0  0  0  0  0  0  0
    2.5038   -5.3255    6.8899 H   0  0  0  0  0  0  0  0  0  0  0  0
    3.3344   -4.3075    5.7253 H   0  0  0  0  0  0  0  0  0  0  0  0
    5.5556   -8.0510    3.8773 H   0  0  0  0  0  0  0  0  0  0  0  0
    4.2551   -8.4523    4.9718 H   0  0  0  0  0  0  0  0  0  0  0  0
    5.3536   -7.1384    5.3472 H   0  0  0  0  0  0  0  0  0  0  0  0
    4.8941   -4.7992    4.2641 H   0  0  0  0  0  0  0  0  0  0  0  0
    6.7511   -5.0518    3.2333 H   0  0  0  0  0  0  0  0  0  0  0  0
    6.2654   -6.5289    2.5414 H   0  0  0  0  0  0  0  0  0  0  0  0
    7.0461   -4.9612    0.8401 H   0  0  0  0  0  0  0  0  0  0  0  0
    5.4330   -5.4816    0.5473 H   0  0  0  0  0  0  0  0  0  0  0  0
    6.4440   -2.8086    1.4166 H   0  0  0  0  0  0  0  0  0  0  0  0
    7.1539   -3.8569   -1.2062 H   0  0  0  0  0  0  0  0  0  0  0  0
    7.3843   -2.2190   -0.6485 H   0  0  0  0  0  0  0  0  0  0  0  0
    6.5640   -2.5405   -2.1767 H   0  0  0  0  0  0  0  0  0  0  0  0
    4.8220   -4.8381   -1.4095 H   0  0  0  0  0  0  0  0  0  0  0  0
    4.1107   -3.4361   -2.1495 H   0  0  0  0  0  0  0  0  0  0  0  0
    3.4384   -4.0443   -0.6536 H   0  0  0  0  0  0  0  0  0  0  0  0
    2.8313   -0.5517    0.1960 H   0  0  0  0  0  0  0  0  0  0  0  0
    2.6064   -1.7923    2.2661 H   0  0  0  0  0  0  0  0  0  0  0  0
    5.8483   -2.8998    3.8155 H   0  0  0  0  0  0  0  0  0  0  0  0
    4.3156   -2.1100    4.1386 H   0  0  0  0  0  0  0  0  0  0  0  0
    5.4959   -1.3631    3.0562 H   0  0  0  0  0  0  0  0  0  0  0  0
    2.1442   -4.2183    1.0240 H   0  0  0  0  0  0  0  0  0  0  0  0
    3.4794   -8.5476    0.8415 H   0  0  0  0  0  0  0  0  0  0  0  0
    4.6476   -8.8288    2.0959 H   0  0  0  0  0  0  0  0  0  0  0  0
    4.7237   -7.3773    1.1282 H   0  0  0  0  0  0  0  0  0  0  0  0
  1  2  2  0
  1 29  1  0
  1 30  1  0
  2 27  1  0
  2  3  1  0
  3  4  1  0
  3 31  1  0
  3 32  1  0
  4  5  2  0
  4 33  1  0
  5  6  1  0
  5  7  1  0
  6 34  1  0
  6 35  1  0
  6 36  1  0
  7 27  1  0
  7  8  1  1
  7  9  1  0
  8 37  1  0
  8 38  1  0
  8 39  1  0
  9 22  1  0
  9 10  1  0
  9 40  1  1
 10 11  1  0
 10 41  1  0
 10 42  1  0
 11 12  1  0
 11 43  1  0
 11 44  1  0
 12 20  1  0
 12 13  1  0
 12 45  1  1
 13 14  1  0
 13 15  1  0
 13 16  1  0
 14 46  1  0
 14 47  1  0
 14 48  1  0
 15 49  1  0
 15 50  1  0
 15 51  1  0
 16 17  2  0
 16 18  1  0
 18 19  2  0
 18 52  1  0
 19 20  1  0
 19 53  1  0
 20 21  1  1
 20 22  1  0
 21 54  1  0
 21 55  1  0
 21 56  1  0
 22 24  1  0
 22 23  1  1
 23 24  1  0
 24 25  1  0
 24 57  1  6
 25 26  2  0
 25 27  1  0
 27 28  1  6
 28 58  1  0
 28 59  1  0
 28 60  1  0
M  END
>  <i_m_ct_stereo_status>  (65) 
1

>  <s_m_source_file>  (65) 
/var/tmp/pbs.5076255.sched01/tmp7dv9smms/08akalw19.sdf

>  <i_m_source_file_index>  (65) 
23

>  <i_lp_mmshare_version>  (65) 
48012

>  <i_f3d_flags>  (65) 
0

>  <s_epik_input>  (65) 
W0NIM11DMT1bQ0hdW0NIMl1DKD1bQ0gyXSlbQ0BAXShbQ0gzXSkoQyg9TylbQ0BIXTJPMylbQ0BAXTEoW0NIM10pW0NASF0oW0NAQF0yMzQpW0NIMl1bQ0gyXVtDQEBIXTVbQ0BAXTQoW0NIM10pW0NIXT1bQ0hdQyg9TylDNShbQ0gzXSlbQ0gzXQ==

>  <s_epik_cmdline>  (65) 
J2VwaWtfcHl0aG9uJywgJy1waHQnLCAnMi4wJywgJy1waCcsICc3LjAnLCAnLXRuJywgJzgnLCAnLW1hJywgJzIwMCcsICctaW1hZScsICc8aW5maWxlLm1hZT4nLCAnLW9tYWUnLCAnPG91dGZpbGUubWFlPic=

>  <r_lp_tautomer_probability>  (65) 
1

>  <r_epik_Ionization_Penalty>  (65) 
3.02491e-11

>  <r_epik_Ionization_Penalty_Charging>  (65) 
0

>  <r_epik_Ionization_Penalty_Neutral>  (65) 
3.02491e-11

>  <r_epik_State_Penalty>  (65) 
-0

>  <r_epik_Charging_Adjusted_Penalty>  (65) 
0

>  <i_epik_Tot_Q>  (65) 
0

>  <i_epik_Tot_abs_Q>  (65) 
0

>  <s_lp_Force_Field>  (65) 
OPLS3e

>  <r_lp_Energy>  (65) 
65.1083

>  <b_lp_Chiralities_Consistent>  (65) 
1

>  <s_lp_Variant>  (65) 
11:0-1

>  <s_i_glide_gridfile>  (65) 
pfpi4k_grid

>  <i_i_glide_lignum>  (65) 
23

>  <i_i_glide_rotatable_bonds>  (65) 
0

>  <r_i_docking_score>  (65) 
-2.66395

>  <r_i_glide_ligand_efficiency>  (65) 
-0.095141

>  <r_i_glide_ligand_efficiency_sa>  (65) 
-0.288904

>  <r_i_glide_ligand_efficiency_ln>  (65) 
-0.614918

>  <r_i_glide_gscore>  (65) 
-2.66395

>  <r_i_glide_lipo>  (65) 
-0.285244

>  <r_i_glide_hbond>  (65) 
0

>  <r_i_glide_metal>  (65) 
-0

>  <r_i_glide_rewards>  (65) 
-0.814638

>  <r_i_glide_evdw>  (65) 
-26.2989

>  <r_i_glide_ecoul>  (65) 
-1.3659

>  <r_i_glide_erotb>  (65) 
0

>  <r_i_glide_esite>  (65) 
-0.0442348

>  <r_i_glide_emodel>  (65) 
-32.7556

>  <r_i_glide_energy>  (65) 
-27.6648

>  <r_i_glide_einternal>  (65) 
0

>  <r_i_glide_intrahb_reward>  (65) 
-0

>  <i_i_glide_confnum>  (65) 
1

>  <i_i_glide_posenum>  (65) 
28

>  <r_i_glide_eff_state_penalty>  (65) 
0

>  <ligand_id>  (65) 
11

>  <original_smiles>  (65) 
C=C1CC=C(C)C2(C)C3CCC4C(C)(C)C(=O)C=CC4(C)C34OC4C(=O)C12C

>  <smiles>  (65) 
[H]C([H])=C1C([H])([H])C([H])=C(C([H])([H])[H])C2(C([H])([H])[H])C1(C([H])([H])[H])C(=O)C1([H])OC13C2([H])C([H])([H])C([H])([H])C1([H])C(C([H])([H])[H])(C([H])([H])[H])C(=O)C([H])=C([H])C13C([H])([H])[H]

$$$$
11:0:2
     RDKit          3D

 60 64  0  0  1  0  0  0  0  0999 V2000
   -0.4402    0.7114    6.8699 C   0  0  0  0  0  0  0  0  0  0  0  0
    0.0152    0.6649    5.6008 C   0  0  0  0  0  0  0  0  0  0  0  0
   -0.6662    1.5014    4.5331 C   0  0  0  0  0  0  0  0  0  0  0  0
    0.3717    2.2494    3.7334 C   0  0  0  0  0  0  0  0  0  0  0  0
    1.7009    2.0234    3.7691 C   0  0  0  0  0  0  0  0  0  0  0  0
    2.5984    2.9377    2.9439 C   0  0  0  0  0  0  0  0  0  0  0  0
    2.3642    0.8813    4.6132 C   0  0  2  0  0  0  0  0  0  0  0  0
    2.9906    1.6429    5.8160 C   0  0  0  0  0  0  0  0  0  0  0  0
    3.4905    0.1305    3.7655 C   0  0  1  0  0  0  0  0  0  0  0  0
    4.5876   -0.6789    4.5222 C   0  0  0  0  0  0  0  0  0  0  0  0
    4.6608   -2.1760    4.1505 C   0  0  0  0  0  0  0  0  0  0  0  0
    4.7687   -2.4872    2.6306 C   0  0  1  0  0  0  0  0  0  0  0  0
    4.4951   -4.0081    2.3036 C   0  0  0  0  0  0  0  0  0  0  0  0
    5.6503   -4.8740    2.8686 C   0  0  0  0  0  0  0  0  0  0  0  0
    3.1606   -4.5489    2.8858 C   0  0  0  0  0  0  0  0  0  0  0  0
    4.4027   -4.2212    0.7785 C   0  0  0  0  0  0  0  0  0  0  0  0
    4.9412   -5.1923    0.2429 O   0  0  0  0  0  0  0  0  0  0  0  0
    3.5994   -3.2643    0.0196 C   0  0  0  0  0  0  0  0  0  0  0  0
    3.4079   -2.0190    0.4860 C   0  0  0  0  0  0  0  0  0  0  0  0
    4.0097   -1.4160    1.7552 C   0  0  2  0  0  0  0  0  0  0  0  0
    5.0344   -0.3923    1.2067 C   0  0  0  0  0  0  0  0  0  0  0  0
    2.9259   -0.7063    2.6106 C   0  0  2  0  0  0  0  0  0  0  0  0
    1.8547   -0.0711    1.9162 O   0  0  0  0  0  0  0  0  0  0  0  0
    1.5246   -1.2497    2.6873 C   0  0  2  0  0  0  0  0  0  0  0  0
    0.7677   -1.1008    3.9925 C   0  0  0  0  0  0  0  0  0  0  0  0
   -0.2274   -1.8042    4.1854 O   0  0  0  0  0  0  0  0  0  0  0  0
    1.2492   -0.1391    5.1195 C   0  0  2  0  0  0  0  0  0  0  0  0
    1.7299   -1.0809    6.2638 C   0  0  0  0  0  0  0  0  0  0  0  0
    0.0221    0.1743    7.6837 H   0  0  0  0  0  0  0  0  0  0  0  0
   -1.2862    1.3315    7.1220 H   0  0  0  0  0  0  0  0  0  0  0  0
   -1.2520    0.8734    3.8593 H   0  0  0  0  0  0  0  0  0  0  0  0
   -1.3562    2.2136    4.9876 H   0  0  0  0  0  0  0  0  0  0  0  0
   -0.0232    3.0413    3.1100 H   0  0  0  0  0  0  0  0  0  0  0  0
    3.4166    3.3423    3.5372 H   0  0  0  0  0  0  0  0  0  0  0  0
    2.0368    3.7873    2.5493 H   0  0  0  0  0  0  0  0  0  0  0  0
    3.0079    2.4050    2.0870 H   0  0  0  0  0  0  0  0  0  0  0  0
    3.4268    1.0010    6.5772 H   0  0  0  0  0  0  0  0  0  0  0  0
    2.2386    2.2557    6.3197 H   0  0  0  0  0  0  0  0  0  0  0  0
    3.7833    2.3178    5.4931 H   0  0  0  0  0  0  0  0  0  0  0  0
    4.0714    0.9226    3.3046 H   0  0  0  0  0  0  0  0  0  0  0  0
    5.5608   -0.2337    4.3104 H   0  0  0  0  0  0  0  0  0  0  0  0
    4.4867   -0.6007    5.6013 H   0  0  0  0  0  0  0  0  0  0  0  0
    5.5127   -2.6142    4.6697 H   0  0  0  0  0  0  0  0  0  0  0  0
    3.7957   -2.6724    4.5688 H   0  0  0  0  0  0  0  0  0  0  0  0
    5.8254   -2.3509    2.3994 H   0  0  0  0  0  0  0  0  0  0  0  0
    5.7095   -4.8149    3.9566 H   0  0  0  0  0  0  0  0  0  0  0  0
    6.6128   -4.5503    2.4660 H   0  0  0  0  0  0  0  0  0  0  0  0
    5.5371   -5.9303    2.6159 H   0  0  0  0  0  0  0  0  0  0  0  0
    3.1809   -4.6498    3.9715 H   0  0  0  0  0  0  0  0  0  0  0  0
    2.9407   -5.5482    2.5033 H   0  0  0  0  0  0  0  0  0  0  0  0
    2.3107   -3.9204    2.6220 H   0  0  0  0  0  0  0  0  0  0  0  0
    3.1674   -3.5918   -0.9147 H   0  0  0  0  0  0  0  0  0  0  0  0
    2.8099   -1.3399   -0.1061 H   0  0  0  0  0  0  0  0  0  0  0  0
    5.6536    0.0537    1.9824 H   0  0  0  0  0  0  0  0  0  0  0  0
    4.5455    0.4129    0.6553 H   0  0  0  0  0  0  0  0  0  0  0  0
    5.7266   -0.8764    0.5149 H   0  0  0  0  0  0  0  0  0  0  0  0
    1.2802   -2.1117    2.0782 H   0  0  0  0  0  0  0  0  0  0  0  0
    0.9233   -1.7413    6.5870 H   0  0  0  0  0  0  0  0  0  0  0  0
    2.0620   -0.5509    7.1532 H   0  0  0  0  0  0  0  0  0  0  0  0
    2.5349   -1.7354    5.9594 H   0  0  0  0  0  0  0  0  0  0  0  0
  1  2  2  0
  1 29  1  0
  1 30  1  0
  2 27  1  0
  2  3  1  0
  3  4  1  0
  3 31  1  0
  3 32  1  0
  4  5  2  0
  4 33  1  0
  5  6  1  0
  5  7  1  0
  6 34  1  0
  6 35  1  0
  6 36  1  0
  7 27  1  0
  7  8  1  1
  7  9  1  0
  8 37  1  0
  8 38  1  0
  8 39  1  0
  9 22  1  0
  9 10  1  0
  9 40  1  6
 10 11  1  0
 10 41  1  0
 10 42  1  0
 11 12  1  0
 11 43  1  0
 11 44  1  0
 12 20  1  0
 12 13  1  0
 12 45  1  6
 13 14  1  0
 13 15  1  0
 13 16  1  0
 14 46  1  0
 14 47  1  0
 14 48  1  0
 15 49  1  0
 15 50  1  0
 15 51  1  0
 16 17  2  0
 16 18  1  0
 18 19  2  0
 18 52  1  0
 19 20  1  0
 19 53  1  0
 20 21  1  6
 20 22  1  0
 21 54  1  0
 21 55  1  0
 21 56  1  0
 22 24  1  0
 22 23  1  6
 23 24  1  0
 24 25  1  0
 24 57  1  6
 25 26  2  0
 25 27  1  0
 27 28  1  1
 28 58  1  0
 28 59  1  0
 28 60  1  0
M  END
>  <i_m_ct_stereo_status>  (66) 
1

>  <s_m_source_file>  (66) 
/var/tmp/pbs.5076255.sched01/tmp7dv9smms/08akalw19.sdf

>  <i_m_source_file_index>  (66) 
23

>  <i_lp_mmshare_version>  (66) 
48012

>  <i_f3d_flags>  (66) 
0

>  <s_epik_input>  (66) 
W0NIM11DMT1bQ0hdW0NIMl1DKD1bQ0gyXSlbQ0BAXShbQ0gzXSkoQyg9TylbQ0BIXTJPMylbQ0BAXTEoW0NIM10pW0NASF0oW0NAQF0yMzQpW0NIMl1bQ0gyXVtDQEBIXTVbQ0BAXTQoW0NIM10pW0NIXT1bQ0hdQyg9TylDNShbQ0gzXSlbQ0gzXQ==

>  <s_epik_cmdline>  (66) 
J2VwaWtfcHl0aG9uJywgJy1waHQnLCAnMi4wJywgJy1waCcsICc3LjAnLCAnLXRuJywgJzgnLCAnLW1hJywgJzIwMCcsICctaW1hZScsICc8aW5maWxlLm1hZT4nLCAnLW9tYWUnLCAnPG91dGZpbGUubWFlPic=

>  <r_lp_tautomer_probability>  (66) 
1

>  <r_epik_Ionization_Penalty>  (66) 
3.02491e-11

>  <r_epik_Ionization_Penalty_Charging>  (66) 
0

>  <r_epik_Ionization_Penalty_Neutral>  (66) 
3.02491e-11

>  <r_epik_State_Penalty>  (66) 
-0

>  <r_epik_Charging_Adjusted_Penalty>  (66) 
0

>  <i_epik_Tot_Q>  (66) 
0

>  <i_epik_Tot_abs_Q>  (66) 
0

>  <s_lp_Force_Field>  (66) 
OPLS3e

>  <r_lp_Energy>  (66) 
65.1083

>  <b_lp_Chiralities_Consistent>  (66) 
1

>  <s_lp_Variant>  (66) 
11:0-1

>  <s_i_glide_gridfile>  (66) 
pfpi4k_grid

>  <i_i_glide_lignum>  (66) 
23

>  <i_i_glide_rotatable_bonds>  (66) 
0

>  <r_i_docking_score>  (66) 
-2.40461

>  <r_i_glide_ligand_efficiency>  (66) 
-0.085879

>  <r_i_glide_ligand_efficiency_sa>  (66) 
-0.260779

>  <r_i_glide_ligand_efficiency_ln>  (66) 
-0.555055

>  <r_i_glide_gscore>  (66) 
-2.40461

>  <r_i_glide_lipo>  (66) 
-0.312938

>  <r_i_glide_hbond>  (66) 
0

>  <r_i_glide_metal>  (66) 
-0

>  <r_i_glide_rewards>  (66) 
-0.853984

>  <r_i_glide_evdw>  (66) 
-24.8067

>  <r_i_glide_ecoul>  (66) 
0.0602144

>  <r_i_glide_erotb>  (66) 
0

>  <r_i_glide_esite>  (66) 
-0.00638921

>  <r_i_glide_emodel>  (66) 
-29.3401

>  <r_i_glide_energy>  (66) 
-24.7464

>  <r_i_glide_einternal>  (66) 
0

>  <r_i_glide_intrahb_reward>  (66) 
-0

>  <i_i_glide_confnum>  (66) 
2

>  <i_i_glide_posenum>  (66) 
26

>  <r_i_glide_eff_state_penalty>  (66) 
0

>  <ligand_id>  (66) 
11

>  <original_smiles>  (66) 
C=C1CC=C(C)C2(C)C3CCC4C(C)(C)C(=O)C=CC4(C)C34OC4C(=O)C12C

>  <smiles>  (66) 
[H]C([H])=C1C([H])([H])C([H])=C(C([H])([H])[H])C2(C([H])([H])[H])C1(C([H])([H])[H])C(=O)C1([H])OC13C2([H])C([H])([H])C([H])([H])C1([H])C(C([H])([H])[H])(C([H])([H])[H])C(=O)C([H])=C([H])C13C([H])([H])[H]

$$$$
12:0:0
     RDKit          3D

 28 31  0  0  1  0  0  0  0  0999 V2000
    3.3702   -3.4624    1.3870 C   0  0  0  0  0  0  0  0  0  0  0  0
    4.2381   -3.5648    0.1026 C   0  0  0  0  0  0  0  0  0  0  0  0
    4.6574   -5.0543   -0.0164 C   0  0  0  0  0  0  0  0  0  0  0  0
    3.5756   -2.9227   -1.1291 C   0  0  1  0  0  0  0  0  0  0  0  0
    3.8609   -1.3506   -0.9815 C   0  0  1  0  0  0  0  0  0  0  0  0
    4.7536   -1.2327    0.2587 C   0  0  0  0  0  0  0  0  0  0  0  0
    5.4023   -2.5679   -0.0828 C   0  0  2  0  0  0  0  0  0  0  0  0
    5.5336   -2.4376   -1.6336 C   0  0  1  0  0  0  0  0  0  0  0  0
    4.9454   -1.1238   -2.0229 C   0  0  0  0  0  0  0  0  0  0  0  0
    5.9126   -3.5048   -2.4231 O   0  0  0  0  0  0  0  0  0  0  0  0
    4.4684   -3.3672   -2.2859 C   0  0  1  0  0  0  0  0  0  0  0  0
    3.8085   -3.2989   -3.6591 C   0  0  0  0  0  0  0  0  0  0  0  0
    2.7371   -4.3427    1.4989 H   0  0  0  0  0  0  0  0  0  0  0  0
    2.6879   -2.6113    1.3811 H   0  0  0  0  0  0  0  0  0  0  0  0
    3.9956   -3.3980    2.2781 H   0  0  0  0  0  0  0  0  0  0  0  0
    5.4612   -5.2329   -0.7277 H   0  0  0  0  0  0  0  0  0  0  0  0
    3.8074   -5.6717   -0.3151 H   0  0  0  0  0  0  0  0  0  0  0  0
    5.0104   -5.4298    0.9460 H   0  0  0  0  0  0  0  0  0  0  0  0
    2.5266   -3.1906   -1.2809 H   0  0  0  0  0  0  0  0  0  0  0  0
    3.0142   -0.6715   -1.0277 H   0  0  0  0  0  0  0  0  0  0  0  0
    5.4522   -0.3979    0.2471 H   0  0  0  0  0  0  0  0  0  0  0  0
    4.2372   -1.1568    1.2104 H   0  0  0  0  0  0  0  0  0  0  0  0
    6.3302   -2.7984    0.4408 H   0  0  0  0  0  0  0  0  0  0  0  0
    4.5995   -1.0511   -3.0532 H   0  0  0  0  0  0  0  0  0  0  0  0
    5.6188   -0.2875   -1.8403 H   0  0  0  0  0  0  0  0  0  0  0  0
    3.0348   -2.5342   -3.7001 H   0  0  0  0  0  0  0  0  0  0  0  0
    3.3480   -4.2539   -3.9168 H   0  0  0  0  0  0  0  0  0  0  0  0
    4.5590   -3.0836   -4.4123 H   0  0  0  0  0  0  0  0  0  0  0  0
  1  2  1  0
  1 13  1  0
  1 14  1  0
  1 15  1  0
  2  7  1  0
  2  3  1  0
  2  4  1  0
  3 16  1  0
  3 17  1  0
  3 18  1  0
  4 11  1  0
  4  5  1  0
  4 19  1  6
  5  9  1  0
  5  6  1  0
  5 20  1  1
  6  7  1  0
  6 21  1  0
  6 22  1  0
  7  8  1  0
  7 23  1  1
  8 11  1  0
  8  9  1  0
  8 10  1  6
  9 24  1  0
  9 25  1  0
 10 11  1  0
 11 12  1  6
 12 26  1  0
 12 27  1  0
 12 28  1  0
M  END
>  <i_m_ct_stereo_status>  (67) 
1

>  <s_m_source_file>  (67) 
/var/tmp/pbs.5076255.sched01/tmp7dv9smms/08akalw19.sdf

>  <i_m_source_file_index>  (67) 
24

>  <i_lp_mmshare_version>  (67) 
48012

>  <i_f3d_flags>  (67) 
0

>  <s_epik_input>  (67) 
W0NAXTEyM1tDQEBIXTRDKFtDSDNdKShbQ0gzXSlbQ0BASF0oW0NAQEhdKFtDSDJdNClbQ0gyXTEpW0NAQF0zKE8yKVtDSDNd

>  <s_epik_cmdline>  (67) 
J2VwaWtfcHl0aG9uJywgJy1waHQnLCAnMi4wJywgJy1waCcsICc3LjAnLCAnLXRuJywgJzgnLCAnLW1hJywgJzIwMCcsICctaW1hZScsICc8aW5maWxlLm1hZT4nLCAnLW9tYWUnLCAnPG91dGZpbGUubWFlPic=

>  <r_lp_tautomer_probability>  (67) 
1

>  <r_epik_Ionization_Penalty>  (67) 
9.42045e-11

>  <r_epik_Ionization_Penalty_Charging>  (67) 
0

>  <r_epik_Ionization_Penalty_Neutral>  (67) 
9.42045e-11

>  <r_epik_State_Penalty>  (67) 
-0

>  <r_epik_Charging_Adjusted_Penalty>  (67) 
0

>  <i_epik_Tot_Q>  (67) 
0

>  <i_epik_Tot_abs_Q>  (67) 
0

>  <s_lp_Force_Field>  (67) 
OPLS3e

>  <r_lp_Energy>  (67) 
111.13

>  <b_lp_Chiralities_Consistent>  (67) 
1

>  <s_lp_Variant>  (67) 
12:0-1

>  <s_i_glide_gridfile>  (67) 
pfpi4k_grid

>  <i_i_glide_lignum>  (67) 
24

>  <i_i_glide_rotatable_bonds>  (67) 
0

>  <r_i_docking_score>  (67) 
-3.43322

>  <r_i_glide_ligand_efficiency>  (67) 
-0.286102

>  <r_i_glide_ligand_efficiency_sa>  (67) 
-0.65501

>  <r_i_glide_ligand_efficiency_ln>  (67) 
-0.98517

>  <r_i_glide_gscore>  (67) 
-3.43322

>  <r_i_glide_lipo>  (67) 
-0.251461

>  <r_i_glide_hbond>  (67) 
0

>  <r_i_glide_metal>  (67) 
-0

>  <r_i_glide_rewards>  (67) 
-2.25

>  <r_i_glide_evdw>  (67) 
-17.97

>  <r_i_glide_ecoul>  (67) 
-0.221773

>  <r_i_glide_erotb>  (67) 
0

>  <r_i_glide_esite>  (67) 
0

>  <r_i_glide_emodel>  (67) 
-21.8822

>  <r_i_glide_energy>  (67) 
-18.1917

>  <r_i_glide_einternal>  (67) 
0

>  <r_i_glide_intrahb_reward>  (67) 
-0

>  <i_i_glide_confnum>  (67) 
2

>  <i_i_glide_posenum>  (67) 
12

>  <r_i_glide_eff_state_penalty>  (67) 
0

>  <ligand_id>  (67) 
12

>  <original_smiles>  (67) 
CC1(C)C2C3CC1C1(C3)OC21C

>  <smiles>  (67) 
[H]C([H])([H])C12OC13C([H])([H])C1([H])C([H])([H])C3([H])C(C([H])([H])[H])(C([H])([H])[H])C12[H]

$$$$
12:0:1
     RDKit          3D

 28 31  0  0  1  0  0  0  0  0999 V2000
    2.8955   -3.3843    1.1721 C   0  0  0  0  0  0  0  0  0  0  0  0
    3.2827   -3.4239   -0.3347 C   0  0  0  0  0  0  0  0  0  0  0  0
    2.0064   -3.8598   -1.1138 C   0  0  0  0  0  0  0  0  0  0  0  0
    3.9828   -2.1453   -0.8148 C   0  0  1  0  0  0  0  0  0  0  0  0
    5.5129   -2.3065   -0.3506 C   0  0  1  0  0  0  0  0  0  0  0  0
    5.5789   -3.7067    0.2682 C   0  0  0  0  0  0  0  0  0  0  0  0
    4.5493   -4.2011   -0.7400 C   0  0  2  0  0  0  0  0  0  0  0  0
    5.0191   -3.4733   -2.0350 C   0  0  1  0  0  0  0  0  0  0  0  0
    6.2086   -2.6509   -1.6623 C   0  0  0  0  0  0  0  0  0  0  0  0
    4.2726   -3.4626   -3.2014 O   0  0  0  0  0  0  0  0  0  0  0  0
    4.0189   -2.3176   -2.3336 C   0  0  1  0  0  0  0  0  0  0  0  0
    4.1858   -1.0208   -3.1085 C   0  0  0  0  0  0  0  0  0  0  0  0
    1.8863   -2.9899    1.2993 H   0  0  0  0  0  0  0  0  0  0  0  0
    3.5333   -2.7257    1.7664 H   0  0  0  0  0  0  0  0  0  0  0  0
    2.9179   -4.3771    1.6119 H   0  0  0  0  0  0  0  0  0  0  0  0
    2.1817   -4.1455   -2.1466 H   0  0  0  0  0  0  0  0  0  0  0  0
    1.2798   -3.0601   -1.1331 H   0  0  0  0  0  0  0  0  0  0  0  0
    1.5446   -4.7080   -0.6186 H   0  0  0  0  0  0  0  0  0  0  0  0
    3.4953   -1.2158   -0.5142 H   0  0  0  0  0  0  0  0  0  0  0  0
    5.9607   -1.5018    0.2303 H   0  0  0  0  0  0  0  0  0  0  0  0
    6.5392   -4.2104    0.1767 H   0  0  0  0  0  0  0  0  0  0  0  0
    5.3239   -3.7825    1.3189 H   0  0  0  0  0  0  0  0  0  0  0  0
    4.4549   -5.2831   -0.8308 H   0  0  0  0  0  0  0  0  0  0  0  0
    6.3960   -1.8145   -2.3200 H   0  0  0  0  0  0  0  0  0  0  0  0
    7.1150   -3.2516   -1.5981 H   0  0  0  0  0  0  0  0  0  0  0  0
    4.7332   -0.2784   -2.5271 H   0  0  0  0  0  0  0  0  0  0  0  0
    3.2131   -0.6053   -3.3728 H   0  0  0  0  0  0  0  0  0  0  0  0
    4.7272   -1.2196   -4.0326 H   0  0  0  0  0  0  0  0  0  0  0  0
  1  2  1  0
  1 13  1  0
  1 14  1  0
  1 15  1  0
  2  7  1  0
  2  3  1  0
  2  4  1  0
  3 16  1  0
  3 17  1  0
  3 18  1  0
  4 11  1  0
  4  5  1  0
  4 19  1  6
  5  9  1  0
  5  6  1  0
  5 20  1  1
  6  7  1  0
  6 21  1  0
  6 22  1  0
  7  8  1  0
  7 23  1  6
  8 11  1  0
  8  9  1  0
  8 10  1  6
  9 24  1  0
  9 25  1  0
 10 11  1  0
 11 12  1  6
 12 26  1  0
 12 27  1  0
 12 28  1  0
M  END
>  <i_m_ct_stereo_status>  (68) 
1

>  <s_m_source_file>  (68) 
/var/tmp/pbs.5076255.sched01/tmp7dv9smms/08akalw19.sdf

>  <i_m_source_file_index>  (68) 
24

>  <i_lp_mmshare_version>  (68) 
48012

>  <i_f3d_flags>  (68) 
0

>  <s_epik_input>  (68) 
W0NAXTEyM1tDQEBIXTRDKFtDSDNdKShbQ0gzXSlbQ0BASF0oW0NAQEhdKFtDSDJdNClbQ0gyXTEpW0NAQF0zKE8yKVtDSDNd

>  <s_epik_cmdline>  (68) 
J2VwaWtfcHl0aG9uJywgJy1waHQnLCAnMi4wJywgJy1waCcsICc3LjAnLCAnLXRuJywgJzgnLCAnLW1hJywgJzIwMCcsICctaW1hZScsICc8aW5maWxlLm1hZT4nLCAnLW9tYWUnLCAnPG91dGZpbGUubWFlPic=

>  <r_lp_tautomer_probability>  (68) 
1

>  <r_epik_Ionization_Penalty>  (68) 
9.42045e-11

>  <r_epik_Ionization_Penalty_Charging>  (68) 
0

>  <r_epik_Ionization_Penalty_Neutral>  (68) 
9.42045e-11

>  <r_epik_State_Penalty>  (68) 
-0

>  <r_epik_Charging_Adjusted_Penalty>  (68) 
0

>  <i_epik_Tot_Q>  (68) 
0

>  <i_epik_Tot_abs_Q>  (68) 
0

>  <s_lp_Force_Field>  (68) 
OPLS3e

>  <r_lp_Energy>  (68) 
111.13

>  <b_lp_Chiralities_Consistent>  (68) 
1

>  <s_lp_Variant>  (68) 
12:0-1

>  <s_i_glide_gridfile>  (68) 
pfpi4k_grid

>  <i_i_glide_lignum>  (68) 
24

>  <i_i_glide_rotatable_bonds>  (68) 
0

>  <r_i_docking_score>  (68) 
-3.38934

>  <r_i_glide_ligand_efficiency>  (68) 
-0.282445

>  <r_i_glide_ligand_efficiency_sa>  (68) 
-0.646638

>  <r_i_glide_ligand_efficiency_ln>  (68) 
-0.972578

>  <r_i_glide_gscore>  (68) 
-3.38934

>  <r_i_glide_lipo>  (68) 
-0.312837

>  <r_i_glide_hbond>  (68) 
0

>  <r_i_glide_metal>  (68) 
-0

>  <r_i_glide_rewards>  (68) 
-2.25

>  <r_i_glide_evdw>  (68) 
-16.8811

>  <r_i_glide_ecoul>  (68) 
0.116999

>  <r_i_glide_erotb>  (68) 
0

>  <r_i_glide_esite>  (68) 
0

>  <r_i_glide_emodel>  (68) 
-20.4216

>  <r_i_glide_energy>  (68) 
-16.7642

>  <r_i_glide_einternal>  (68) 
0

>  <r_i_glide_intrahb_reward>  (68) 
-0

>  <i_i_glide_confnum>  (68) 
2

>  <i_i_glide_posenum>  (68) 
34

>  <r_i_glide_eff_state_penalty>  (68) 
0

>  <ligand_id>  (68) 
12

>  <original_smiles>  (68) 
CC1(C)C2C3CC1C1(C3)OC21C

>  <smiles>  (68) 
[H]C([H])([H])C12OC13C([H])([H])C1([H])C([H])([H])C3([H])C(C([H])([H])[H])(C([H])([H])[H])C12[H]

$$$$
12:0:2
     RDKit          3D

 28 31  0  0  1  0  0  0  0  0999 V2000
    5.8326   -0.6651    0.5206 C   0  0  0  0  0  0  0  0  0  0  0  0
    5.5686   -2.1421    0.1335 C   0  0  0  0  0  0  0  0  0  0  0  0
    6.3986   -3.0060    1.1203 C   0  0  0  0  0  0  0  0  0  0  0  0
    4.0698   -2.4642    0.0097 C   0  0  1  0  0  0  0  0  0  0  0  0
    3.6536   -1.9512   -1.4501 C   0  0  1  0  0  0  0  0  0  0  0  0
    4.9610   -1.4665   -2.0785 C   0  0  0  0  0  0  0  0  0  0  0  0
    5.7228   -2.5623   -1.3451 C   0  0  2  0  0  0  0  0  0  0  0  0
    4.7367   -3.7657   -1.4781 C   0  0  1  0  0  0  0  0  0  0  0  0
    3.5372   -3.2550   -2.2196 C   0  0  0  0  0  0  0  0  0  0  0  0
    4.9321   -4.9332   -0.7504 O   0  0  0  0  0  0  0  0  0  0  0  0
    4.0540   -3.9862   -0.0952 C   0  0  1  0  0  0  0  0  0  0  0  0
    2.7248   -4.6390    0.2675 C   0  0  0  0  0  0  0  0  0  0  0  0
    5.9130   -0.5552    1.6017 H   0  0  0  0  0  0  0  0  0  0  0  0
    5.0380    0.0126    0.2146 H   0  0  0  0  0  0  0  0  0  0  0  0
    6.7707   -0.3145    0.0938 H   0  0  0  0  0  0  0  0  0  0  0  0
    6.5066   -4.0493    0.8298 H   0  0  0  0  0  0  0  0  0  0  0  0
    5.9592   -2.9827    2.1184 H   0  0  0  0  0  0  0  0  0  0  0  0
    7.4141   -2.6131    1.2017 H   0  0  0  0  0  0  0  0  0  0  0  0
    3.4500   -2.0992    0.8335 H   0  0  0  0  0  0  0  0  0  0  0  0
    2.8105   -1.2699   -1.5348 H   0  0  0  0  0  0  0  0  0  0  0  0
    5.0101   -1.5587   -3.1621 H   0  0  0  0  0  0  0  0  0  0  0  0
    5.2342   -0.4372   -1.8650 H   0  0  0  0  0  0  0  0  0  0  0  0
    6.7362   -2.7675   -1.6966 H   0  0  0  0  0  0  0  0  0  0  0  0
    2.6148   -3.8102   -2.0612 H   0  0  0  0  0  0  0  0  0  0  0  0
    3.7048   -3.2001   -3.2953 H   0  0  0  0  0  0  0  0  0  0  0  0
    1.8915   -3.9690    0.0597 H   0  0  0  0  0  0  0  0  0  0  0  0
    2.7065   -4.8945    1.3282 H   0  0  0  0  0  0  0  0  0  0  0  0
    2.5844   -5.5543   -0.3067 H   0  0  0  0  0  0  0  0  0  0  0  0
  1  2  1  0
  1 13  1  0
  1 14  1  0
  1 15  1  0
  2  7  1  0
  2  3  1  0
  2  4  1  0
  3 16  1  0
  3 17  1  0
  3 18  1  0
  4 11  1  0
  4  5  1  0
  4 19  1  1
  5  9  1  0
  5  6  1  0
  5 20  1  1
  6  7  1  0
  6 21  1  0
  6 22  1  0
  7  8  1  0
  7 23  1  6
  8 11  1  0
  8  9  1  0
  8 10  1  6
  9 24  1  0
  9 25  1  0
 10 11  1  0
 11 12  1  6
 12 26  1  0
 12 27  1  0
 12 28  1  0
M  END
>  <i_m_ct_stereo_status>  (69) 
1

>  <s_m_source_file>  (69) 
/var/tmp/pbs.5076255.sched01/tmp7dv9smms/08akalw19.sdf

>  <i_m_source_file_index>  (69) 
24

>  <i_lp_mmshare_version>  (69) 
48012

>  <i_f3d_flags>  (69) 
0

>  <s_epik_input>  (69) 
W0NAXTEyM1tDQEBIXTRDKFtDSDNdKShbQ0gzXSlbQ0BASF0oW0NAQEhdKFtDSDJdNClbQ0gyXTEpW0NAQF0zKE8yKVtDSDNd

>  <s_epik_cmdline>  (69) 
J2VwaWtfcHl0aG9uJywgJy1waHQnLCAnMi4wJywgJy1waCcsICc3LjAnLCAnLXRuJywgJzgnLCAnLW1hJywgJzIwMCcsICctaW1hZScsICc8aW5maWxlLm1hZT4nLCAnLW9tYWUnLCAnPG91dGZpbGUubWFlPic=

>  <r_lp_tautomer_probability>  (69) 
1

>  <r_epik_Ionization_Penalty>  (69) 
9.42045e-11

>  <r_epik_Ionization_Penalty_Charging>  (69) 
0

>  <r_epik_Ionization_Penalty_Neutral>  (69) 
9.42045e-11

>  <r_epik_State_Penalty>  (69) 
-0

>  <r_epik_Charging_Adjusted_Penalty>  (69) 
0

>  <i_epik_Tot_Q>  (69) 
0

>  <i_epik_Tot_abs_Q>  (69) 
0

>  <s_lp_Force_Field>  (69) 
OPLS3e

>  <r_lp_Energy>  (69) 
111.13

>  <b_lp_Chiralities_Consistent>  (69) 
1

>  <s_lp_Variant>  (69) 
12:0-1

>  <s_i_glide_gridfile>  (69) 
pfpi4k_grid

>  <i_i_glide_lignum>  (69) 
24

>  <i_i_glide_rotatable_bonds>  (69) 
0

>  <r_i_docking_score>  (69) 
-3.28849

>  <r_i_glide_ligand_efficiency>  (69) 
-0.274041

>  <r_i_glide_ligand_efficiency_sa>  (69) 
-0.627397

>  <r_i_glide_ligand_efficiency_ln>  (69) 
-0.943637

>  <r_i_glide_gscore>  (69) 
-3.28849

>  <r_i_glide_lipo>  (69) 
-0.225569

>  <r_i_glide_hbond>  (69) 
0

>  <r_i_glide_metal>  (69) 
-0

>  <r_i_glide_rewards>  (69) 
-2.25

>  <r_i_glide_evdw>  (69) 
-15.9373

>  <r_i_glide_ecoul>  (69) 
-0.107037

>  <r_i_glide_erotb>  (69) 
0

>  <r_i_glide_esite>  (69) 
0

>  <r_i_glide_emodel>  (69) 
-19.5893

>  <r_i_glide_energy>  (69) 
-16.0443

>  <r_i_glide_einternal>  (69) 
0

>  <r_i_glide_intrahb_reward>  (69) 
-0

>  <i_i_glide_confnum>  (69) 
1

>  <i_i_glide_posenum>  (69) 
1

>  <r_i_glide_eff_state_penalty>  (69) 
0

>  <ligand_id>  (69) 
12

>  <original_smiles>  (69) 
CC1(C)C2C3CC1C1(C3)OC21C

>  <smiles>  (69) 
[H]C([H])([H])C12OC13C([H])([H])C1([H])C([H])([H])C3([H])C(C([H])([H])[H])(C([H])([H])[H])C12[H]

$$$$
13:0:0
     RDKit          3D

 31 33  0  0  1  0  0  0  0  0999 V2000
    2.9003   -6.2529    1.1858 C   0  0  0  0  0  0  0  0  0  0  0  0
    1.8811   -5.7794    0.4876 N   0  0  0  0  0  0  0  0  0  0  0  0
    2.2979   -4.5350   -0.0297 O   0  0  0  0  0  0  0  0  0  0  0  0
    3.5661   -4.3566    0.3795 C   0  0  0  0  0  0  0  0  0  0  0  0
    4.0106   -5.3850    1.1245 C   0  0  0  0  0  0  0  0  0  0  0  0
    5.3902   -5.4273    1.7146 C   0  0  0  0  0  0  0  0  0  0  0  0
    6.2691   -4.3712    0.9945 C   0  0  0  0  0  0  0  0  0  0  0  0
    5.5422   -3.0198    0.7458 C   0  0  0  0  0  0  0  0  0  0  0  0
    4.2645   -3.1800    0.0639 N   0  0  0  0  0  0  0  0  0  0  0  0
    3.6717   -2.0759   -0.6562 C   0  0  0  0  0  0  0  0  0  0  0  0
    4.1852   -2.0198   -2.0975 C   0  0  2  0  0  0  0  0  0  0  0  0
    3.8030   -0.7484   -2.8105 C   0  0  0  0  0  0  0  0  0  0  0  0
    3.9345   -1.1547   -4.2717 C   0  0  0  0  0  0  0  0  0  0  0  0
    3.5997   -2.5362   -4.3206 O   0  0  0  0  0  0  0  0  0  0  0  0
    3.5924   -3.0863   -3.0110 C   0  0  0  0  0  0  0  0  0  0  0  0
    2.7860   -7.1915    1.7118 H   0  0  0  0  0  0  0  0  0  0  0  0
    5.3583   -5.1867    2.7762 H   0  0  0  0  0  0  0  0  0  0  0  0
    5.8451   -6.4104    1.6201 H   0  0  0  0  0  0  0  0  0  0  0  0
    7.1899   -4.1960    1.5522 H   0  0  0  0  0  0  0  0  0  0  0  0
    6.5683   -4.7553    0.0163 H   0  0  0  0  0  0  0  0  0  0  0  0
    5.3712   -2.5056    1.6985 H   0  0  0  0  0  0  0  0  0  0  0  0
    6.1804   -2.3636    0.1436 H   0  0  0  0  0  0  0  0  0  0  0  0
    2.5969   -2.1247   -0.6210 H   0  0  0  0  0  0  0  0  0  0  0  0
    3.9439   -1.1572   -0.1281 H   0  0  0  0  0  0  0  0  0  0  0  0
    5.2718   -2.1066   -2.1125 H   0  0  0  0  0  0  0  0  0  0  0  0
    2.7659   -0.4813   -2.5989 H   0  0  0  0  0  0  0  0  0  0  0  0
    4.4422    0.0968   -2.5454 H   0  0  0  0  0  0  0  0  0  0  0  0
    3.2988   -0.5581   -4.9298 H   0  0  0  0  0  0  0  0  0  0  0  0
    4.9679   -1.0463   -4.6013 H   0  0  0  0  0  0  0  0  0  0  0  0
    4.1609   -4.0120   -2.9683 H   0  0  0  0  0  0  0  0  0  0  0  0
    2.5605   -3.3014   -2.7472 H   0  0  0  0  0  0  0  0  0  0  0  0
  1  5  1  0
  1  2  2  0
  1 16  1  0
  2  3  1  0
  3  4  1  0
  4  9  1  0
  4  5  2  0
  5  6  1  0
  6  7  1  0
  6 17  1  0
  6 18  1  0
  7  8  1  0
  7 19  1  0
  7 20  1  0
  8  9  1  0
  8 21  1  0
  8 22  1  0
  9 10  1  0
 10 11  1  0
 10 23  1  0
 10 24  1  0
 11 15  1  0
 11 12  1  0
 11 25  1  1
 12 13  1  0
 12 26  1  0
 12 27  1  0
 13 14  1  0
 13 28  1  0
 13 29  1  0
 14 15  1  0
 15 30  1  0
 15 31  1  0
M  END
>  <i_m_ct_stereo_status>  (70) 
1

>  <s_m_source_file>  (70) 
/var/tmp/pbs.5076255.sched01/tmp7dv9smms/08akalw19.sdf

>  <i_m_source_file_index>  (70) 
25

>  <i_lp_mmshare_version>  (70) 
48012

>  <i_f3d_flags>  (70) 
0

>  <s_epik_input>  (70) 
bzFuW2NIXWMoYzEyKVtDSDJdW0NIMl1bQ0gyXU4yW0NIMl1bQ0BASF0zW0NIMl1bQ0gyXU9bQ0gyXTM=

>  <s_epik_cmdline>  (70) 
J2VwaWtfcHl0aG9uJywgJy1waHQnLCAnMi4wJywgJy1waCcsICc3LjAnLCAnLXRuJywgJzgnLCAnLW1hJywgJzIwMCcsICctaW1hZScsICc8aW5maWxlLm1hZT4nLCAnLW9tYWUnLCAnPG91dGZpbGUubWFlPic=

>  <r_epik_Ionization_Penalty>  (70) 
0.0164673

>  <r_epik_Ionization_Penalty_Charging>  (70) 
0

>  <r_epik_Ionization_Penalty_Neutral>  (70) 
0.0164673

>  <r_epik_State_Penalty>  (70) 
0.0129698

>  <r_epik_Charging_Adjusted_Penalty>  (70) 
0.0129698

>  <i_epik_Tot_Q>  (70) 
0

>  <i_epik_Tot_abs_Q>  (70) 
0

>  <s_lp_Force_Field>  (70) 
OPLS3e

>  <r_lp_Energy>  (70) 
6.56223

>  <b_lp_Chiralities_Consistent>  (70) 
1

>  <s_lp_Variant>  (70) 
13:0-1

>  <s_i_glide_gridfile>  (70) 
pfpi4k_grid

>  <i_i_glide_lignum>  (70) 
25

>  <i_i_glide_rotatable_bonds>  (70) 
2

>  <r_i_docking_score>  (70) 
-3.36654

>  <r_i_glide_ligand_efficiency>  (70) 
-0.224436

>  <r_i_glide_ligand_efficiency_sa>  (70) 
-0.553507

>  <r_i_glide_ligand_efficiency_ln>  (70) 
-0.907901

>  <r_i_glide_gscore>  (70) 
-3.36654

>  <r_i_glide_lipo>  (70) 
-0.285515

>  <r_i_glide_hbond>  (70) 
-0.32

>  <r_i_glide_metal>  (70) 
-0

>  <r_i_glide_rewards>  (70) 
-2.0158

>  <r_i_glide_evdw>  (70) 
-18.0747

>  <r_i_glide_ecoul>  (70) 
-3.13877

>  <r_i_glide_erotb>  (70) 
0.76328

>  <r_i_glide_esite>  (70) 
-0.133953

>  <r_i_glide_emodel>  (70) 
-25.0082

>  <r_i_glide_energy>  (70) 
-21.2135

>  <r_i_glide_einternal>  (70) 
2.06988

>  <r_i_glide_intrahb_reward>  (70) 
-0

>  <i_i_glide_confnum>  (70) 
5

>  <i_i_glide_posenum>  (70) 
19

>  <r_i_glide_eff_state_penalty>  (70) 
0

>  <ligand_id>  (70) 
13

>  <original_smiles>  (70) 
c1noc2c1CCCN2CC1CCOC1

>  <smiles>  (70) 
[H]c1noc2c1C([H])([H])C([H])([H])C([H])([H])N2C([H])([H])C1([H])C([H])([H])OC([H])([H])C1([H])[H]

$$$$
13:0:1
     RDKit          3D

 31 33  0  0  1  0  0  0  0  0999 V2000
    1.4794   -7.0147    2.2087 C   0  0  0  0  0  0  0  0  0  0  0  0
    0.7770   -6.4178    1.2553 N   0  0  0  0  0  0  0  0  0  0  0  0
    1.7088   -5.7661    0.4306 O   0  0  0  0  0  0  0  0  0  0  0  0
    2.9344   -6.0094    0.9364 C   0  0  0  0  0  0  0  0  0  0  0  0
    2.8712   -6.8055    2.0386 C   0  0  0  0  0  0  0  0  0  0  0  0
    4.0859   -7.2425    2.7933 C   0  0  0  0  0  0  0  0  0  0  0  0
    5.3288   -7.0248    1.8930 C   0  0  0  0  0  0  0  0  0  0  0  0
    5.3106   -5.6812    1.1226 C   0  0  0  0  0  0  0  0  0  0  0  0
    4.0850   -5.4868    0.3683 N   0  0  0  0  0  0  0  0  0  0  0  0
    4.0260   -4.5327   -0.7296 C   0  0  0  0  0  0  0  0  0  0  0  0
    4.5107   -3.1268   -0.3318 C   0  0  2  0  0  0  0  0  0  0  0  0
    4.0622   -2.0562   -1.2991 C   0  0  0  0  0  0  0  0  0  0  0  0
    5.0329   -0.9247   -0.9917 C   0  0  0  0  0  0  0  0  0  0  0  0
    6.2694   -1.5563   -0.6683 O   0  0  0  0  0  0  0  0  0  0  0  0
    6.0323   -2.9263   -0.3584 C   0  0  0  0  0  0  0  0  0  0  0  0
    0.9584   -7.5502    2.9875 H   0  0  0  0  0  0  0  0  0  0  0  0
    4.1989   -6.6502    3.7018 H   0  0  0  0  0  0  0  0  0  0  0  0
    4.0248   -8.2878    3.0914 H   0  0  0  0  0  0  0  0  0  0  0  0
    6.2410   -7.0835    2.4862 H   0  0  0  0  0  0  0  0  0  0  0  0
    5.3843   -7.8195    1.1447 H   0  0  0  0  0  0  0  0  0  0  0  0
    5.4155   -4.8563    1.8316 H   0  0  0  0  0  0  0  0  0  0  0  0
    6.1544   -5.6473    0.4308 H   0  0  0  0  0  0  0  0  0  0  0  0
    4.6338   -4.9285   -1.5482 H   0  0  0  0  0  0  0  0  0  0  0  0
    3.0044   -4.4671   -1.1159 H   0  0  0  0  0  0  0  0  0  0  0  0
    4.1208   -2.8740    0.6530 H   0  0  0  0  0  0  0  0  0  0  0  0
    4.1858   -2.3879   -2.3303 H   0  0  0  0  0  0  0  0  0  0  0  0
    3.0223   -1.7693   -1.1415 H   0  0  0  0  0  0  0  0  0  0  0  0
    5.1597   -0.2502   -1.8352 H   0  0  0  0  0  0  0  0  0  0  0  0
    4.6844   -0.3526   -0.1292 H   0  0  0  0  0  0  0  0  0  0  0  0
    6.5037   -3.1962    0.5856 H   0  0  0  0  0  0  0  0  0  0  0  0
    6.4951   -3.5150   -1.1478 H   0  0  0  0  0  0  0  0  0  0  0  0
  1  5  1  0
  1  2  2  0
  1 16  1  0
  2  3  1  0
  3  4  1  0
  4  9  1  0
  4  5  2  0
  5  6  1  0
  6  7  1  0
  6 17  1  0
  6 18  1  0
  7  8  1  0
  7 19  1  0
  7 20  1  0
  8  9  1  0
  8 21  1  0
  8 22  1  0
  9 10  1  0
 10 11  1  0
 10 23  1  0
 10 24  1  0
 11 15  1  0
 11 12  1  0
 11 25  1  1
 12 13  1  0
 12 26  1  0
 12 27  1  0
 13 14  1  0
 13 28  1  0
 13 29  1  0
 14 15  1  0
 15 30  1  0
 15 31  1  0
M  END
>  <i_m_ct_stereo_status>  (71) 
1

>  <s_m_source_file>  (71) 
/var/tmp/pbs.5076255.sched01/tmp7dv9smms/08akalw19.sdf

>  <i_m_source_file_index>  (71) 
25

>  <i_lp_mmshare_version>  (71) 
48012

>  <i_f3d_flags>  (71) 
0

>  <s_epik_input>  (71) 
bzFuW2NIXWMoYzEyKVtDSDJdW0NIMl1bQ0gyXU4yW0NIMl1bQ0BASF0zW0NIMl1bQ0gyXU9bQ0gyXTM=

>  <s_epik_cmdline>  (71) 
J2VwaWtfcHl0aG9uJywgJy1waHQnLCAnMi4wJywgJy1waCcsICc3LjAnLCAnLXRuJywgJzgnLCAnLW1hJywgJzIwMCcsICctaW1hZScsICc8aW5maWxlLm1hZT4nLCAnLW9tYWUnLCAnPG91dGZpbGUubWFlPic=

>  <r_epik_Ionization_Penalty>  (71) 
0.0164673

>  <r_epik_Ionization_Penalty_Charging>  (71) 
0

>  <r_epik_Ionization_Penalty_Neutral>  (71) 
0.0164673

>  <r_epik_State_Penalty>  (71) 
0.0129698

>  <r_epik_Charging_Adjusted_Penalty>  (71) 
0.0129698

>  <i_epik_Tot_Q>  (71) 
0

>  <i_epik_Tot_abs_Q>  (71) 
0

>  <s_lp_Force_Field>  (71) 
OPLS3e

>  <r_lp_Energy>  (71) 
6.56223

>  <b_lp_Chiralities_Consistent>  (71) 
1

>  <s_lp_Variant>  (71) 
13:0-1

>  <s_i_glide_gridfile>  (71) 
pfpi4k_grid

>  <i_i_glide_lignum>  (71) 
25

>  <i_i_glide_rotatable_bonds>  (71) 
2

>  <r_i_docking_score>  (71) 
-3.25207

>  <r_i_glide_ligand_efficiency>  (71) 
-0.216805

>  <r_i_glide_ligand_efficiency_sa>  (71) 
-0.534686

>  <r_i_glide_ligand_efficiency_ln>  (71) 
-0.87703

>  <r_i_glide_gscore>  (71) 
-3.25207

>  <r_i_glide_lipo>  (71) 
-0.181577

>  <r_i_glide_hbond>  (71) 
-0.12242

>  <r_i_glide_metal>  (71) 
-0

>  <r_i_glide_rewards>  (71) 
-2.05941

>  <r_i_glide_evdw>  (71) 
-14.1617

>  <r_i_glide_ecoul>  (71) 
-5.01871

>  <r_i_glide_erotb>  (71) 
0.76328

>  <r_i_glide_esite>  (71) 
-0.19105

>  <r_i_glide_emodel>  (71) 
-22.9767

>  <r_i_glide_energy>  (71) 
-19.1804

>  <r_i_glide_einternal>  (71) 
1.65353

>  <r_i_glide_intrahb_reward>  (71) 
-0

>  <i_i_glide_confnum>  (71) 
4

>  <i_i_glide_posenum>  (71) 
26

>  <r_i_glide_eff_state_penalty>  (71) 
0

>  <ligand_id>  (71) 
13

>  <original_smiles>  (71) 
c1noc2c1CCCN2CC1CCOC1

>  <smiles>  (71) 
[H]c1noc2c1C([H])([H])C([H])([H])C([H])([H])N2C([H])([H])C1([H])C([H])([H])OC([H])([H])C1([H])[H]

$$$$
13:0:2
     RDKit          3D

 31 33  0  0  1  0  0  0  0  0999 V2000
    1.2444   -7.5024    1.8788 C   0  0  0  0  0  0  0  0  0  0  0  0
    0.5841   -6.6048    1.1623 N   0  0  0  0  0  0  0  0  0  0  0  0
    1.5552   -5.8179    0.5244 O   0  0  0  0  0  0  0  0  0  0  0  0
    2.7634   -6.2864    0.8907 C   0  0  0  0  0  0  0  0  0  0  0  0
    2.6454   -7.3669    1.7127 C   0  0  0  0  0  0  0  0  0  0  0  0
    3.8253   -8.1211    2.2373 C   0  0  0  0  0  0  0  0  0  0  0  0
    5.0652   -7.7575    1.3817 C   0  0  0  0  0  0  0  0  0  0  0  0
    5.1649   -6.2452    1.0438 C   0  0  0  0  0  0  0  0  0  0  0  0
    3.9458   -5.7256    0.4385 N   0  0  0  0  0  0  0  0  0  0  0  0
    3.9597   -4.4957   -0.3443 C   0  0  0  0  0  0  0  0  0  0  0  0
    4.4358   -3.2898    0.4884 C   0  0  2  0  0  0  0  0  0  0  0  0
    4.0819   -1.9647   -0.1444 C   0  0  0  0  0  0  0  0  0  0  0  0
    5.0469   -1.0122    0.5510 C   0  0  0  0  0  0  0  0  0  0  0  0
    6.2402   -1.7610    0.7630 O   0  0  0  0  0  0  0  0  0  0  0  0
    5.9577   -3.1509    0.6365 C   0  0  0  0  0  0  0  0  0  0  0  0
    0.6891   -8.2020    2.4849 H   0  0  0  0  0  0  0  0  0  0  0  0
    4.0156   -7.8467    3.2750 H   0  0  0  0  0  0  0  0  0  0  0  0
    3.6645   -9.1991    2.2103 H   0  0  0  0  0  0  0  0  0  0  0  0
    5.9785   -8.0758    1.8855 H   0  0  0  0  0  0  0  0  0  0  0  0
    5.0204   -8.2995    0.4343 H   0  0  0  0  0  0  0  0  0  0  0  0
    5.3661   -5.6910    1.9651 H   0  0  0  0  0  0  0  0  0  0  0  0
    5.9999   -6.0729    0.3601 H   0  0  0  0  0  0  0  0  0  0  0  0
    4.6176   -4.6497   -1.2018 H   0  0  0  0  0  0  0  0  0  0  0  0
    2.9718   -4.3020   -0.7725 H   0  0  0  0  0  0  0  0  0  0  0  0
    3.9799   -3.3211    1.4785 H   0  0  0  0  0  0  0  0  0  0  0  0
    4.2816   -1.9842   -1.2163 H   0  0  0  0  0  0  0  0  0  0  0  0
    3.0355   -1.6959    0.0112 H   0  0  0  0  0  0  0  0  0  0  0  0
    5.2540   -0.1276   -0.0469 H   0  0  0  0  0  0  0  0  0  0  0  0
    4.6396   -0.6965    1.5135 H   0  0  0  0  0  0  0  0  0  0  0  0
    6.3492   -3.6967    1.4935 H   0  0  0  0  0  0  0  0  0  0  0  0
    6.4763   -3.5023   -0.2521 H   0  0  0  0  0  0  0  0  0  0  0  0
  1  5  1  0
  1  2  2  0
  1 16  1  0
  2  3  1  0
  3  4  1  0
  4  9  1  0
  4  5  2  0
  5  6  1  0
  6  7  1  0
  6 17  1  0
  6 18  1  0
  7  8  1  0
  7 19  1  0
  7 20  1  0
  8  9  1  0
  8 21  1  0
  8 22  1  0
  9 10  1  0
 10 11  1  0
 10 23  1  0
 10 24  1  0
 11 15  1  0
 11 12  1  0
 11 25  1  1
 12 13  1  0
 12 26  1  0
 12 27  1  0
 13 14  1  0
 13 28  1  0
 13 29  1  0
 14 15  1  0
 15 30  1  0
 15 31  1  0
M  END
>  <i_m_ct_stereo_status>  (72) 
1

>  <s_m_source_file>  (72) 
/var/tmp/pbs.5076255.sched01/tmp7dv9smms/08akalw19.sdf

>  <i_m_source_file_index>  (72) 
25

>  <i_lp_mmshare_version>  (72) 
48012

>  <i_f3d_flags>  (72) 
0

>  <s_epik_input>  (72) 
bzFuW2NIXWMoYzEyKVtDSDJdW0NIMl1bQ0gyXU4yW0NIMl1bQ0BASF0zW0NIMl1bQ0gyXU9bQ0gyXTM=

>  <s_epik_cmdline>  (72) 
J2VwaWtfcHl0aG9uJywgJy1waHQnLCAnMi4wJywgJy1waCcsICc3LjAnLCAnLXRuJywgJzgnLCAnLW1hJywgJzIwMCcsICctaW1hZScsICc8aW5maWxlLm1hZT4nLCAnLW9tYWUnLCAnPG91dGZpbGUubWFlPic=

>  <r_epik_Ionization_Penalty>  (72) 
0.0164673

>  <r_epik_Ionization_Penalty_Charging>  (72) 
0

>  <r_epik_Ionization_Penalty_Neutral>  (72) 
0.0164673

>  <r_epik_State_Penalty>  (72) 
0.0129698

>  <r_epik_Charging_Adjusted_Penalty>  (72) 
0.0129698

>  <i_epik_Tot_Q>  (72) 
0

>  <i_epik_Tot_abs_Q>  (72) 
0

>  <s_lp_Force_Field>  (72) 
OPLS3e

>  <r_lp_Energy>  (72) 
6.56223

>  <b_lp_Chiralities_Consistent>  (72) 
1

>  <s_lp_Variant>  (72) 
13:0-1

>  <s_i_glide_gridfile>  (72) 
pfpi4k_grid

>  <i_i_glide_lignum>  (72) 
25

>  <i_i_glide_rotatable_bonds>  (72) 
2

>  <r_i_docking_score>  (72) 
-3.18051

>  <r_i_glide_ligand_efficiency>  (72) 
-0.212034

>  <r_i_glide_ligand_efficiency_sa>  (72) 
-0.52292

>  <r_i_glide_ligand_efficiency_ln>  (72) 
-0.85773

>  <r_i_glide_gscore>  (72) 
-3.18051

>  <r_i_glide_lipo>  (72) 
-0.379233

>  <r_i_glide_hbond>  (72) 
0

>  <r_i_glide_metal>  (72) 
-0

>  <r_i_glide_rewards>  (72) 
-2.06383

>  <r_i_glide_evdw>  (72) 
-15.5143

>  <r_i_glide_ecoul>  (72) 
-3.50009

>  <r_i_glide_erotb>  (72) 
0.76328

>  <r_i_glide_esite>  (72) 
-0.2

>  <r_i_glide_emodel>  (72) 
-22.943

>  <r_i_glide_energy>  (72) 
-19.0144

>  <r_i_glide_einternal>  (72) 
1.25904

>  <r_i_glide_intrahb_reward>  (72) 
-0

>  <i_i_glide_confnum>  (72) 
4

>  <i_i_glide_posenum>  (72) 
2

>  <r_i_glide_eff_state_penalty>  (72) 
0

>  <ligand_id>  (72) 
13

>  <original_smiles>  (72) 
c1noc2c1CCCN2CC1CCOC1

>  <smiles>  (72) 
[H]c1noc2c1C([H])([H])C([H])([H])C([H])([H])N2C([H])([H])C1([H])C([H])([H])OC([H])([H])C1([H])[H]

$$$$
13:1:0
     RDKit          3D

 32 34  0  0  1  0  0  0  0  0999 V2000
    4.0205   -1.0509   -3.6785 C   0  0  0  0  0  0  0  0  0  0  0  0
    4.2004    0.0442   -2.8544 N   0  0  0  0  0  0  0  0  0  0  0  0
    4.7315   -0.4364   -1.6096 O   0  0  0  0  0  0  0  0  0  0  0  0
    4.8632   -1.7790   -1.7358 C   0  0  0  0  0  0  0  0  0  0  0  0
    4.4321   -2.1996   -2.9579 C   0  0  0  0  0  0  0  0  0  0  0  0
    4.5126   -3.6259   -3.3347 C   0  0  0  0  0  0  0  0  0  0  0  0
    4.7348   -4.4503   -2.0510 C   0  0  0  0  0  0  0  0  0  0  0  0
    5.7495   -3.8967   -1.0650 C   0  0  0  0  0  0  0  0  0  0  0  0
    5.5243   -2.5142   -0.7462 N   0  0  0  0  0  0  0  0  0  0  0  0
    6.5386   -1.8794    0.0586 C   0  0  0  0  0  0  0  0  0  0  0  0
    6.0872   -1.6874    1.5108 C   0  0  2  0  0  0  0  0  0  0  0  0
    5.4918   -2.9148    2.1799 C   0  0  0  0  0  0  0  0  0  0  0  0
    4.7476   -2.2935    3.3459 C   0  0  0  0  0  0  0  0  0  0  0  0
    4.3067   -1.0156    2.8952 O   0  0  0  0  0  0  0  0  0  0  0  0
    4.9964   -0.6405    1.7079 C   0  0  0  0  0  0  0  0  0  0  0  0
    3.6349   -0.9199   -4.6888 H   0  0  0  0  0  0  0  0  0  0  0  0
    3.6071   -3.9575   -3.8573 H   0  0  0  0  0  0  0  0  0  0  0  0
    5.3569   -3.8220   -4.0090 H   0  0  0  0  0  0  0  0  0  0  0  0
    3.8168   -4.5542   -1.4980 H   0  0  0  0  0  0  0  0  0  0  0  0
    5.0425   -5.4527   -2.2981 H   0  0  0  0  0  0  0  0  0  0  0  0
    5.7315   -4.5111   -0.1577 H   0  0  0  0  0  0  0  0  0  0  0  0
    6.7490   -3.9635   -1.4821 H   0  0  0  0  0  0  0  0  0  0  0  0
    7.4423   -2.5094    0.0351 H   0  0  0  0  0  0  0  0  0  0  0  0
    6.8219   -0.9156   -0.3566 H   0  0  0  0  0  0  0  0  0  0  0  0
    6.9515   -1.3530    2.0743 H   0  0  0  0  0  0  0  0  0  0  0  0
    4.7461   -3.4099    1.5611 H   0  0  0  0  0  0  0  0  0  0  0  0
    6.2353   -3.6583    2.4667 H   0  0  0  0  0  0  0  0  0  0  0  0
    3.9033   -2.9105    3.6494 H   0  0  0  0  0  0  0  0  0  0  0  0
    5.4183   -2.1647    4.1929 H   0  0  0  0  0  0  0  0  0  0  0  0
    5.4114    0.3677    1.7552 H   0  0  0  0  0  0  0  0  0  0  0  0
    4.2655   -0.6613    0.9065 H   0  0  0  0  0  0  0  0  0  0  0  0
    3.9123    1.0006   -3.0198 H   0  0  0  0  0  0  0  0  0  0  0  0
  1  5  1  0
  1  2  2  0
  1 16  1  0
  2  3  1  0
  2 32  1  0
  3  4  1  0
  4  9  1  0
  4  5  2  0
  5  6  1  0
  6  7  1  0
  6 17  1  0
  6 18  1  0
  7  8  1  0
  7 19  1  0
  7 20  1  0
  8  9  1  0
  8 21  1  0
  8 22  1  0
  9 10  1  0
 10 11  1  0
 10 23  1  0
 10 24  1  0
 11 15  1  0
 11 12  1  0
 11 25  1  1
 12 13  1  0
 12 26  1  0
 12 27  1  0
 13 14  1  0
 13 28  1  0
 13 29  1  0
 14 15  1  0
 15 30  1  0
 15 31  1  0
M  CHG  1   2   1
M  END
>  <i_m_ct_stereo_status>  (73) 
1

>  <s_m_source_file>  (73) 
/var/tmp/pbs.5076255.sched01/tmp7dv9smms/08akalw19.sdf

>  <i_m_source_file_index>  (73) 
26

>  <i_lp_mmshare_version>  (73) 
48012

>  <i_f3d_flags>  (73) 
0

>  <s_epik_input>  (73) 
bzFuW2NIXWMoYzEyKVtDSDJdW0NIMl1bQ0gyXU4yW0NIMl1bQ0BASF0zW0NIMl1bQ0gyXU9bQ0gyXTM=

>  <s_epik_cmdline>  (73) 
J2VwaWtfcHl0aG9uJywgJy1waHQnLCAnMi4wJywgJy1waCcsICc3LjAnLCAnLXRuJywgJzgnLCAnLW1hJywgJzIwMCcsICctaW1hZScsICc8aW5maWxlLm1hZT4nLCAnLW9tYWUnLCAnPG91dGZpbGUubWFlPic=

>  <r_lp_tautomer_probability>  (73) 
0.987415

>  <r_epik_Ionization_Penalty>  (73) 
2.13231

>  <r_epik_Ionization_Penalty_Charging>  (73) 
2.13231

>  <r_epik_Ionization_Penalty_Neutral>  (73) 
3.21588e-08

>  <r_epik_State_Penalty>  (73) 
2.27078

>  <r_epik_Charging_Adjusted_Penalty>  (73) 
4.40309

>  <i_epik_Tot_Q>  (73) 
1

>  <i_epik_Tot_abs_Q>  (73) 
1

>  <s_lp_Force_Field>  (73) 
OPLS3e

>  <r_lp_Energy>  (73) 
14.6441

>  <b_lp_Chiralities_Consistent>  (73) 
1

>  <s_lp_Variant>  (73) 
13:0-2

>  <s_i_glide_gridfile>  (73) 
pfpi4k_grid

>  <i_i_glide_lignum>  (73) 
26

>  <i_i_glide_rotatable_bonds>  (73) 
2

>  <r_i_docking_score>  (73) 
-2.76326

>  <r_i_glide_ligand_efficiency>  (73) 
-0.184218

>  <r_i_glide_ligand_efficiency_sa>  (73) 
-0.45432

>  <r_i_glide_ligand_efficiency_ln>  (73) 
-0.745206

>  <r_i_glide_gscore>  (73) 
-2.76326

>  <r_i_glide_lipo>  (73) 
-0.846857

>  <r_i_glide_hbond>  (73) 
0

>  <r_i_glide_metal>  (73) 
-0

>  <r_i_glide_rewards>  (73) 
-1.98228

>  <r_i_glide_evdw>  (73) 
-11.1369

>  <r_i_glide_ecoul>  (73) 
-0.81448

>  <r_i_glide_erotb>  (73) 
0.757128

>  <r_i_glide_esite>  (73) 
-0.0122322

>  <r_i_glide_emodel>  (73) 
-9.61317

>  <r_i_glide_energy>  (73) 
-11.9514

>  <r_i_glide_einternal>  (73) 
5.7199

>  <r_i_glide_intrahb_reward>  (73) 
-0

>  <i_i_glide_confnum>  (73) 
2

>  <i_i_glide_posenum>  (73) 
12

>  <r_i_glide_eff_state_penalty>  (73) 
0

>  <ligand_id>  (73) 
13

>  <original_smiles>  (73) 
c1noc2c1CCCN2CC1CCOC1

>  <smiles>  (73) 
[H]c1c2c(o[n+]1[H])N(C([H])([H])C1([H])C([H])([H])OC([H])([H])C1([H])[H])C([H])([H])C([H])([H])C2([H])[H]

$$$$
14:0:0
     RDKit          3D

 31 33  0  0  1  0  0  0  0  0999 V2000
    0.6374    0.2880    7.2458 O   0  0  0  0  0  0  0  0  0  0  0  0
   -0.4827    0.8123    6.4408 S   0  0  0  0  0  0  0  0  0  0  0  0
   -1.7982    0.1324    6.4688 O   0  0  0  0  0  0  0  0  0  0  0  0
   -0.7281    2.5973    6.8013 C   0  0  0  0  0  0  0  0  0  0  0  0
   -1.6174    2.8188    7.9907 C   0  0  0  0  0  0  0  0  0  0  0  0
   -1.1033    2.8380    9.2948 C   0  0  0  0  0  0  0  0  0  0  0  0
   -2.0001    3.1029   10.3577 C   0  0  0  0  0  0  0  0  0  0  0  0
   -3.3157    3.3449   10.1608 N   0  0  0  0  0  0  0  0  0  0  0  0
   -3.7927    3.3355    8.9075 C   0  0  0  0  0  0  0  0  0  0  0  0
   -2.9919    3.0785    7.7802 C   0  0  0  0  0  0  0  0  0  0  0  0
    0.0246    0.8229    4.8006 N   0  0  0  0  0  0  0  0  0  0  0  0
   -0.9270    1.1926    3.7526 C   0  0  2  0  0  0  0  0  0  0  0  0
   -0.3853    1.5251    2.3789 C   0  0  0  0  0  0  0  0  0  0  0  0
   -0.9865    2.6180    3.2179 C   0  0  0  0  0  0  0  0  0  0  0  0
   -0.3125    3.8009    3.8269 C   0  0  0  0  0  0  0  0  0  0  0  0
   -1.6796    4.3168    3.9923 O   0  0  0  0  0  0  0  0  0  0  0  0
   -2.2698    3.3500    3.0621 C   0  0  0  0  0  0  0  0  0  0  0  0
    0.2409    3.0753    6.9375 H   0  0  0  0  0  0  0  0  0  0  0  0
   -1.2278    3.0271    5.9642 H   0  0  0  0  0  0  0  0  0  0  0  0
   -0.0508    2.6884    9.4860 H   0  0  0  0  0  0  0  0  0  0  0  0
   -1.6421    3.1304   11.3746 H   0  0  0  0  0  0  0  0  0  0  0  0
   -4.8486    3.5363    8.7872 H   0  0  0  0  0  0  0  0  0  0  0  0
   -3.4035    3.1089    6.7873 H   0  0  0  0  0  0  0  0  0  0  0  0
    0.9615    1.2090    4.6742 H   0  0  0  0  0  0  0  0  0  0  0  0
   -1.8068    0.5562    3.7555 H   0  0  0  0  0  0  0  0  0  0  0  0
    0.6931    1.5727    2.2360 H   0  0  0  0  0  0  0  0  0  0  0  0
   -0.9737    1.2306    1.5096 H   0  0  0  0  0  0  0  0  0  0  0  0
    0.2132    3.6329    4.7714 H   0  0  0  0  0  0  0  0  0  0  0  0
    0.2420    4.4178    3.1197 H   0  0  0  0  0  0  0  0  0  0  0  0
   -2.4156    3.8071    2.0843 H   0  0  0  0  0  0  0  0  0  0  0  0
   -3.1772    2.8691    3.4288 H   0  0  0  0  0  0  0  0  0  0  0  0
  1  2  2  0
  2  3  2  0
  2  4  1  0
  2 11  1  0
  4  5  1  0
  4 18  1  0
  4 19  1  0
  5 10  1  0
  5  6  2  0
  6  7  1  0
  6 20  1  0
  7  8  2  0
  7 21  1  0
  8  9  1  0
  9 10  2  0
  9 22  1  0
 10 23  1  0
 11 12  1  0
 11 24  1  0
 12 14  1  0
 12 13  1  0
 12 25  1  6
 13 14  1  0
 13 26  1  0
 13 27  1  0
 14 17  1  0
 14 15  1  0
 15 16  1  0
 15 28  1  0
 15 29  1  0
 16 17  1  0
 17 30  1  0
 17 31  1  0
M  END
>  <i_m_ct_stereo_status>  (74) 
1

>  <s_m_source_file>  (74) 
/var/tmp/pbs.5076255.sched01/tmp7dv9smms/08akalw19.sdf

>  <i_m_source_file_index>  (74) 
27

>  <i_lp_mmshare_version>  (74) 
48012

>  <i_f3d_flags>  (74) 
0

>  <s_epik_input>  (74) 
W0NIMl0xT1tDSDJdQzEyW0NAQEhdKFtDSDJdMilbTkhdUyg9TykoPU8pW0NIMl1jM1tjSF1bY0hdbltjSF1bY0hdMw==

>  <s_epik_cmdline>  (74) 
J2VwaWtfcHl0aG9uJywgJy1waHQnLCAnMi4wJywgJy1waCcsICc3LjAnLCAnLXRuJywgJzgnLCAnLW1hJywgJzIwMCcsICctaW1hZScsICc8aW5maWxlLm1hZT4nLCAnLW9tYWUnLCAnPG91dGZpbGUubWFlPic=

>  <r_epik_Ionization_Penalty>  (74) 
0.00290635

>  <r_epik_Ionization_Penalty_Charging>  (74) 
0

>  <r_epik_Ionization_Penalty_Neutral>  (74) 
0.00290635

>  <r_epik_State_Penalty>  (74) 
0.00200174

>  <r_epik_Charging_Adjusted_Penalty>  (74) 
0.00200174

>  <i_epik_Tot_Q>  (74) 
0

>  <i_epik_Tot_abs_Q>  (74) 
0

>  <s_lp_Force_Field>  (74) 
OPLS3e

>  <r_lp_Energy>  (74) 
7.25092

>  <b_lp_Chiralities_Consistent>  (74) 
1

>  <s_lp_Variant>  (74) 
14:0-1

>  <s_i_glide_gridfile>  (74) 
pfpi4k_grid

>  <i_i_glide_lignum>  (74) 
27

>  <i_i_glide_rotatable_bonds>  (74) 
4

>  <r_i_docking_score>  (74) 
-3.57827

>  <r_i_glide_ligand_efficiency>  (74) 
-0.210486

>  <r_i_glide_ligand_efficiency_sa>  (74) 
-0.54122

>  <r_i_glide_ligand_efficiency_ln>  (74) 
-0.933491

>  <r_i_glide_gscore>  (74) 
-3.57827

>  <r_i_glide_lipo>  (74) 
-0.183914

>  <r_i_glide_hbond>  (74) 
-0.100428

>  <r_i_glide_metal>  (74) 
-0

>  <r_i_glide_rewards>  (74) 
-1.67518

>  <r_i_glide_evdw>  (74) 
-20.5156

>  <r_i_glide_ecoul>  (74) 
-6.57448

>  <r_i_glide_erotb>  (74) 
0.543826

>  <r_i_glide_esite>  (74) 
-0.150622

>  <r_i_glide_emodel>  (74) 
-32.8498

>  <r_i_glide_energy>  (74) 
-27.09

>  <r_i_glide_einternal>  (74) 
0.561295

>  <r_i_glide_intrahb_reward>  (74) 
-0

>  <i_i_glide_confnum>  (74) 
2

>  <i_i_glide_posenum>  (74) 
29

>  <r_i_glide_eff_state_penalty>  (74) 
0

>  <ligand_id>  (74) 
14

>  <original_smiles>  (74) 
O=S(=O)(Cc1ccncc1)NC1CC12COC2

>  <smiles>  (74) 
[H]c1nc([H])c([H])c(C([H])([H])S(=O)(=O)N([H])C2([H])C([H])([H])C23C([H])([H])OC3([H])[H])c1[H]

$$$$
14:0:1
     RDKit          3D

 31 33  0  0  1  0  0  0  0  0999 V2000
    0.3164    1.7098    6.2722 O   0  0  0  0  0  0  0  0  0  0  0  0
   -1.0576    1.3863    5.7929 S   0  0  0  0  0  0  0  0  0  0  0  0
   -1.8080    0.3161    6.4625 O   0  0  0  0  0  0  0  0  0  0  0  0
   -2.0229    2.9147    5.8240 C   0  0  0  0  0  0  0  0  0  0  0  0
   -2.0008    3.4853    7.2180 C   0  0  0  0  0  0  0  0  0  0  0  0
   -0.9675    4.3467    7.6528 C   0  0  0  0  0  0  0  0  0  0  0  0
   -1.0158    4.8548    8.9700 C   0  0  0  0  0  0  0  0  0  0  0  0
   -2.0158    4.5806    9.8373 N   0  0  0  0  0  0  0  0  0  0  0  0
   -2.9850    3.7358    9.4251 C   0  0  0  0  0  0  0  0  0  0  0  0
   -3.0260    3.1750    8.1308 C   0  0  0  0  0  0  0  0  0  0  0  0
   -0.9908    0.9909    4.1258 N   0  0  0  0  0  0  0  0  0  0  0  0
   -0.2957    1.8437    3.1450 C   0  0  2  0  0  0  0  0  0  0  0  0
    0.2272    1.2019    1.8791 C   0  0  0  0  0  0  0  0  0  0  0  0
    1.1958    1.7003    2.9192 C   0  0  0  0  0  0  0  0  0  0  0  0
    2.1135    0.9464    3.7974 C   0  0  0  0  0  0  0  0  0  0  0  0
    2.7380    2.2310    4.0137 O   0  0  0  0  0  0  0  0  0  0  0  0
    2.0695    2.8986    2.9177 C   0  0  0  0  0  0  0  0  0  0  0  0
   -1.5389    3.6056    5.1454 H   0  0  0  0  0  0  0  0  0  0  0  0
   -3.0265    2.7091    5.4597 H   0  0  0  0  0  0  0  0  0  0  0  0
   -0.1322    4.6114    7.0115 H   0  0  0  0  0  0  0  0  0  0  0  0
   -0.2499    5.5288    9.3389 H   0  0  0  0  0  0  0  0  0  0  0  0
   -3.7745    3.5294   10.1345 H   0  0  0  0  0  0  0  0  0  0  0  0
   -3.8471    2.5331    7.8448 H   0  0  0  0  0  0  0  0  0  0  0  0
   -0.9188   -0.0111    3.9519 H   0  0  0  0  0  0  0  0  0  0  0  0
   -0.7986    2.7997    2.9842 H   0  0  0  0  0  0  0  0  0  0  0  0
    0.1839    0.1134    1.7466 H   0  0  0  0  0  0  0  0  0  0  0  0
    0.1838    1.7931    0.9496 H   0  0  0  0  0  0  0  0  0  0  0  0
    1.6941    0.5012    4.6933 H   0  0  0  0  0  0  0  0  0  0  0  0
    2.7865    0.2623    3.2676 H   0  0  0  0  0  0  0  0  0  0  0  0
    2.7435    2.9971    2.0680 H   0  0  0  0  0  0  0  0  0  0  0  0
    1.6028    3.8581    3.1686 H   0  0  0  0  0  0  0  0  0  0  0  0
  1  2  2  0
  2  3  2  0
  2  4  1  0
  2 11  1  0
  4  5  1  0
  4 18  1  0
  4 19  1  0
  5 10  1  0
  5  6  2  0
  6  7  1  0
  6 20  1  0
  7  8  2  0
  7 21  1  0
  8  9  1  0
  9 10  2  0
  9 22  1  0
 10 23  1  0
 11 12  1  0
 11 24  1  0
 12 14  1  0
 12 13  1  0
 12 25  1  6
 13 14  1  0
 13 26  1  0
 13 27  1  0
 14 17  1  0
 14 15  1  0
 15 16  1  0
 15 28  1  0
 15 29  1  0
 16 17  1  0
 17 30  1  0
 17 31  1  0
M  END
>  <i_m_ct_stereo_status>  (75) 
1

>  <s_m_source_file>  (75) 
/var/tmp/pbs.5076255.sched01/tmp7dv9smms/08akalw19.sdf

>  <i_m_source_file_index>  (75) 
27

>  <i_lp_mmshare_version>  (75) 
48012

>  <i_f3d_flags>  (75) 
0

>  <s_epik_input>  (75) 
W0NIMl0xT1tDSDJdQzEyW0NAQEhdKFtDSDJdMilbTkhdUyg9TykoPU8pW0NIMl1jM1tjSF1bY0hdbltjSF1bY0hdMw==

>  <s_epik_cmdline>  (75) 
J2VwaWtfcHl0aG9uJywgJy1waHQnLCAnMi4wJywgJy1waCcsICc3LjAnLCAnLXRuJywgJzgnLCAnLW1hJywgJzIwMCcsICctaW1hZScsICc8aW5maWxlLm1hZT4nLCAnLW9tYWUnLCAnPG91dGZpbGUubWFlPic=

>  <r_epik_Ionization_Penalty>  (75) 
0.00290635

>  <r_epik_Ionization_Penalty_Charging>  (75) 
0

>  <r_epik_Ionization_Penalty_Neutral>  (75) 
0.00290635

>  <r_epik_State_Penalty>  (75) 
0.00200174

>  <r_epik_Charging_Adjusted_Penalty>  (75) 
0.00200174

>  <i_epik_Tot_Q>  (75) 
0

>  <i_epik_Tot_abs_Q>  (75) 
0

>  <s_lp_Force_Field>  (75) 
OPLS3e

>  <r_lp_Energy>  (75) 
7.25092

>  <b_lp_Chiralities_Consistent>  (75) 
1

>  <s_lp_Variant>  (75) 
14:0-1

>  <s_i_glide_gridfile>  (75) 
pfpi4k_grid

>  <i_i_glide_lignum>  (75) 
27

>  <i_i_glide_rotatable_bonds>  (75) 
4

>  <r_i_docking_score>  (75) 
-3.0636

>  <r_i_glide_ligand_efficiency>  (75) 
-0.180212

>  <r_i_glide_ligand_efficiency_sa>  (75) 
-0.463376

>  <r_i_glide_ligand_efficiency_ln>  (75) 
-0.799226

>  <r_i_glide_gscore>  (75) 
-3.0636

>  <r_i_glide_lipo>  (75) 
-0.22004

>  <r_i_glide_hbond>  (75) 
0

>  <r_i_glide_metal>  (75) 
-0

>  <r_i_glide_rewards>  (75) 
-1.67518

>  <r_i_glide_evdw>  (75) 
-20.0479

>  <r_i_glide_ecoul>  (75) 
-3.77204

>  <r_i_glide_erotb>  (75) 
0.543826

>  <r_i_glide_esite>  (75) 
-0.144006

>  <r_i_glide_emodel>  (75) 
-27.0733

>  <r_i_glide_energy>  (75) 
-23.8199

>  <r_i_glide_einternal>  (75) 
3.80836

>  <r_i_glide_intrahb_reward>  (75) 
-0

>  <i_i_glide_confnum>  (75) 
2

>  <i_i_glide_posenum>  (75) 
1

>  <r_i_glide_eff_state_penalty>  (75) 
0

>  <ligand_id>  (75) 
14

>  <original_smiles>  (75) 
O=S(=O)(Cc1ccncc1)NC1CC12COC2

>  <smiles>  (75) 
[H]c1nc([H])c([H])c(C([H])([H])S(=O)(=O)N([H])C2([H])C([H])([H])C23C([H])([H])OC3([H])[H])c1[H]

$$$$
14:0:2
     RDKit          3D

 31 33  0  0  1  0  0  0  0  0999 V2000
    3.2368   -2.3834   -0.0937 O   0  0  0  0  0  0  0  0  0  0  0  0
    4.5826   -2.0686   -0.5971 S   0  0  0  0  0  0  0  0  0  0  0  0
    5.5179   -1.2764    0.2169 O   0  0  0  0  0  0  0  0  0  0  0  0
    5.3694   -3.6607   -1.0842 C   0  0  0  0  0  0  0  0  0  0  0  0
    6.6372   -3.9040   -0.2871 C   0  0  0  0  0  0  0  0  0  0  0  0
    6.6943   -4.9262    0.6827 C   0  0  0  0  0  0  0  0  0  0  0  0
    7.9136   -5.1344    1.3634 C   0  0  0  0  0  0  0  0  0  0  0  0
    9.0154   -4.3962    1.1300 N   0  0  0  0  0  0  0  0  0  0  0  0
    8.9515   -3.4203    0.2070 C   0  0  0  0  0  0  0  0  0  0  0  0
    7.7939   -3.1469   -0.5471 C   0  0  0  0  0  0  0  0  0  0  0  0
    4.4429   -1.2285   -2.0969 N   0  0  0  0  0  0  0  0  0  0  0  0
    3.1235   -1.0569   -2.7058 C   0  0  2  0  0  0  0  0  0  0  0  0
    2.6160   -2.1426   -3.6187 C   0  0  0  0  0  0  0  0  0  0  0  0
    2.9455   -0.7808   -4.1773 C   0  0  0  0  0  0  0  0  0  0  0  0
    4.0121   -0.4068   -5.0795 C   0  0  0  0  0  0  0  0  0  0  0  0
    3.2705    0.8030   -5.3618 O   0  0  0  0  0  0  0  0  0  0  0  0
    2.0595    0.2718   -4.7667 C   0  0  0  0  0  0  0  0  0  0  0  0
    4.6457   -4.4588   -0.9168 H   0  0  0  0  0  0  0  0  0  0  0  0
    5.5878   -3.6471   -2.1505 H   0  0  0  0  0  0  0  0  0  0  0  0
    5.8501   -5.5598    0.9031 H   0  0  0  0  0  0  0  0  0  0  0  0
    8.0055   -5.9007    2.1158 H   0  0  0  0  0  0  0  0  0  0  0  0
    9.8530   -2.8511    0.0572 H   0  0  0  0  0  0  0  0  0  0  0  0
    7.8100   -2.3797   -1.3012 H   0  0  0  0  0  0  0  0  0  0  0  0
    4.9915   -0.3687   -2.0823 H   0  0  0  0  0  0  0  0  0  0  0  0
    2.4212   -0.5933   -2.0313 H   0  0  0  0  0  0  0  0  0  0  0  0
    3.2832   -2.9751   -3.8365 H   0  0  0  0  0  0  0  0  0  0  0  0
    1.5604   -2.3739   -3.5116 H   0  0  0  0  0  0  0  0  0  0  0  0
    4.9889   -0.2643   -4.6372 H   0  0  0  0  0  0  0  0  0  0  0  0
    4.0032   -1.0475   -5.9417 H   0  0  0  0  0  0  0  0  0  0  0  0
    1.3593   -0.1078   -5.5166 H   0  0  0  0  0  0  0  0  0  0  0  0
    1.5540    0.9443   -4.0976 H   0  0  0  0  0  0  0  0  0  0  0  0
  1  2  2  0
  2  3  2  0
  2  4  1  0
  2 11  1  0
  4  5  1  0
  4 18  1  0
  4 19  1  0
  5 10  1  0
  5  6  2  0
  6  7  1  0
  6 20  1  0
  7  8  2  0
  7 21  1  0
  8  9  1  0
  9 10  2  0
  9 22  1  0
 10 23  1  0
 11 12  1  0
 11 24  1  0
 12 14  1  0
 12 13  1  0
 12 25  1  1
 13 14  1  0
 13 26  1  0
 13 27  1  0
 14 17  1  0
 14 15  1  0
 15 16  1  0
 15 28  1  0
 15 29  1  0
 16 17  1  0
 17 30  1  0
 17 31  1  0
M  END
>  <i_m_ct_stereo_status>  (76) 
1

>  <s_m_source_file>  (76) 
/var/tmp/pbs.5076255.sched01/tmp7dv9smms/08akalw19.sdf

>  <i_m_source_file_index>  (76) 
27

>  <i_lp_mmshare_version>  (76) 
48012

>  <i_f3d_flags>  (76) 
0

>  <s_epik_input>  (76) 
W0NIMl0xT1tDSDJdQzEyW0NAQEhdKFtDSDJdMilbTkhdUyg9TykoPU8pW0NIMl1jM1tjSF1bY0hdbltjSF1bY0hdMw==

>  <s_epik_cmdline>  (76) 
J2VwaWtfcHl0aG9uJywgJy1waHQnLCAnMi4wJywgJy1waCcsICc3LjAnLCAnLXRuJywgJzgnLCAnLW1hJywgJzIwMCcsICctaW1hZScsICc8aW5maWxlLm1hZT4nLCAnLW9tYWUnLCAnPG91dGZpbGUubWFlPic=

>  <r_epik_Ionization_Penalty>  (76) 
0.00290635

>  <r_epik_Ionization_Penalty_Charging>  (76) 
0

>  <r_epik_Ionization_Penalty_Neutral>  (76) 
0.00290635

>  <r_epik_State_Penalty>  (76) 
0.00200174

>  <r_epik_Charging_Adjusted_Penalty>  (76) 
0.00200174

>  <i_epik_Tot_Q>  (76) 
0

>  <i_epik_Tot_abs_Q>  (76) 
0

>  <s_lp_Force_Field>  (76) 
OPLS3e

>  <r_lp_Energy>  (76) 
7.25092

>  <b_lp_Chiralities_Consistent>  (76) 
1

>  <s_lp_Variant>  (76) 
14:0-1

>  <s_i_glide_gridfile>  (76) 
pfpi4k_grid

>  <i_i_glide_lignum>  (76) 
27

>  <i_i_glide_rotatable_bonds>  (76) 
4

>  <r_i_docking_score>  (76) 
-3.05562

>  <r_i_glide_ligand_efficiency>  (76) 
-0.179742

>  <r_i_glide_ligand_efficiency_sa>  (76) 
-0.462168

>  <r_i_glide_ligand_efficiency_ln>  (76) 
-0.797143

>  <r_i_glide_gscore>  (76) 
-3.05562

>  <r_i_glide_lipo>  (76) 
-1.17622

>  <r_i_glide_hbond>  (76) 
0

>  <r_i_glide_metal>  (76) 
-0

>  <r_i_glide_rewards>  (76) 
-1.73352

>  <r_i_glide_evdw>  (76) 
-11.8609

>  <r_i_glide_ecoul>  (76) 
0.160591

>  <r_i_glide_erotb>  (76) 
0.543826

>  <r_i_glide_esite>  (76) 
-0.120752

>  <r_i_glide_emodel>  (76) 
-14.5469

>  <r_i_glide_energy>  (76) 
-11.7003

>  <r_i_glide_einternal>  (76) 
4.72623

>  <r_i_glide_intrahb_reward>  (76) 
-0

>  <i_i_glide_confnum>  (76) 
4

>  <i_i_glide_posenum>  (76) 
4

>  <r_i_glide_eff_state_penalty>  (76) 
0

>  <ligand_id>  (76) 
14

>  <original_smiles>  (76) 
O=S(=O)(Cc1ccncc1)NC1CC12COC2

>  <smiles>  (76) 
[H]c1nc([H])c([H])c(C([H])([H])S(=O)(=O)N([H])C2([H])C([H])([H])C23C([H])([H])OC3([H])[H])c1[H]

$$$$
15:0:0
     RDKit          3D

 57 62  0  0  1  0  0  0  0  0999 V2000
    8.4742   -2.3507   -0.1778 C   0  0  0  0  0  0  0  0  0  0  0  0
    7.0687   -2.1598   -0.0662 O   0  0  0  0  0  0  0  0  0  0  0  0
    6.3847   -2.8767    0.9751 C   0  0  2  0  0  0  0  0  0  0  0  0
    6.1287   -4.3702    0.5282 C   0  0  1  0  0  0  0  0  0  0  0  0
    6.8860   -5.4768    1.3808 C   0  0  1  0  0  0  0  0  0  0  0  0
    8.4243   -5.3609    1.3120 C   0  0  0  0  0  0  0  0  0  0  0  0
    6.5019   -5.6257    2.8709 C   0  0  0  0  0  0  0  0  0  0  0  0
    5.2166   -6.3730    3.2310 C   0  0  0  0  0  0  0  0  0  0  0  0
    4.0168   -5.4500    3.5078 C   0  0  0  0  0  0  0  0  0  0  0  0
    3.7367   -5.1613    4.6760 O   0  0  0  0  0  0  0  0  0  0  0  0
    3.1584   -4.9095    2.3590 C   0  0  2  0  0  0  0  0  0  0  0  0
    2.9528   -5.9217    1.1919 C   0  0  1  0  0  0  0  0  0  0  0  0
    1.5521   -5.8184    0.5558 C   0  0  0  0  0  0  0  0  0  0  0  0
    4.1147   -6.0603    0.1771 C   0  0  0  0  0  0  0  0  0  0  0  0
    4.8324   -4.7751   -0.2933 C   0  0  1  0  0  0  0  0  0  0  0  0
    3.7890   -3.6761   -0.5404 C   0  0  2  0  0  0  0  0  0  0  0  0
    3.0453   -3.7379   -1.7567 O   0  0  0  0  0  0  0  0  0  0  0  0
    3.4536   -2.4000   -1.9843 C   0  0  0  0  0  0  0  0  0  0  0  0
    3.4544   -1.8978   -3.4219 C   0  0  0  0  0  0  0  0  0  0  0  0
    4.3521   -2.3774   -1.0102 C   0  0  0  0  0  0  0  0  0  0  0  0
    4.1039   -1.7687    0.3662 C   0  0  1  0  0  0  0  0  0  0  0  0
    3.1284   -2.9110    0.6124 C   0  0  2  0  0  0  0  0  0  0  0  0
    3.2048   -3.3448    2.0746 C   0  0  2  0  0  0  0  0  0  0  0  0
    4.3481   -2.4138    2.6044 C   0  0  1  0  0  0  0  0  0  0  0  0
    5.0890   -2.7454    3.7539 O   0  0  0  0  0  0  0  0  0  0  0  0
    5.1927   -1.9450    1.3918 C   0  0  1  0  0  0  0  0  0  0  0  0
    5.6863   -0.6691    1.7722 O   0  0  0  0  0  0  0  0  0  0  0  0
    8.8887   -1.6954   -0.9311 H   0  0  0  0  0  0  0  0  0  0  0  0
    8.7243   -3.3454   -0.5111 H   0  0  0  0  0  0  0  0  0  0  0  0
    8.9847   -2.1381    0.7569 H   0  0  0  0  0  0  0  0  0  0  0  0
    7.0197   -2.8927    1.8419 H   0  0  0  0  0  0  0  0  0  0  0  0
    6.7925   -4.4125   -0.3207 H   0  0  0  0  0  0  0  0  0  0  0  0
    6.7364   -6.4439    0.9171 H   0  0  0  0  0  0  0  0  0  0  0  0
    8.7967   -4.4507    1.7914 H   0  0  0  0  0  0  0  0  0  0  0  0
    8.7894   -5.4073    0.2862 H   0  0  0  0  0  0  0  0  0  0  0  0
    8.9138   -6.1978    1.8248 H   0  0  0  0  0  0  0  0  0  0  0  0
    7.3015   -6.1772    3.3708 H   0  0  0  0  0  0  0  0  0  0  0  0
    6.5039   -4.6527    3.3721 H   0  0  0  0  0  0  0  0  0  0  0  0
    4.9914   -7.1542    2.5140 H   0  0  0  0  0  0  0  0  0  0  0  0
    5.3982   -6.8955    4.1660 H   0  0  0  0  0  0  0  0  0  0  0  0
    2.1919   -4.9845    2.8656 H   0  0  0  0  0  0  0  0  0  0  0  0
    2.8957   -6.8949    1.6789 H   0  0  0  0  0  0  0  0  0  0  0  0
    1.4242   -4.9138   -0.0352 H   0  0  0  0  0  0  0  0  0  0  0  0
    0.7721   -5.8508    1.3211 H   0  0  0  0  0  0  0  0  0  0  0  0
    1.3608   -6.6472   -0.1148 H   0  0  0  0  0  0  0  0  0  0  0  0
    4.7929   -6.8417    0.5026 H   0  0  0  0  0  0  0  0  0  0  0  0
    3.7029   -6.5268   -0.7102 H   0  0  0  0  0  0  0  0  0  0  0  0
    5.1882   -5.0641   -1.2756 H   0  0  0  0  0  0  0  0  0  0  0  0
    4.2710   -1.1889   -3.5995 H   0  0  0  0  0  0  0  0  0  0  0  0
    2.5151   -1.3672   -3.5941 H   0  0  0  0  0  0  0  0  0  0  0  0
    3.5089   -2.7201   -4.1307 H   0  0  0  0  0  0  0  0  0  0  0  0
    3.5736   -0.8251    0.3805 H   0  0  0  0  0  0  0  0  0  0  0  0
    2.1177   -2.6134    0.3167 H   0  0  0  0  0  0  0  0  0  0  0  0
    2.3058   -2.9826    2.5707 H   0  0  0  0  0  0  0  0  0  0  0  0
    3.8049   -1.5259    2.9466 H   0  0  0  0  0  0  0  0  0  0  0  0
    4.4971   -2.9530    4.4524 H   0  0  0  0  0  0  0  0  0  0  0  0
    6.3994   -0.8016    2.3773 H   0  0  0  0  0  0  0  0  0  0  0  0
  1  2  1  0
  1 28  1  0
  1 29  1  0
  1 30  1  0
  2  3  1  0
  3 26  1  0
  3  4  1  0
  3 31  1  1
  4 15  1  0
  4  5  1  0
  4 32  1  6
  5  6  1  0
  5  7  1  0
  5 33  1  6
  6 34  1  0
  6 35  1  0
  6 36  1  0
  7  8  1  0
  7 37  1  0
  7 38  1  0
  8  9  1  0
  8 39  1  0
  8 40  1  0
  9 10  2  0
  9 11  1  0
 11 23  1  0
 11 12  1  0
 11 41  1  1
 12 13  1  0
 12 14  1  0
 12 42  1  1
 13 43  1  0
 13 44  1  0
 13 45  1  0
 14 15  1  0
 14 46  1  0
 14 47  1  0
 15 16  1  0
 15 48  1  6
 16 20  1  0
 16 22  1  0
 16 17  1  6
 17 18  1  0
 18 19  1  0
 18 20  2  0
 19 49  1  0
 19 50  1  0
 19 51  1  0
 20 21  1  0
 21 26  1  0
 21 22  1  0
 21 52  1  6
 22 23  1  0
 22 53  1  6
 23 24  1  0
 23 54  1  1
 24 25  1  0
 24 26  1  0
 24 55  1  1
 25 56  1  0
 26 27  1  1
 27 57  1  0
M  END
>  <i_m_ct_stereo_status>  (77) 
1

>  <s_m_source_file>  (77) 
/var/tmp/pbs.5076255.sched01/tmp7dv9smms/08akalw19.sdf

>  <i_m_source_file_index>  (77) 
28

>  <i_lp_mmshare_version>  (77) 
48012

>  <i_f3d_flags>  (77) 
0

>  <s_epik_input>  (77) 
W0NAQF0xMjNbQ0BIXTRbQ0BIXTVbQ0BASF0oT1tDSDNdKVtDQEBdNihbT0hdKVtDQEBIXShDMj1DKE8xKVtDSDNdKVtDQEBIXTNbQ0BIXShbQ0BIXTZbT0hdKVtDQEBIXShbQ0BASF0oW0NIM10pW0NIMl00KUMoPU8pW0NIMl1bQ0gyXVtDQEBIXTVbQ0gzXQ==

>  <s_epik_cmdline>  (77) 
J2VwaWtfcHl0aG9uJywgJy1waHQnLCAnMi4wJywgJy1waCcsICc3LjAnLCAnLXRuJywgJzgnLCAnLW1hJywgJzIwMCcsICctaW1hZScsICc8aW5maWxlLm1hZT4nLCAnLW9tYWUnLCAnPG91dGZpbGUubWFlPic=

>  <r_lp_tautomer_probability>  (77) 
1

>  <r_epik_Ionization_Penalty>  (77) 
1.94004e-07

>  <r_epik_Ionization_Penalty_Charging>  (77) 
0

>  <r_epik_Ionization_Penalty_Neutral>  (77) 
1.94004e-07

>  <r_epik_State_Penalty>  (77) 
-0

>  <r_epik_Charging_Adjusted_Penalty>  (77) 
0

>  <i_epik_Tot_Q>  (77) 
0

>  <i_epik_Tot_abs_Q>  (77) 
0

>  <s_lp_Force_Field>  (77) 
OPLS3e

>  <r_lp_Energy>  (77) 
116.013

>  <b_lp_Chiralities_Consistent>  (77) 
1

>  <s_lp_Variant>  (77) 
15:0-1

>  <s_i_glide_gridfile>  (77) 
pfpi4k_grid

>  <i_i_glide_lignum>  (77) 
28

>  <i_i_glide_rotatable_bonds>  (77) 
3

>  <r_i_docking_score>  (77) 
-2.47028

>  <r_i_glide_ligand_efficiency>  (77) 
-0.0914918

>  <r_i_glide_ligand_efficiency_sa>  (77) 
-0.274475

>  <r_i_glide_ligand_efficiency_ln>  (77) 
-0.57504

>  <r_i_glide_gscore>  (77) 
-2.47028

>  <r_i_glide_lipo>  (77) 
-0.629121

>  <r_i_glide_hbond>  (77) 
-0.036143

>  <r_i_glide_metal>  (77) 
-0

>  <r_i_glide_rewards>  (77) 
-0.855882

>  <r_i_glide_evdw>  (77) 
-20.0449

>  <r_i_glide_ecoul>  (77) 
0.354081

>  <r_i_glide_erotb>  (77) 
0

>  <r_i_glide_esite>  (77) 
0

>  <r_i_glide_emodel>  (77) 
-21.766

>  <r_i_glide_energy>  (77) 
-19.6908

>  <r_i_glide_einternal>  (77) 
0.554974

>  <r_i_glide_intrahb_reward>  (77) 
-0

>  <i_i_glide_confnum>  (77) 
2

>  <i_i_glide_posenum>  (77) 
24

>  <r_i_glide_eff_state_penalty>  (77) 
0

>  <ligand_id>  (77) 
15

>  <original_smiles>  (77) 
COC1C2C(C)CCC(=O)C3C(C)CC2C24OC(C)=C2C2C4C3C(O)C12O

>  <smiles>  (77) 
[H]OC1([H])C2([H])C3([H])C(=O)C([H])([H])C([H])([H])C([H])(C([H])([H])[H])C4([H])C([H])(OC([H])([H])[H])C1(O[H])C1([H])C5=C(C([H])([H])[H])OC5(C4([H])C([H])([H])C3([H])C([H])([H])[H])C12[H]

$$$$
15:0:1
     RDKit          3D

 57 62  0  0  1  0  0  0  0  0999 V2000
    8.4713   -2.3310   -0.0713 C   0  0  0  0  0  0  0  0  0  0  0  0
    7.0598   -2.1568    0.0114 O   0  0  0  0  0  0  0  0  0  0  0  0
    6.3767   -2.8777    1.0527 C   0  0  2  0  0  0  0  0  0  0  0  0
    6.1275   -4.3775    0.6100 C   0  0  1  0  0  0  0  0  0  0  0  0
    6.8935   -5.4777    1.4681 C   0  0  1  0  0  0  0  0  0  0  0  0
    8.4339   -5.3515    1.3973 C   0  0  0  0  0  0  0  0  0  0  0  0
    6.5219   -5.6325    2.9645 C   0  0  0  0  0  0  0  0  0  0  0  0
    5.2248   -6.3711    3.3189 C   0  0  0  0  0  0  0  0  0  0  0  0
    4.0219   -5.4613    3.6004 C   0  0  0  0  0  0  0  0  0  0  0  0
    3.7271   -5.2024    4.7614 O   0  0  0  0  0  0  0  0  0  0  0  0
    3.1587   -4.9163    2.4505 C   0  0  2  0  0  0  0  0  0  0  0  0
    2.9489   -5.9256    1.2896 C   0  0  1  0  0  0  0  0  0  0  0  0
    1.5498   -5.8266    0.6484 C   0  0  0  0  0  0  0  0  0  0  0  0
    4.1069   -6.0684    0.2709 C   0  0  0  0  0  0  0  0  0  0  0  0
    4.8286   -4.7892   -0.2033 C   0  0  1  0  0  0  0  0  0  0  0  0
    3.7942   -3.6898   -0.4522 C   0  0  2  0  0  0  0  0  0  0  0  0
    3.0530   -3.7619   -1.6759 O   0  0  0  0  0  0  0  0  0  0  0  0
    3.4433   -2.4247   -1.9012 C   0  0  0  0  0  0  0  0  0  0  0  0
    3.4430   -1.9150   -3.3384 C   0  0  0  0  0  0  0  0  0  0  0  0
    4.3485   -2.3913   -0.9319 C   0  0  0  0  0  0  0  0  0  0  0  0
    4.0972   -1.7815    0.4434 C   0  0  1  0  0  0  0  0  0  0  0  0
    3.1234   -2.9248    0.6948 C   0  0  2  0  0  0  0  0  0  0  0  0
    3.2075   -3.3580    2.1638 C   0  0  2  0  0  0  0  0  0  0  0  0
    4.3526   -2.4249    2.6873 C   0  0  1  0  0  0  0  0  0  0  0  0
    5.1028   -2.7350    3.8412 O   0  0  0  0  0  0  0  0  0  0  0  0
    5.1855   -1.9476    1.4731 C   0  0  1  0  0  0  0  0  0  0  0  0
    5.6815   -0.6684    1.8412 O   0  0  0  0  0  0  0  0  0  0  0  0
    8.8847   -1.6877   -0.8444 H   0  0  0  0  0  0  0  0  0  0  0  0
    8.7423   -3.3333   -0.3871 H   0  0  0  0  0  0  0  0  0  0  0  0
    8.9731   -2.0918    0.8614 H   0  0  0  0  0  0  0  0  0  0  0  0
    7.0178   -2.8951    1.9290 H   0  0  0  0  0  0  0  0  0  0  0  0
    6.7885   -4.4110   -0.2474 H   0  0  0  0  0  0  0  0  0  0  0  0
    6.7424   -6.4458    0.9977 H   0  0  0  0  0  0  0  0  0  0  0  0
    8.7983   -4.4464    1.8845 H   0  0  0  0  0  0  0  0  0  0  0  0
    8.7935   -5.3896    0.3719 H   0  0  0  0  0  0  0  0  0  0  0  0
    8.9281   -6.1911    1.8926 H   0  0  0  0  0  0  0  0  0  0  0  0
    7.3134   -6.2219    3.4340 H   0  0  0  0  0  0  0  0  0  0  0  0
    6.5827   -4.6903    3.4840 H   0  0  0  0  0  0  0  0  0  0  0  0
    4.9961   -7.1549    2.6039 H   0  0  0  0  0  0  0  0  0  0  0  0
    5.4043   -6.8988    4.2558 H   0  0  0  0  0  0  0  0  0  0  0  0
    2.1937   -4.9891    2.9542 H   0  0  0  0  0  0  0  0  0  0  0  0
    2.8922   -6.9044    1.7684 H   0  0  0  0  0  0  0  0  0  0  0  0
    1.4276   -4.9300    0.0479 H   0  0  0  0  0  0  0  0  0  0  0  0
    0.7676   -5.8650    1.4096 H   0  0  0  0  0  0  0  0  0  0  0  0
    1.3589   -6.6511   -0.0202 H   0  0  0  0  0  0  0  0  0  0  0  0
    4.7923   -6.8507    0.5841 H   0  0  0  0  0  0  0  0  0  0  0  0
    3.6870   -6.5262   -0.6147 H   0  0  0  0  0  0  0  0  0  0  0  0
    5.1957   -5.0777   -1.1871 H   0  0  0  0  0  0  0  0  0  0  0  0
    4.2459   -1.1912   -3.5233 H   0  0  0  0  0  0  0  0  0  0  0  0
    2.5000   -1.3910   -3.4996 H   0  0  0  0  0  0  0  0  0  0  0  0
    3.4958   -2.7175   -4.0745 H   0  0  0  0  0  0  0  0  0  0  0  0
    3.5625   -0.8358    0.4623 H   0  0  0  0  0  0  0  0  0  0  0  0
    2.1160   -2.6324    0.3947 H   0  0  0  0  0  0  0  0  0  0  0  0
    2.3037   -2.9888    2.6571 H   0  0  0  0  0  0  0  0  0  0  0  0
    3.8040   -1.5378    3.0216 H   0  0  0  0  0  0  0  0  0  0  0  0
    5.5523   -3.5466    3.7059 H   0  0  0  0  0  0  0  0  0  0  0  0
    6.3719   -0.7911    2.4684 H   0  0  0  0  0  0  0  0  0  0  0  0
  1  2  1  0
  1 28  1  0
  1 29  1  0
  1 30  1  0
  2  3  1  0
  3 26  1  0
  3  4  1  0
  3 31  1  1
  4 15  1  0
  4  5  1  0
  4 32  1  6
  5  6  1  0
  5  7  1  0
  5 33  1  6
  6 34  1  0
  6 35  1  0
  6 36  1  0
  7  8  1  0
  7 37  1  0
  7 38  1  0
  8  9  1  0
  8 39  1  0
  8 40  1  0
  9 10  2  0
  9 11  1  0
 11 23  1  0
 11 12  1  0
 11 41  1  1
 12 13  1  0
 12 14  1  0
 12 42  1  1
 13 43  1  0
 13 44  1  0
 13 45  1  0
 14 15  1  0
 14 46  1  0
 14 47  1  0
 15 16  1  0
 15 48  1  6
 16 20  1  0
 16 22  1  0
 16 17  1  6
 17 18  1  0
 18 19  1  0
 18 20  2  0
 19 49  1  0
 19 50  1  0
 19 51  1  0
 20 21  1  0
 21 26  1  0
 21 22  1  0
 21 52  1  6
 22 23  1  0
 22 53  1  6
 23 24  1  0
 23 54  1  1
 24 25  1  0
 24 26  1  0
 24 55  1  1
 25 56  1  0
 26 27  1  1
 27 57  1  0
M  END
>  <i_m_ct_stereo_status>  (78) 
1

>  <s_m_source_file>  (78) 
/var/tmp/pbs.5076255.sched01/tmp7dv9smms/08akalw19.sdf

>  <i_m_source_file_index>  (78) 
28

>  <i_lp_mmshare_version>  (78) 
48012

>  <i_f3d_flags>  (78) 
0

>  <s_epik_input>  (78) 
W0NAQF0xMjNbQ0BIXTRbQ0BIXTVbQ0BASF0oT1tDSDNdKVtDQEBdNihbT0hdKVtDQEBIXShDMj1DKE8xKVtDSDNdKVtDQEBIXTNbQ0BIXShbQ0BIXTZbT0hdKVtDQEBIXShbQ0BASF0oW0NIM10pW0NIMl00KUMoPU8pW0NIMl1bQ0gyXVtDQEBIXTVbQ0gzXQ==

>  <s_epik_cmdline>  (78) 
J2VwaWtfcHl0aG9uJywgJy1waHQnLCAnMi4wJywgJy1waCcsICc3LjAnLCAnLXRuJywgJzgnLCAnLW1hJywgJzIwMCcsICctaW1hZScsICc8aW5maWxlLm1hZT4nLCAnLW9tYWUnLCAnPG91dGZpbGUubWFlPic=

>  <r_lp_tautomer_probability>  (78) 
1

>  <r_epik_Ionization_Penalty>  (78) 
1.94004e-07

>  <r_epik_Ionization_Penalty_Charging>  (78) 
0

>  <r_epik_Ionization_Penalty_Neutral>  (78) 
1.94004e-07

>  <r_epik_State_Penalty>  (78) 
-0

>  <r_epik_Charging_Adjusted_Penalty>  (78) 
0

>  <i_epik_Tot_Q>  (78) 
0

>  <i_epik_Tot_abs_Q>  (78) 
0

>  <s_lp_Force_Field>  (78) 
OPLS3e

>  <r_lp_Energy>  (78) 
116.013

>  <b_lp_Chiralities_Consistent>  (78) 
1

>  <s_lp_Variant>  (78) 
15:0-1

>  <s_i_glide_gridfile>  (78) 
pfpi4k_grid

>  <i_i_glide_lignum>  (78) 
28

>  <i_i_glide_rotatable_bonds>  (78) 
3

>  <r_i_docking_score>  (78) 
-2.38602

>  <r_i_glide_ligand_efficiency>  (78) 
-0.088371

>  <r_i_glide_ligand_efficiency_sa>  (78) 
-0.265113

>  <r_i_glide_ligand_efficiency_ln>  (78) 
-0.555425

>  <r_i_glide_gscore>  (78) 
-2.38602

>  <r_i_glide_lipo>  (78) 
-0.614908

>  <r_i_glide_hbond>  (78) 
-0.014677

>  <r_i_glide_metal>  (78) 
-0

>  <r_i_glide_rewards>  (78) 
-0.855882

>  <r_i_glide_evdw>  (78) 
-19.9603

>  <r_i_glide_ecoul>  (78) 
0.649779

>  <r_i_glide_erotb>  (78) 
0

>  <r_i_glide_esite>  (78) 
0

>  <r_i_glide_emodel>  (78) 
-21.5256

>  <r_i_glide_energy>  (78) 
-19.3105

>  <r_i_glide_einternal>  (78) 
0.131392

>  <r_i_glide_intrahb_reward>  (78) 
-0

>  <i_i_glide_confnum>  (78) 
1

>  <i_i_glide_posenum>  (78) 
40

>  <r_i_glide_eff_state_penalty>  (78) 
0

>  <ligand_id>  (78) 
15

>  <original_smiles>  (78) 
COC1C2C(C)CCC(=O)C3C(C)CC2C24OC(C)=C2C2C4C3C(O)C12O

>  <smiles>  (78) 
[H]OC1([H])C2([H])C3([H])C(=O)C([H])([H])C([H])([H])C([H])(C([H])([H])[H])C4([H])C([H])(OC([H])([H])[H])C1(O[H])C1([H])C5=C(C([H])([H])[H])OC5(C4([H])C([H])([H])C3([H])C([H])([H])[H])C12[H]

$$$$
16:0:0
     RDKit          3D

 42 45  0  0  1  0  0  0  0  0999 V2000
    3.7660   -3.4857    4.4450 O   0  0  0  0  0  0  0  0  0  0  0  0
    4.2638   -4.5788    4.7134 C   0  0  0  0  0  0  0  0  0  0  0  0
    5.2514   -4.6519    5.8814 C   0  0  0  0  0  0  0  0  0  0  0  0
    6.3492   -5.6847    5.6075 C   0  0  0  0  0  0  0  0  0  0  0  0
    5.7297   -7.0522    5.3100 C   0  0  0  0  0  0  0  0  0  0  0  0
    4.6087   -6.9716    4.2826 C   0  0  0  0  0  0  0  0  0  0  0  0
    3.9389   -5.8333    3.9768 C   0  0  0  0  0  0  0  0  0  0  0  0
    2.8146   -5.7423    2.9388 C   0  0  1  0  0  0  0  0  0  0  0  0
    3.3396   -5.1601    1.6166 C   0  0  0  0  0  0  0  0  0  0  0  0
    2.7364   -4.0134    1.0560 C   0  0  0  0  0  0  0  0  0  0  0  0
    3.2547   -3.4777   -0.1354 C   0  0  0  0  0  0  0  0  0  0  0  0
    4.3767   -4.0989   -0.7166 C   0  0  0  0  0  0  0  0  0  0  0  0
    4.9931   -5.1660   -0.1720 N   0  0  0  0  0  0  0  0  0  0  0  0
    4.4792   -5.6830    0.9616 C   0  0  0  0  0  0  0  0  0  0  0  0
    2.0236   -7.0858    2.8349 C   0  0  1  0  0  0  0  0  0  0  0  0
    0.7041   -6.9960    2.0379 C   0  0  0  0  0  0  0  0  0  0  0  0
    0.5606   -6.2582    1.0660 O   0  0  0  0  0  0  0  0  0  0  0  0
   -0.4715   -7.8549    2.5130 C   0  0  0  0  0  0  0  0  0  0  0  0
   -0.0744   -9.1519    3.2417 C   0  0  0  0  0  0  0  0  0  0  0  0
    0.9658   -9.9854    2.5226 C   0  0  0  0  0  0  0  0  0  0  0  0
    2.2062   -9.6106    2.1637 C   0  0  0  0  0  0  0  0  0  0  0  0
    2.9009   -8.2725    2.3693 C   0  0  2  0  0  0  0  0  0  0  0  0
    4.2933   -8.5293    3.4989 S   0  0  0  0  0  0  0  0  0  0  0  0
    5.6887   -3.6682    6.0427 H   0  0  0  0  0  0  0  0  0  0  0  0
    4.7012   -4.9130    6.7852 H   0  0  0  0  0  0  0  0  0  0  0  0
    6.9514   -5.3621    4.7566 H   0  0  0  0  0  0  0  0  0  0  0  0
    7.0260   -5.7516    6.4608 H   0  0  0  0  0  0  0  0  0  0  0  0
    6.5020   -7.7298    4.9482 H   0  0  0  0  0  0  0  0  0  0  0  0
    5.3322   -7.4894    6.2285 H   0  0  0  0  0  0  0  0  0  0  0  0
    2.0892   -5.0289    3.3299 H   0  0  0  0  0  0  0  0  0  0  0  0
    1.8889   -3.5451    1.5361 H   0  0  0  0  0  0  0  0  0  0  0  0
    2.8031   -2.6082   -0.5944 H   0  0  0  0  0  0  0  0  0  0  0  0
    4.7983   -3.7225   -1.6358 H   0  0  0  0  0  0  0  0  0  0  0  0
    5.0148   -6.5295    1.3616 H   0  0  0  0  0  0  0  0  0  0  0  0
    1.7119   -7.3079    3.8558 H   0  0  0  0  0  0  0  0  0  0  0  0
   -1.1002   -7.2532    3.1693 H   0  0  0  0  0  0  0  0  0  0  0  0
   -1.0764   -8.1021    1.6395 H   0  0  0  0  0  0  0  0  0  0  0  0
    0.2737   -8.9510    4.2546 H   0  0  0  0  0  0  0  0  0  0  0  0
   -0.9643   -9.7720    3.3553 H   0  0  0  0  0  0  0  0  0  0  0  0
    0.6544  -10.9987    2.3066 H   0  0  0  0  0  0  0  0  0  0  0  0
    2.8285  -10.3493    1.6756 H   0  0  0  0  0  0  0  0  0  0  0  0
    3.3088   -8.0307    1.3900 H   0  0  0  0  0  0  0  0  0  0  0  0
  1  2  2  0
  2  7  1  0
  2  3  1  0
  3  4  1  0
  3 24  1  0
  3 25  1  0
  4  5  1  0
  4 26  1  0
  4 27  1  0
  5  6  1  0
  5 28  1  0
  5 29  1  0
  6 23  1  0
  6  7  2  0
  7  8  1  0
  8  9  1  0
  8 15  1  0
  8 30  1  1
  9 14  1  0
  9 10  2  0
 10 11  1  0
 10 31  1  0
 11 12  2  0
 11 32  1  0
 12 13  1  0
 12 33  1  0
 13 14  2  0
 14 34  1  0
 15 22  1  0
 15 16  1  0
 15 35  1  1
 16 17  2  0
 16 18  1  0
 18 19  1  0
 18 36  1  0
 18 37  1  0
 19 20  1  0
 19 38  1  0
 19 39  1  0
 20 21  2  0
 20 40  1  0
 21 22  1  0
 21 41  1  0
 22 23  1  0
 22 42  1  6
M  END
>  <i_m_ct_stereo_status>  (79) 
1

>  <s_m_source_file>  (79) 
/var/tmp/pbs.5076255.sched01/tmp7dv9smms/08akalw19.sdf

>  <i_m_source_file_index>  (79) 
29

>  <i_lp_mmshare_version>  (79) 
48012

>  <i_f3d_flags>  (79) 
0

>  <s_epik_input>  (79) 
W2NIXTFuW2NIXVtjSF1bY0hdYzFbQ0BIXShDKD1DMjMpQyg9TylbQ0gyXVtDSDJdW0NIMl0yKVtDQEBIXTRbQ0BASF0oUzMpW0NIXT1bQ0hdW0NIMl1bQ0gyXUM0PU8=

>  <s_epik_cmdline>  (79) 
J2VwaWtfcHl0aG9uJywgJy1waHQnLCAnMi4wJywgJy1waCcsICc3LjAnLCAnLXRuJywgJzgnLCAnLW1hJywgJzIwMCcsICctaW1hZScsICc8aW5maWxlLm1hZT4nLCAnLW9tYWUnLCAnPG91dGZpbGUubWFlPic=

>  <r_lp_tautomer_probability>  (79) 
1

>  <r_epik_Ionization_Penalty>  (79) 
0.00297985

>  <r_epik_Ionization_Penalty_Charging>  (79) 
0

>  <r_epik_Ionization_Penalty_Neutral>  (79) 
0.00297985

>  <r_epik_State_Penalty>  (79) 
0.00209127

>  <r_epik_Charging_Adjusted_Penalty>  (79) 
0.00209127

>  <i_epik_Tot_Q>  (79) 
0

>  <i_epik_Tot_abs_Q>  (79) 
0

>  <s_lp_Force_Field>  (79) 
OPLS3e

>  <r_lp_Energy>  (79) 
27.5596

>  <b_lp_Chiralities_Consistent>  (79) 
1

>  <s_lp_Variant>  (79) 
16:0-1

>  <s_i_glide_gridfile>  (79) 
pfpi4k_grid

>  <i_i_glide_lignum>  (79) 
29

>  <i_i_glide_rotatable_bonds>  (79) 
1

>  <r_i_docking_score>  (79) 
-3.22712

>  <r_i_glide_ligand_efficiency>  (79) 
-0.14031

>  <r_i_glide_ligand_efficiency_sa>  (79) 
-0.399022

>  <r_i_glide_ligand_efficiency_ln>  (79) 
-0.780348

>  <r_i_glide_gscore>  (79) 
-3.22712

>  <r_i_glide_lipo>  (79) 
-0.287676

>  <r_i_glide_hbond>  (79) 
-0.16

>  <r_i_glide_metal>  (79) 
-0

>  <r_i_glide_rewards>  (79) 
-1.19037

>  <r_i_glide_evdw>  (79) 
-22.1259

>  <r_i_glide_ecoul>  (79) 
-3.9639

>  <r_i_glide_erotb>  (79) 
0.176966

>  <r_i_glide_esite>  (79) 
-0.0651652

>  <r_i_glide_emodel>  (79) 
-31.7527

>  <r_i_glide_energy>  (79) 
-26.0898

>  <r_i_glide_einternal>  (79) 
0.0353848

>  <r_i_glide_intrahb_reward>  (79) 
-0

>  <i_i_glide_confnum>  (79) 
1

>  <i_i_glide_posenum>  (79) 
40

>  <r_i_glide_eff_state_penalty>  (79) 
0

>  <ligand_id>  (79) 
16

>  <original_smiles>  (79) 
O=C1CCCC2=C1C(c1cccnc1)C1C(=O)CCC=CC1S2

>  <smiles>  (79) 
[H]C1=C([H])C2([H])SC3=C(C(=O)C([H])([H])C([H])([H])C3([H])[H])C([H])(c3c([H])nc([H])c([H])c3[H])C2([H])C(=O)C([H])([H])C1([H])[H]

$$$$
16:0:1
     RDKit          3D

 42 45  0  0  1  0  0  0  0  0999 V2000
    4.3577   -9.1271    2.7220 O   0  0  0  0  0  0  0  0  0  0  0  0
    3.2827   -9.4221    3.2441 C   0  0  0  0  0  0  0  0  0  0  0  0
    2.8844  -10.8985    3.3020 C   0  0  0  0  0  0  0  0  0  0  0  0
    1.3684  -11.0553    3.1523 C   0  0  0  0  0  0  0  0  0  0  0  0
    0.6325  -10.2425    4.2099 C   0  0  0  0  0  0  0  0  0  0  0  0
    1.1484   -8.8154    4.2993 C   0  0  0  0  0  0  0  0  0  0  0  0
    2.3588   -8.4162    3.8385 C   0  0  0  0  0  0  0  0  0  0  0  0
    2.8789   -6.9756    3.9097 C   0  0  1  0  0  0  0  0  0  0  0  0
    2.7140   -6.2627    2.5565 C   0  0  0  0  0  0  0  0  0  0  0  0
    3.7543   -5.4557    2.0455 C   0  0  0  0  0  0  0  0  0  0  0  0
    3.5933   -4.8382    0.7948 C   0  0  0  0  0  0  0  0  0  0  0  0
    2.4050   -5.0694    0.0823 C   0  0  0  0  0  0  0  0  0  0  0  0
    1.4076   -5.8593    0.5398 N   0  0  0  0  0  0  0  0  0  0  0  0
    1.5721   -6.4445    1.7439 C   0  0  0  0  0  0  0  0  0  0  0  0
    2.3039   -6.2297    5.1564 C   0  0  1  0  0  0  0  0  0  0  0  0
    2.9960   -4.8891    5.4879 C   0  0  0  0  0  0  0  0  0  0  0  0
    3.4062   -4.1180    4.6257 O   0  0  0  0  0  0  0  0  0  0  0  0
    3.1467   -4.5059    6.9592 C   0  0  0  0  0  0  0  0  0  0  0  0
    2.0641   -5.0799    7.8908 C   0  0  0  0  0  0  0  0  0  0  0  0
    0.6411   -4.8750    7.4069 C   0  0  0  0  0  0  0  0  0  0  0  0
    0.1062   -5.3032    6.2482 C   0  0  0  0  0  0  0  0  0  0  0  0
    0.7628   -6.0878    5.1148 C   0  0  2  0  0  0  0  0  0  0  0  0
   -0.0329   -7.7107    5.0178 S   0  0  0  0  0  0  0  0  0  0  0  0
    3.4022  -11.4413    2.5121 H   0  0  0  0  0  0  0  0  0  0  0  0
    3.2162  -11.3135    4.2535 H   0  0  0  0  0  0  0  0  0  0  0  0
    1.0608  -10.7015    2.1656 H   0  0  0  0  0  0  0  0  0  0  0  0
    1.0926  -12.1101    3.2173 H   0  0  0  0  0  0  0  0  0  0  0  0
   -0.4275  -10.2235    3.9636 H   0  0  0  0  0  0  0  0  0  0  0  0
    0.7297  -10.7230    5.1861 H   0  0  0  0  0  0  0  0  0  0  0  0
    3.9502   -7.0406    4.0967 H   0  0  0  0  0  0  0  0  0  0  0  0
    4.6650   -5.3038    2.6110 H   0  0  0  0  0  0  0  0  0  0  0  0
    4.3620   -4.1989    0.3874 H   0  0  0  0  0  0  0  0  0  0  0  0
    2.2401   -4.6036   -0.8775 H   0  0  0  0  0  0  0  0  0  0  0  0
    0.7542   -7.0772    2.0598 H   0  0  0  0  0  0  0  0  0  0  0  0
    2.5405   -6.8740    6.0044 H   0  0  0  0  0  0  0  0  0  0  0  0
    4.1338   -4.8212    7.2986 H   0  0  0  0  0  0  0  0  0  0  0  0
    3.1346   -3.4164    7.0148 H   0  0  0  0  0  0  0  0  0  0  0  0
    2.2309   -6.1410    8.0753 H   0  0  0  0  0  0  0  0  0  0  0  0
    2.1575   -4.5939    8.8624 H   0  0  0  0  0  0  0  0  0  0  0  0
   -0.0011   -4.3573    8.1059 H   0  0  0  0  0  0  0  0  0  0  0  0
   -0.9432   -5.1029    6.0874 H   0  0  0  0  0  0  0  0  0  0  0  0
    0.5007   -5.5545    4.2015 H   0  0  0  0  0  0  0  0  0  0  0  0
  1  2  2  0
  2  7  1  0
  2  3  1  0
  3  4  1  0
  3 24  1  0
  3 25  1  0
  4  5  1  0
  4 26  1  0
  4 27  1  0
  5  6  1  0
  5 28  1  0
  5 29  1  0
  6 23  1  0
  6  7  2  0
  7  8  1  0
  8  9  1  0
  8 15  1  0
  8 30  1  1
  9 14  1  0
  9 10  2  0
 10 11  1  0
 10 31  1  0
 11 12  2  0
 11 32  1  0
 12 13  1  0
 12 33  1  0
 13 14  2  0
 14 34  1  0
 15 22  1  0
 15 16  1  0
 15 35  1  1
 16 17  2  0
 16 18  1  0
 18 19  1  0
 18 36  1  0
 18 37  1  0
 19 20  1  0
 19 38  1  0
 19 39  1  0
 20 21  2  0
 20 40  1  0
 21 22  1  0
 21 41  1  0
 22 23  1  0
 22 42  1  6
M  END
>  <i_m_ct_stereo_status>  (80) 
1

>  <s_m_source_file>  (80) 
/var/tmp/pbs.5076255.sched01/tmp7dv9smms/08akalw19.sdf

>  <i_m_source_file_index>  (80) 
29

>  <i_lp_mmshare_version>  (80) 
48012

>  <i_f3d_flags>  (80) 
0

>  <s_epik_input>  (80) 
W2NIXTFuW2NIXVtjSF1bY0hdYzFbQ0BIXShDKD1DMjMpQyg9TylbQ0gyXVtDSDJdW0NIMl0yKVtDQEBIXTRbQ0BASF0oUzMpW0NIXT1bQ0hdW0NIMl1bQ0gyXUM0PU8=

>  <s_epik_cmdline>  (80) 
J2VwaWtfcHl0aG9uJywgJy1waHQnLCAnMi4wJywgJy1waCcsICc3LjAnLCAnLXRuJywgJzgnLCAnLW1hJywgJzIwMCcsICctaW1hZScsICc8aW5maWxlLm1hZT4nLCAnLW9tYWUnLCAnPG91dGZpbGUubWFlPic=

>  <r_lp_tautomer_probability>  (80) 
1

>  <r_epik_Ionization_Penalty>  (80) 
0.00297985

>  <r_epik_Ionization_Penalty_Charging>  (80) 
0

>  <r_epik_Ionization_Penalty_Neutral>  (80) 
0.00297985

>  <r_epik_State_Penalty>  (80) 
0.00209127

>  <r_epik_Charging_Adjusted_Penalty>  (80) 
0.00209127

>  <i_epik_Tot_Q>  (80) 
0

>  <i_epik_Tot_abs_Q>  (80) 
0

>  <s_lp_Force_Field>  (80) 
OPLS3e

>  <r_lp_Energy>  (80) 
27.5596

>  <b_lp_Chiralities_Consistent>  (80) 
1

>  <s_lp_Variant>  (80) 
16:0-1

>  <s_i_glide_gridfile>  (80) 
pfpi4k_grid

>  <i_i_glide_lignum>  (80) 
29

>  <i_i_glide_rotatable_bonds>  (80) 
1

>  <r_i_docking_score>  (80) 
-2.95337

>  <r_i_glide_ligand_efficiency>  (80) 
-0.128407

>  <r_i_glide_ligand_efficiency_sa>  (80) 
-0.365173

>  <r_i_glide_ligand_efficiency_ln>  (80) 
-0.714151

>  <r_i_glide_gscore>  (80) 
-2.95337

>  <r_i_glide_lipo>  (80) 
-0.175955

>  <r_i_glide_hbond>  (80) 
-0.157

>  <r_i_glide_metal>  (80) 
-0

>  <r_i_glide_rewards>  (80) 
-1.19028

>  <r_i_glide_evdw>  (80) 
-19.5308

>  <r_i_glide_ecoul>  (80) 
-4.12675

>  <r_i_glide_erotb>  (80) 
0.176966

>  <r_i_glide_esite>  (80) 
-0.0115503

>  <r_i_glide_emodel>  (80) 
-28.6414

>  <r_i_glide_energy>  (80) 
-23.6575

>  <r_i_glide_einternal>  (80) 
0.227385

>  <r_i_glide_intrahb_reward>  (80) 
-0

>  <i_i_glide_confnum>  (80) 
1

>  <i_i_glide_posenum>  (80) 
7

>  <r_i_glide_eff_state_penalty>  (80) 
0

>  <ligand_id>  (80) 
16

>  <original_smiles>  (80) 
O=C1CCCC2=C1C(c1cccnc1)C1C(=O)CCC=CC1S2

>  <smiles>  (80) 
[H]C1=C([H])C2([H])SC3=C(C(=O)C([H])([H])C([H])([H])C3([H])[H])C([H])(c3c([H])nc([H])c([H])c3[H])C2([H])C(=O)C([H])([H])C1([H])[H]

$$$$
16:0:2
     RDKit          3D

 42 45  0  0  1  0  0  0  0  0999 V2000
    6.1892   -5.5697    4.9386 O   0  0  0  0  0  0  0  0  0  0  0  0
    6.2540   -6.4843    4.1177 C   0  0  0  0  0  0  0  0  0  0  0  0
    7.6395   -6.9213    3.6385 C   0  0  0  0  0  0  0  0  0  0  0  0
    7.6015   -7.3457    2.1665 C   0  0  0  0  0  0  0  0  0  0  0  0
    6.5616   -8.4502    1.9539 C   0  0  0  0  0  0  0  0  0  0  0  0
    5.2216   -8.1117    2.5926 C   0  0  0  0  0  0  0  0  0  0  0  0
    5.0589   -7.1901    3.5752 C   0  0  0  0  0  0  0  0  0  0  0  0
    3.7116   -6.8364    4.2151 C   0  0  1  0  0  0  0  0  0  0  0  0
    3.1486   -5.5324    3.6244 C   0  0  0  0  0  0  0  0  0  0  0  0
    2.7429   -4.4829    4.4779 C   0  0  0  0  0  0  0  0  0  0  0  0
    2.2685   -3.2847    3.9121 C   0  0  0  0  0  0  0  0  0  0  0  0
    2.2258   -3.1762    2.5107 C   0  0  0  0  0  0  0  0  0  0  0  0
    2.6163   -4.1647    1.6807 N   0  0  0  0  0  0  0  0  0  0  0  0
    3.0786   -5.3060    2.2315 C   0  0  0  0  0  0  0  0  0  0  0  0
    2.7451   -8.0636    4.2213 C   0  0  1  0  0  0  0  0  0  0  0  0
    1.4910   -7.8872    5.1026 C   0  0  0  0  0  0  0  0  0  0  0  0
    0.9153   -6.8071    5.2302 O   0  0  0  0  0  0  0  0  0  0  0  0
    0.9544   -9.1224    5.8294 C   0  0  0  0  0  0  0  0  0  0  0  0
    1.2498  -10.4623    5.1302 C   0  0  0  0  0  0  0  0  0  0  0  0
    0.9017  -10.5017    3.6560 C   0  0  0  0  0  0  0  0  0  0  0  0
    1.3857   -9.7016    2.6882 C   0  0  0  0  0  0  0  0  0  0  0  0
    2.3870   -8.5583    2.7979 C   0  0  2  0  0  0  0  0  0  0  0  0
    3.8790   -9.0265    1.8786 S   0  0  0  0  0  0  0  0  0  0  0  0
    8.3454   -6.1034    3.7791 H   0  0  0  0  0  0  0  0  0  0  0  0
    7.9765   -7.7502    4.2611 H   0  0  0  0  0  0  0  0  0  0  0  0
    7.3558   -6.4833    1.5439 H   0  0  0  0  0  0  0  0  0  0  0  0
    8.5882   -7.6876    1.8478 H   0  0  0  0  0  0  0  0  0  0  0  0
    6.4205   -8.6215    0.8872 H   0  0  0  0  0  0  0  0  0  0  0  0
    6.9227   -9.3885    2.3799 H   0  0  0  0  0  0  0  0  0  0  0  0
    3.9099   -6.6391    5.2699 H   0  0  0  0  0  0  0  0  0  0  0  0
    2.7981   -4.5893    5.5509 H   0  0  0  0  0  0  0  0  0  0  0  0
    1.9481   -2.4647    4.5384 H   0  0  0  0  0  0  0  0  0  0  0  0
    1.8616   -2.2733    2.0414 H   0  0  0  0  0  0  0  0  0  0  0  0
    3.4090   -6.0538    1.5273 H   0  0  0  0  0  0  0  0  0  0  0  0
    3.3072   -8.8640    4.7020 H   0  0  0  0  0  0  0  0  0  0  0  0
    1.3678   -9.1448    6.8378 H   0  0  0  0  0  0  0  0  0  0  0  0
   -0.1247   -9.0074    5.9397 H   0  0  0  0  0  0  0  0  0  0  0  0
    2.2910  -10.7581    5.2606 H   0  0  0  0  0  0  0  0  0  0  0  0
    0.6640  -11.2406    5.6213 H   0  0  0  0  0  0  0  0  0  0  0  0
    0.2139  -11.2836    3.3728 H   0  0  0  0  0  0  0  0  0  0  0  0
    1.0490   -9.8924    1.6799 H   0  0  0  0  0  0  0  0  0  0  0  0
    1.9253   -7.7336    2.2582 H   0  0  0  0  0  0  0  0  0  0  0  0
  1  2  2  0
  2  7  1  0
  2  3  1  0
  3  4  1  0
  3 24  1  0
  3 25  1  0
  4  5  1  0
  4 26  1  0
  4 27  1  0
  5  6  1  0
  5 28  1  0
  5 29  1  0
  6 23  1  0
  6  7  2  0
  7  8  1  0
  8  9  1  0
  8 15  1  0
  8 30  1  1
  9 14  1  0
  9 10  2  0
 10 11  1  0
 10 31  1  0
 11 12  2  0
 11 32  1  0
 12 13  1  0
 12 33  1  0
 13 14  2  0
 14 34  1  0
 15 22  1  0
 15 16  1  0
 15 35  1  1
 16 17  2  0
 16 18  1  0
 18 19  1  0
 18 36  1  0
 18 37  1  0
 19 20  1  0
 19 38  1  0
 19 39  1  0
 20 21  2  0
 20 40  1  0
 21 22  1  0
 21 41  1  0
 22 23  1  0
 22 42  1  6
M  END
>  <i_m_ct_stereo_status>  (81) 
1

>  <s_m_source_file>  (81) 
/var/tmp/pbs.5076255.sched01/tmp7dv9smms/08akalw19.sdf

>  <i_m_source_file_index>  (81) 
29

>  <i_lp_mmshare_version>  (81) 
48012

>  <i_f3d_flags>  (81) 
0

>  <s_epik_input>  (81) 
W2NIXTFuW2NIXVtjSF1bY0hdYzFbQ0BIXShDKD1DMjMpQyg9TylbQ0gyXVtDSDJdW0NIMl0yKVtDQEBIXTRbQ0BASF0oUzMpW0NIXT1bQ0hdW0NIMl1bQ0gyXUM0PU8=

>  <s_epik_cmdline>  (81) 
J2VwaWtfcHl0aG9uJywgJy1waHQnLCAnMi4wJywgJy1waCcsICc3LjAnLCAnLXRuJywgJzgnLCAnLW1hJywgJzIwMCcsICctaW1hZScsICc8aW5maWxlLm1hZT4nLCAnLW9tYWUnLCAnPG91dGZpbGUubWFlPic=

>  <r_lp_tautomer_probability>  (81) 
1

>  <r_epik_Ionization_Penalty>  (81) 
0.00297985

>  <r_epik_Ionization_Penalty_Charging>  (81) 
0

>  <r_epik_Ionization_Penalty_Neutral>  (81) 
0.00297985

>  <r_epik_State_Penalty>  (81) 
0.00209127

>  <r_epik_Charging_Adjusted_Penalty>  (81) 
0.00209127

>  <i_epik_Tot_Q>  (81) 
0

>  <i_epik_Tot_abs_Q>  (81) 
0

>  <s_lp_Force_Field>  (81) 
OPLS3e

>  <r_lp_Energy>  (81) 
27.5596

>  <b_lp_Chiralities_Consistent>  (81) 
1

>  <s_lp_Variant>  (81) 
16:0-1

>  <s_i_glide_gridfile>  (81) 
pfpi4k_grid

>  <i_i_glide_lignum>  (81) 
29

>  <i_i_glide_rotatable_bonds>  (81) 
1

>  <r_i_docking_score>  (81) 
-2.49197

>  <r_i_glide_ligand_efficiency>  (81) 
-0.108347

>  <r_i_glide_ligand_efficiency_sa>  (81) 
-0.308123

>  <r_i_glide_ligand_efficiency_ln>  (81) 
-0.602581

>  <r_i_glide_gscore>  (81) 
-2.49197

>  <r_i_glide_lipo>  (81) 
-0.221968

>  <r_i_glide_hbond>  (81) 
0

>  <r_i_glide_metal>  (81) 
-0

>  <r_i_glide_rewards>  (81) 
-1.19045

>  <r_i_glide_evdw>  (81) 
-21.0617

>  <r_i_glide_ecoul>  (81) 
-1.29271

>  <r_i_glide_erotb>  (81) 
0.176966

>  <r_i_glide_esite>  (81) 
-0.00952514

>  <r_i_glide_emodel>  (81) 
-26.7508

>  <r_i_glide_energy>  (81) 
-22.3545

>  <r_i_glide_einternal>  (81) 
0.000146865

>  <r_i_glide_intrahb_reward>  (81) 
-0

>  <i_i_glide_confnum>  (81) 
1

>  <i_i_glide_posenum>  (81) 
38

>  <r_i_glide_eff_state_penalty>  (81) 
0

>  <ligand_id>  (81) 
16

>  <original_smiles>  (81) 
O=C1CCCC2=C1C(c1cccnc1)C1C(=O)CCC=CC1S2

>  <smiles>  (81) 
[H]C1=C([H])C2([H])SC3=C(C(=O)C([H])([H])C([H])([H])C3([H])[H])C([H])(c3c([H])nc([H])c([H])c3[H])C2([H])C(=O)C([H])([H])C1([H])[H]

$$$$
17:0:0
     RDKit          3D

 37 41  0  0  1  0  0  0  0  0999 V2000
    3.3146   -4.3347   -0.0571 C   0  0  0  0  0  0  0  0  0  0  0  0
    3.2534   -4.1332    1.4580 C   0  0  1  0  0  0  0  0  0  0  0  0
    4.5974   -4.1602    2.0783 O   0  0  0  0  0  0  0  0  0  0  0  0
    4.1293   -3.1663    3.0548 C   0  0  1  0  0  0  0  0  0  0  0  0
    5.0415   -1.9909    3.4285 C   0  0  0  0  0  0  0  0  0  0  0  0
    4.2178   -0.6954    3.6492 C   0  0  0  0  0  0  0  0  0  0  0  0
    3.3106   -0.3043    2.4443 C   0  0  0  0  0  0  0  0  0  0  0  0
    2.8051   -1.4986    1.6422 C   0  0  0  0  0  0  0  0  0  0  0  0
    3.1778   -2.7315    1.9990 C   0  0  0  0  0  0  0  0  0  0  0  0
    3.4157   -3.9250    4.2087 C   0  0  0  0  0  0  0  0  0  0  0  0
    2.4052   -4.9324    3.6475 C   0  0  0  0  0  0  0  0  0  0  0  0
    1.5712   -5.7331    4.4461 C   0  0  0  0  0  0  0  0  0  0  0  0
    0.6702   -6.6056    3.7972 C   0  0  0  0  0  0  0  0  0  0  0  0
   -0.1876   -7.4282    4.5551 C   0  0  0  0  0  0  0  0  0  0  0  0
   -1.0874   -8.2946    3.9072 C   0  0  0  0  0  0  0  0  0  0  0  0
   -1.1374   -8.3290    2.5030 C   0  0  0  0  0  0  0  0  0  0  0  0
   -0.2864   -7.4997    1.7489 C   0  0  0  0  0  0  0  0  0  0  0  0
    0.6411   -6.6453    2.3756 C   0  0  0  0  0  0  0  0  0  0  0  0
    1.4395   -5.8620    1.6141 N   0  0  0  0  0  0  0  0  0  0  0  0
    2.3166   -5.0516    2.2471 C   0  0  0  0  0  0  0  0  0  0  0  0
    2.3537   -4.1367   -0.5319 H   0  0  0  0  0  0  0  0  0  0  0  0
    3.5866   -5.3671   -0.2877 H   0  0  0  0  0  0  0  0  0  0  0  0
    4.0671   -3.6953   -0.5220 H   0  0  0  0  0  0  0  0  0  0  0  0
    5.6415   -2.2232    4.3073 H   0  0  0  0  0  0  0  0  0  0  0  0
    5.7493   -1.7986    2.6223 H   0  0  0  0  0  0  0  0  0  0  0  0
    3.5917   -0.8326    4.5341 H   0  0  0  0  0  0  0  0  0  0  0  0
    4.8794    0.1379    3.8947 H   0  0  0  0  0  0  0  0  0  0  0  0
    2.4644    0.2892    2.7915 H   0  0  0  0  0  0  0  0  0  0  0  0
    3.8773    0.3332    1.7650 H   0  0  0  0  0  0  0  0  0  0  0  0
    2.2190   -1.3016    0.7583 H   0  0  0  0  0  0  0  0  0  0  0  0
    4.1400   -4.4607    4.8238 H   0  0  0  0  0  0  0  0  0  0  0  0
    2.8919   -3.2213    4.8552 H   0  0  0  0  0  0  0  0  0  0  0  0
    1.6203   -5.6788    5.5250 H   0  0  0  0  0  0  0  0  0  0  0  0
   -0.1449   -7.4167    5.6340 H   0  0  0  0  0  0  0  0  0  0  0  0
   -1.7186   -8.9553    4.4857 H   0  0  0  0  0  0  0  0  0  0  0  0
   -1.8090   -9.0171    2.0050 H   0  0  0  0  0  0  0  0  0  0  0  0
   -0.3232   -7.5608    0.6717 H   0  0  0  0  0  0  0  0  0  0  0  0
  2  1  1  6
  1 21  1  0
  1 22  1  0
  1 23  1  0
  2  9  1  0
  2 20  1  0
  2  3  1  0
  3  4  1  0
  4  9  1  0
  4  5  1  1
  4 10  1  0
  5  6  1  0
  5 24  1  0
  5 25  1  0
  6  7  1  0
  6 26  1  0
  6 27  1  0
  7  8  1  0
  7 28  1  0
  7 29  1  0
  8  9  2  0
  8 30  1  0
 10 11  1  0
 10 31  1  0
 10 32  1  0
 11 20  2  0
 11 12  1  0
 12 13  2  0
 12 33  1  0
 13 18  1  0
 13 14  1  0
 14 15  2  0
 14 34  1  0
 15 16  1  0
 15 35  1  0
 16 17  2  0
 16 36  1  0
 17 18  1  0
 17 37  1  0
 18 19  2  0
 19 20  1  0
M  END
>  <i_m_ct_stereo_status>  (82) 
1

>  <s_m_source_file>  (82) 
/var/tmp/pbs.5076255.sched01/tmp7dv9smms/08akalw19.sdf

>  <i_m_source_file_index>  (82) 
30

>  <i_lp_mmshare_version>  (82) 
48012

>  <i_f3d_flags>  (82) 
0

>  <s_epik_input>  (82) 
W0NIMl0xW0NIMl1bQ0gyXVtDSF09QyhbQ0BdMTIzKVtDQF0oTzIpKFtDSDNdKWM0YyhbQ0gyXTMpW2NIXWM1YyhuNClbY0hdW2NIXVtjSF1bY0hdNQ==

>  <s_epik_cmdline>  (82) 
J2VwaWtfcHl0aG9uJywgJy1waHQnLCAnMi4wJywgJy1waCcsICc3LjAnLCAnLXRuJywgJzgnLCAnLW1hJywgJzIwMCcsICctaW1hZScsICc8aW5maWxlLm1hZT4nLCAnLW9tYWUnLCAnPG91dGZpbGUubWFlPic=

>  <r_epik_Ionization_Penalty>  (82) 
0.0270643

>  <r_epik_Ionization_Penalty_Charging>  (82) 
0

>  <r_epik_Ionization_Penalty_Neutral>  (82) 
0.0270643

>  <r_epik_State_Penalty>  (82) 
0.0221299

>  <r_epik_Charging_Adjusted_Penalty>  (82) 
0.0221299

>  <i_epik_Tot_Q>  (82) 
0

>  <i_epik_Tot_abs_Q>  (82) 
0

>  <s_lp_Force_Field>  (82) 
OPLS3e

>  <r_lp_Energy>  (82) 
52.1197

>  <b_lp_Chiralities_Consistent>  (82) 
1

>  <s_lp_Variant>  (82) 
17:0-1

>  <s_i_glide_gridfile>  (82) 
pfpi4k_grid

>  <i_i_glide_lignum>  (82) 
30

>  <i_i_glide_rotatable_bonds>  (82) 
0

>  <r_i_docking_score>  (82) 
-3.14481

>  <r_i_glide_ligand_efficiency>  (82) 
-0.157241

>  <r_i_glide_ligand_efficiency_sa>  (82) 
-0.426817

>  <r_i_glide_ligand_efficiency_ln>  (82) 
-0.787043

>  <r_i_glide_gscore>  (82) 
-3.14481

>  <r_i_glide_lipo>  (82) 
-0.0968982

>  <r_i_glide_hbond>  (82) 
-0.0965876

>  <r_i_glide_metal>  (82) 
-0

>  <r_i_glide_rewards>  (82) 
-1.61363

>  <r_i_glide_evdw>  (82) 
-18.1326

>  <r_i_glide_ecoul>  (82) 
-2.87375

>  <r_i_glide_erotb>  (82) 
0

>  <r_i_glide_esite>  (82) 
0

>  <r_i_glide_emodel>  (82) 
-25.4558

>  <r_i_glide_energy>  (82) 
-21.0063

>  <r_i_glide_einternal>  (82) 
0

>  <r_i_glide_intrahb_reward>  (82) 
-0

>  <i_i_glide_confnum>  (82) 
2

>  <i_i_glide_posenum>  (82) 
12

>  <r_i_glide_eff_state_penalty>  (82) 
0

>  <ligand_id>  (82) 
17

>  <original_smiles>  (82) 
CC12OC3(CCCC=C31)Cc1cc3ccccc3nc12

>  <smiles>  (82) 
[H]C1=C2C3(C([H])([H])[H])OC2(C([H])([H])c2c3nc3c([H])c([H])c([H])c([H])c3c2[H])C([H])([H])C([H])([H])C1([H])[H]

$$$$
17:0:1
     RDKit          3D

 37 41  0  0  1  0  0  0  0  0999 V2000
   -2.1124    2.3424    3.3343 C   0  0  0  0  0  0  0  0  0  0  0  0
   -1.1175    1.4903    4.1210 C   0  0  1  0  0  0  0  0  0  0  0  0
   -1.1946    0.0539    3.7694 O   0  0  0  0  0  0  0  0  0  0  0  0
    0.2563   -0.0383    3.9745 C   0  0  1  0  0  0  0  0  0  0  0  0
    1.1096   -0.8290    2.9768 C   0  0  0  0  0  0  0  0  0  0  0  0
    2.4882   -0.1503    2.7753 C   0  0  0  0  0  0  0  0  0  0  0  0
    2.4029    1.3426    2.3426 C   0  0  0  0  0  0  0  0  0  0  0  0
    1.1751    2.0776    2.8667 C   0  0  0  0  0  0  0  0  0  0  0  0
    0.2961    1.4058    3.6215 C   0  0  0  0  0  0  0  0  0  0  0  0
    0.5019   -0.2807    5.4899 C   0  0  0  0  0  0  0  0  0  0  0  0
   -0.3008    0.7201    6.3295 C   0  0  0  0  0  0  0  0  0  0  0  0
   -0.2326    0.7948    7.7328 C   0  0  0  0  0  0  0  0  0  0  0  0
   -1.0028    1.7833    8.3795 C   0  0  0  0  0  0  0  0  0  0  0  0
   -0.9860    1.8868    9.7854 C   0  0  0  0  0  0  0  0  0  0  0  0
   -1.7695    2.8603   10.4331 C   0  0  0  0  0  0  0  0  0  0  0  0
   -2.5539    3.7436    9.6724 C   0  0  0  0  0  0  0  0  0  0  0  0
   -2.5642    3.6472    8.2696 C   0  0  0  0  0  0  0  0  0  0  0  0
   -1.8015    2.6695    7.5999 C   0  0  0  0  0  0  0  0  0  0  0  0
   -1.8582    2.5887    6.2499 N   0  0  0  0  0  0  0  0  0  0  0  0
   -1.1278    1.6293    5.6445 C   0  0  0  0  0  0  0  0  0  0  0  0
   -1.9293    3.4064    3.4688 H   0  0  0  0  0  0  0  0  0  0  0  0
   -3.1281    2.1479    3.6808 H   0  0  0  0  0  0  0  0  0  0  0  0
   -2.0861    2.1151    2.2655 H   0  0  0  0  0  0  0  0  0  0  0  0
    1.2294   -1.8656    3.2906 H   0  0  0  0  0  0  0  0  0  0  0  0
    0.6163   -0.8619    2.0046 H   0  0  0  0  0  0  0  0  0  0  0  0
    3.0516   -0.2164    3.7082 H   0  0  0  0  0  0  0  0  0  0  0  0
    3.0776   -0.7070    2.0434 H   0  0  0  0  0  0  0  0  0  0  0  0
    3.3070    1.8697    2.6445 H   0  0  0  0  0  0  0  0  0  0  0  0
    2.3595    1.3810    1.2565 H   0  0  0  0  0  0  0  0  0  0  0  0
    1.0143    3.0952    2.5388 H   0  0  0  0  0  0  0  0  0  0  0  0
    0.2084   -1.2947    5.7699 H   0  0  0  0  0  0  0  0  0  0  0  0
    1.5615   -0.1680    5.7227 H   0  0  0  0  0  0  0  0  0  0  0  0
    0.3909    0.1147    8.2980 H   0  0  0  0  0  0  0  0  0  0  0  0
   -0.3987    1.2070   10.3804 H   0  0  0  0  0  0  0  0  0  0  0  0
   -1.7765    2.9215   11.5134 H   0  0  0  0  0  0  0  0  0  0  0  0
   -3.1513    4.4927   10.1729 H   0  0  0  0  0  0  0  0  0  0  0  0
   -3.1699    4.3304    7.6999 H   0  0  0  0  0  0  0  0  0  0  0  0
  2  1  1  6
  1 21  1  0
  1 22  1  0
  1 23  1  0
  2  9  1  0
  2 20  1  0
  2  3  1  0
  3  4  1  0
  4  9  1  0
  4  5  1  6
  4 10  1  0
  5  6  1  0
  5 24  1  0
  5 25  1  0
  6  7  1  0
  6 26  1  0
  6 27  1  0
  7  8  1  0
  7 28  1  0
  7 29  1  0
  8  9  2  0
  8 30  1  0
 10 11  1  0
 10 31  1  0
 10 32  1  0
 11 20  2  0
 11 12  1  0
 12 13  2  0
 12 33  1  0
 13 18  1  0
 13 14  1  0
 14 15  2  0
 14 34  1  0
 15 16  1  0
 15 35  1  0
 16 17  2  0
 16 36  1  0
 17 18  1  0
 17 37  1  0
 18 19  2  0
 19 20  1  0
M  END
>  <i_m_ct_stereo_status>  (83) 
1

>  <s_m_source_file>  (83) 
/var/tmp/pbs.5076255.sched01/tmp7dv9smms/08akalw19.sdf

>  <i_m_source_file_index>  (83) 
30

>  <i_lp_mmshare_version>  (83) 
48012

>  <i_f3d_flags>  (83) 
0

>  <s_epik_input>  (83) 
W0NIMl0xW0NIMl1bQ0gyXVtDSF09QyhbQ0BdMTIzKVtDQF0oTzIpKFtDSDNdKWM0YyhbQ0gyXTMpW2NIXWM1YyhuNClbY0hdW2NIXVtjSF1bY0hdNQ==

>  <s_epik_cmdline>  (83) 
J2VwaWtfcHl0aG9uJywgJy1waHQnLCAnMi4wJywgJy1waCcsICc3LjAnLCAnLXRuJywgJzgnLCAnLW1hJywgJzIwMCcsICctaW1hZScsICc8aW5maWxlLm1hZT4nLCAnLW9tYWUnLCAnPG91dGZpbGUubWFlPic=

>  <r_epik_Ionization_Penalty>  (83) 
0.0270643

>  <r_epik_Ionization_Penalty_Charging>  (83) 
0

>  <r_epik_Ionization_Penalty_Neutral>  (83) 
0.0270643

>  <r_epik_State_Penalty>  (83) 
0.0221299

>  <r_epik_Charging_Adjusted_Penalty>  (83) 
0.0221299

>  <i_epik_Tot_Q>  (83) 
0

>  <i_epik_Tot_abs_Q>  (83) 
0

>  <s_lp_Force_Field>  (83) 
OPLS3e

>  <r_lp_Energy>  (83) 
52.1197

>  <b_lp_Chiralities_Consistent>  (83) 
1

>  <s_lp_Variant>  (83) 
17:0-1

>  <s_i_glide_gridfile>  (83) 
pfpi4k_grid

>  <i_i_glide_lignum>  (83) 
30

>  <i_i_glide_rotatable_bonds>  (83) 
0

>  <r_i_docking_score>  (83) 
-2.92479

>  <r_i_glide_ligand_efficiency>  (83) 
-0.14624

>  <r_i_glide_ligand_efficiency_sa>  (83) 
-0.396955

>  <r_i_glide_ligand_efficiency_ln>  (83) 
-0.731979

>  <r_i_glide_gscore>  (83) 
-2.92479

>  <r_i_glide_lipo>  (83) 
-0.126737

>  <r_i_glide_hbond>  (83) 
0

>  <r_i_glide_metal>  (83) 
-0

>  <r_i_glide_rewards>  (83) 
-1.61363

>  <r_i_glide_evdw>  (83) 
-19.0822

>  <r_i_glide_ecoul>  (83) 
-1.53541

>  <r_i_glide_erotb>  (83) 
0

>  <r_i_glide_esite>  (83) 
0

>  <r_i_glide_emodel>  (83) 
-24.7621

>  <r_i_glide_energy>  (83) 
-20.6176

>  <r_i_glide_einternal>  (83) 
0

>  <r_i_glide_intrahb_reward>  (83) 
-0

>  <i_i_glide_confnum>  (83) 
1

>  <i_i_glide_posenum>  (83) 
1

>  <r_i_glide_eff_state_penalty>  (83) 
0

>  <ligand_id>  (83) 
17

>  <original_smiles>  (83) 
CC12OC3(CCCC=C31)Cc1cc3ccccc3nc12

>  <smiles>  (83) 
[H]C1=C2C3(C([H])([H])[H])OC2(C([H])([H])c2c3nc3c([H])c([H])c([H])c([H])c3c2[H])C([H])([H])C([H])([H])C1([H])[H]

$$$$
17:0:2
     RDKit          3D

 37 41  0  0  1  0  0  0  0  0999 V2000
    1.7418   -5.7242    5.5663 C   0  0  0  0  0  0  0  0  0  0  0  0
    1.6351   -6.2919    4.1523 C   0  0  1  0  0  0  0  0  0  0  0  0
    2.2477   -7.6369    4.0419 O   0  0  0  0  0  0  0  0  0  0  0  0
    1.2153   -7.9882    3.0550 C   0  0  1  0  0  0  0  0  0  0  0  0
    0.5378   -9.3595    3.1287 C   0  0  0  0  0  0  0  0  0  0  0  0
   -0.9575   -9.2527    2.7415 C   0  0  0  0  0  0  0  0  0  0  0  0
   -1.7622   -8.2169    3.5843 C   0  0  0  0  0  0  0  0  0  0  0  0
   -0.9327   -7.0355    4.0647 C   0  0  0  0  0  0  0  0  0  0  0  0
    0.3650   -6.9822    3.7471 C   0  0  0  0  0  0  0  0  0  0  0  0
    1.6977   -7.4933    1.6629 C   0  0  0  0  0  0  0  0  0  0  0  0
    2.1602   -6.0335    1.7476 C   0  0  0  0  0  0  0  0  0  0  0  0
    2.6196   -5.2926    0.6448 C   0  0  0  0  0  0  0  0  0  0  0  0
    3.0131   -3.9529    0.8540 C   0  0  0  0  0  0  0  0  0  0  0  0
    3.4856   -3.1753   -0.2222 C   0  0  0  0  0  0  0  0  0  0  0  0
    3.8762   -1.8380   -0.0131 C   0  0  0  0  0  0  0  0  0  0  0  0
    3.7884   -1.2802    1.2742 C   0  0  0  0  0  0  0  0  0  0  0  0
    3.3161   -2.0568    2.3495 C   0  0  0  0  0  0  0  0  0  0  0  0
    2.9227   -3.3993    2.1635 C   0  0  0  0  0  0  0  0  0  0  0  0
    2.4784   -4.1224    3.2183 N   0  0  0  0  0  0  0  0  0  0  0  0
    2.1362   -5.4113    3.0073 C   0  0  0  0  0  0  0  0  0  0  0  0
    1.1430   -4.8214    5.6836 H   0  0  0  0  0  0  0  0  0  0  0  0
    2.7768   -5.4590    5.7857 H   0  0  0  0  0  0  0  0  0  0  0  0
    1.4314   -6.4487    6.3211 H   0  0  0  0  0  0  0  0  0  0  0  0
    1.0508  -10.0915    2.5045 H   0  0  0  0  0  0  0  0  0  0  0  0
    0.5869   -9.7473    4.1459 H   0  0  0  0  0  0  0  0  0  0  0  0
   -1.0265   -8.9896    1.6834 H   0  0  0  0  0  0  0  0  0  0  0  0
   -1.4275  -10.2337    2.8195 H   0  0  0  0  0  0  0  0  0  0  0  0
   -2.6107   -7.8581    3.0063 H   0  0  0  0  0  0  0  0  0  0  0  0
   -2.1628   -8.7080    4.4691 H   0  0  0  0  0  0  0  0  0  0  0  0
   -1.4056   -6.3098    4.7116 H   0  0  0  0  0  0  0  0  0  0  0  0
    2.5247   -8.1090    1.3010 H   0  0  0  0  0  0  0  0  0  0  0  0
    0.8907   -7.5712    0.9342 H   0  0  0  0  0  0  0  0  0  0  0  0
    2.6798   -5.7483   -0.3279 H   0  0  0  0  0  0  0  0  0  0  0  0
    3.5416   -3.5991   -1.2127 H   0  0  0  0  0  0  0  0  0  0  0  0
    4.2220   -1.2397   -0.8427 H   0  0  0  0  0  0  0  0  0  0  0  0
    4.0792   -0.2510    1.4345 H   0  0  0  0  0  0  0  0  0  0  0  0
    3.2530   -1.6187    3.3338 H   0  0  0  0  0  0  0  0  0  0  0  0
  2  1  1  1
  1 21  1  0
  1 22  1  0
  1 23  1  0
  2  9  1  0
  2 20  1  0
  2  3  1  0
  3  4  1  0
  4  9  1  0
  4  5  1  6
  4 10  1  0
  5  6  1  0
  5 24  1  0
  5 25  1  0
  6  7  1  0
  6 26  1  0
  6 27  1  0
  7  8  1  0
  7 28  1  0
  7 29  1  0
  8  9  2  0
  8 30  1  0
 10 11  1  0
 10 31  1  0
 10 32  1  0
 11 20  2  0
 11 12  1  0
 12 13  2  0
 12 33  1  0
 13 18  1  0
 13 14  1  0
 14 15  2  0
 14 34  1  0
 15 16  1  0
 15 35  1  0
 16 17  2  0
 16 36  1  0
 17 18  1  0
 17 37  1  0
 18 19  2  0
 19 20  1  0
M  END
>  <i_m_ct_stereo_status>  (84) 
1

>  <s_m_source_file>  (84) 
/var/tmp/pbs.5076255.sched01/tmp7dv9smms/08akalw19.sdf

>  <i_m_source_file_index>  (84) 
30

>  <i_lp_mmshare_version>  (84) 
48012

>  <i_f3d_flags>  (84) 
0

>  <s_epik_input>  (84) 
W0NIMl0xW0NIMl1bQ0gyXVtDSF09QyhbQ0BdMTIzKVtDQF0oTzIpKFtDSDNdKWM0YyhbQ0gyXTMpW2NIXWM1YyhuNClbY0hdW2NIXVtjSF1bY0hdNQ==

>  <s_epik_cmdline>  (84) 
J2VwaWtfcHl0aG9uJywgJy1waHQnLCAnMi4wJywgJy1waCcsICc3LjAnLCAnLXRuJywgJzgnLCAnLW1hJywgJzIwMCcsICctaW1hZScsICc8aW5maWxlLm1hZT4nLCAnLW9tYWUnLCAnPG91dGZpbGUubWFlPic=

>  <r_epik_Ionization_Penalty>  (84) 
0.0270643

>  <r_epik_Ionization_Penalty_Charging>  (84) 
0

>  <r_epik_Ionization_Penalty_Neutral>  (84) 
0.0270643

>  <r_epik_State_Penalty>  (84) 
0.0221299

>  <r_epik_Charging_Adjusted_Penalty>  (84) 
0.0221299

>  <i_epik_Tot_Q>  (84) 
0

>  <i_epik_Tot_abs_Q>  (84) 
0

>  <s_lp_Force_Field>  (84) 
OPLS3e

>  <r_lp_Energy>  (84) 
52.1197

>  <b_lp_Chiralities_Consistent>  (84) 
1

>  <s_lp_Variant>  (84) 
17:0-1

>  <s_i_glide_gridfile>  (84) 
pfpi4k_grid

>  <i_i_glide_lignum>  (84) 
30

>  <i_i_glide_rotatable_bonds>  (84) 
0

>  <r_i_docking_score>  (84) 
-2.787

>  <r_i_glide_ligand_efficiency>  (84) 
-0.13935

>  <r_i_glide_ligand_efficiency_sa>  (84) 
-0.378254

>  <r_i_glide_ligand_efficiency_ln>  (84) 
-0.697494

>  <r_i_glide_gscore>  (84) 
-2.787

>  <r_i_glide_lipo>  (84) 
-0.0495009

>  <r_i_glide_hbond>  (84) 
0

>  <r_i_glide_metal>  (84) 
-0

>  <r_i_glide_rewards>  (84) 
-1.61363

>  <r_i_glide_evdw>  (84) 
-20.1304

>  <r_i_glide_ecoul>  (84) 
-0.782285

>  <r_i_glide_erotb>  (84) 
0

>  <r_i_glide_esite>  (84) 
0

>  <r_i_glide_emodel>  (84) 
-24.8474

>  <r_i_glide_energy>  (84) 
-20.9127

>  <r_i_glide_einternal>  (84) 
0

>  <r_i_glide_intrahb_reward>  (84) 
-0

>  <i_i_glide_confnum>  (84) 
2

>  <i_i_glide_posenum>  (84) 
35

>  <r_i_glide_eff_state_penalty>  (84) 
0

>  <ligand_id>  (84) 
17

>  <original_smiles>  (84) 
CC12OC3(CCCC=C31)Cc1cc3ccccc3nc12

>  <smiles>  (84) 
[H]C1=C2C3(C([H])([H])[H])OC2(C([H])([H])c2c3nc3c([H])c([H])c([H])c([H])c3c2[H])C([H])([H])C([H])([H])C1([H])[H]

$$$$
17:1:0
     RDKit          3D

 38 42  0  0  1  0  0  0  0  0999 V2000
   -1.6333    0.0888    4.6038 C   0  0  0  0  0  0  0  0  0  0  0  0
   -0.7251    1.3043    4.4351 C   0  0  1  0  0  0  0  0  0  0  0  0
   -0.0687    1.6886    5.7013 O   0  0  0  0  0  0  0  0  0  0  0  0
    1.1065    2.1264    4.9264 C   0  0  1  0  0  0  0  0  0  0  0  0
    2.5182    1.7673    5.4160 C   0  0  0  0  0  0  0  0  0  0  0  0
    3.4577    1.4505    4.2242 C   0  0  0  0  0  0  0  0  0  0  0  0
    2.9267    0.3345    3.2741 C   0  0  0  0  0  0  0  0  0  0  0  0
    1.4034    0.2663    3.1873 C   0  0  0  0  0  0  0  0  0  0  0  0
    0.6715    1.1192    3.9160 C   0  0  0  0  0  0  0  0  0  0  0  0
    0.8482    3.5828    4.4545 C   0  0  0  0  0  0  0  0  0  0  0  0
   -0.5504    3.7066    3.8529 C   0  0  0  0  0  0  0  0  0  0  0  0
   -1.0422    4.8976    3.2801 C   0  0  0  0  0  0  0  0  0  0  0  0
   -2.3429    4.8718    2.7004 C   0  0  0  0  0  0  0  0  0  0  0  0
   -2.8816    6.0182    2.0790 C   0  0  0  0  0  0  0  0  0  0  0  0
   -4.1950    6.0128    1.5420 C   0  0  0  0  0  0  0  0  0  0  0  0
   -4.9283    4.8214    1.5408 C   0  0  0  0  0  0  0  0  0  0  0  0
   -4.3725    3.6415    2.0829 C   0  0  0  0  0  0  0  0  0  0  0  0
   -3.0887    3.6543    2.6692 C   0  0  0  0  0  0  0  0  0  0  0  0
   -2.5688    2.5468    3.2325 N   0  0  0  0  0  0  0  0  0  0  0  0
   -1.3533    2.5420    3.8193 C   0  0  0  0  0  0  0  0  0  0  0  0
   -1.9837   -0.2914    3.6564 H   0  0  0  0  0  0  0  0  0  0  0  0
   -2.5182    0.3451    5.1745 H   0  0  0  0  0  0  0  0  0  0  0  0
   -1.1512   -0.7315    5.1242 H   0  0  0  0  0  0  0  0  0  0  0  0
    2.9352    2.5588    6.0374 H   0  0  0  0  0  0  0  0  0  0  0  0
    2.4782    0.8821    6.0511 H   0  0  0  0  0  0  0  0  0  0  0  0
    3.5992    2.3669    3.6532 H   0  0  0  0  0  0  0  0  0  0  0  0
    4.4532    1.1861    4.5826 H   0  0  0  0  0  0  0  0  0  0  0  0
    3.3541    0.4588    2.2794 H   0  0  0  0  0  0  0  0  0  0  0  0
    3.2767   -0.6311    3.6375 H   0  0  0  0  0  0  0  0  0  0  0  0
    0.9574   -0.5213    2.5916 H   0  0  0  0  0  0  0  0  0  0  0  0
    0.9267    4.2806    5.2825 H   0  0  0  0  0  0  0  0  0  0  0  0
    1.5938    3.8839    3.7193 H   0  0  0  0  0  0  0  0  0  0  0  0
   -0.4377    5.7999    3.2484 H   0  0  0  0  0  0  0  0  0  0  0  0
   -2.3188    6.9405    2.0257 H   0  0  0  0  0  0  0  0  0  0  0  0
   -4.6060    6.8892    1.0775 H   0  0  0  0  0  0  0  0  0  0  0  0
   -5.9144    4.8111    1.1039 H   0  0  0  0  0  0  0  0  0  0  0  0
   -4.9590    2.7348    2.0806 H   0  0  0  0  0  0  0  0  0  0  0  0
   -3.1156    1.6631    3.1937 H   0  0  0  0  0  0  0  0  0  0  0  0
  2  1  1  1
  1 21  1  0
  1 22  1  0
  1 23  1  0
  2  9  1  0
  2 20  1  0
  2  3  1  0
  3  4  1  0
  4  9  1  0
  4  5  1  1
  4 10  1  0
  5  6  1  0
  5 24  1  0
  5 25  1  0
  6  7  1  0
  6 26  1  0
  6 27  1  0
  7  8  1  0
  7 28  1  0
  7 29  1  0
  8  9  2  0
  8 30  1  0
 10 11  1  0
 10 31  1  0
 10 32  1  0
 11 20  2  0
 11 12  1  0
 12 13  2  0
 12 33  1  0
 13 18  1  0
 13 14  1  0
 14 15  2  0
 14 34  1  0
 15 16  1  0
 15 35  1  0
 16 17  2  0
 16 36  1  0
 17 18  1  0
 17 37  1  0
 18 19  2  0
 19 20  1  0
 19 38  1  0
M  CHG  1  19   1
M  END
>  <i_m_ct_stereo_status>  (85) 
1

>  <s_m_source_file>  (85) 
/var/tmp/pbs.5076255.sched01/tmp7dv9smms/08akalw19.sdf

>  <i_m_source_file_index>  (85) 
31

>  <i_lp_mmshare_version>  (85) 
48012

>  <i_f3d_flags>  (85) 
0

>  <s_epik_input>  (85) 
W0NIMl0xW0NIMl1bQ0gyXVtDSF09QyhbQ0BdMTIzKVtDQF0oTzIpKFtDSDNdKWM0YyhbQ0gyXTMpW2NIXWM1YyhuNClbY0hdW2NIXVtjSF1bY0hdNQ==

>  <s_epik_cmdline>  (85) 
J2VwaWtfcHl0aG9uJywgJy1waHQnLCAnMi4wJywgJy1waCcsICc3LjAnLCAnLXRuJywgJzgnLCAnLW1hJywgJzIwMCcsICctaW1hZScsICc8aW5maWxlLm1hZT4nLCAnLW9tYWUnLCAnPG91dGZpbGUubWFlPic=

>  <r_epik_Ionization_Penalty>  (85) 
1.84196

>  <r_epik_Ionization_Penalty_Charging>  (85) 
1.84196

>  <r_epik_Ionization_Penalty_Neutral>  (85) 
9.34064e-15

>  <r_epik_State_Penalty>  (85) 
1.95877

>  <r_epik_Charging_Adjusted_Penalty>  (85) 
3.80072

>  <i_epik_Tot_Q>  (85) 
1

>  <i_epik_Tot_abs_Q>  (85) 
1

>  <s_lp_Force_Field>  (85) 
OPLS3e

>  <r_lp_Energy>  (85) 
56.0376

>  <b_lp_Chiralities_Consistent>  (85) 
1

>  <s_lp_Variant>  (85) 
17:0-2

>  <s_i_glide_gridfile>  (85) 
pfpi4k_grid

>  <i_i_glide_lignum>  (85) 
31

>  <i_i_glide_rotatable_bonds>  (85) 
0

>  <r_i_docking_score>  (85) 
-3.40777

>  <r_i_glide_ligand_efficiency>  (85) 
-0.170389

>  <r_i_glide_ligand_efficiency_sa>  (85) 
-0.462506

>  <r_i_glide_ligand_efficiency_ln>  (85) 
-0.852852

>  <r_i_glide_gscore>  (85) 
-3.40777

>  <r_i_glide_lipo>  (85) 
-0.512977

>  <r_i_glide_hbond>  (85) 
0

>  <r_i_glide_metal>  (85) 
-0

>  <r_i_glide_rewards>  (85) 
-1.60676

>  <r_i_glide_evdw>  (85) 
-7.0096

>  <r_i_glide_ecoul>  (85) 
-6.0201

>  <r_i_glide_erotb>  (85) 
0

>  <r_i_glide_esite>  (85) 
-0.0345358

>  <r_i_glide_emodel>  (85) 
-17.9657

>  <r_i_glide_energy>  (85) 
-13.0297

>  <r_i_glide_einternal>  (85) 
0

>  <r_i_glide_intrahb_reward>  (85) 
-0

>  <i_i_glide_confnum>  (85) 
1

>  <i_i_glide_posenum>  (85) 
3

>  <r_i_glide_eff_state_penalty>  (85) 
0

>  <ligand_id>  (85) 
17

>  <original_smiles>  (85) 
CC12OC3(CCCC=C31)Cc1cc3ccccc3nc12

>  <smiles>  (85) 
[H]C1=C2C3(C([H])([H])[H])OC2(C([H])([H])c2c([H])c4c([H])c([H])c([H])c([H])c4[n+]([H])c23)C([H])([H])C([H])([H])C1([H])[H]

$$$$
17:1:1
     RDKit          3D

 38 42  0  0  1  0  0  0  0  0999 V2000
    6.5681   -3.7310    0.5590 C   0  0  0  0  0  0  0  0  0  0  0  0
    5.5496   -2.5942    0.4775 C   0  0  1  0  0  0  0  0  0  0  0  0
    6.0791   -1.3986   -0.2147 O   0  0  0  0  0  0  0  0  0  0  0  0
    4.7245   -1.1431   -0.7282 C   0  0  1  0  0  0  0  0  0  0  0  0
    4.5519   -0.7309   -2.1946 C   0  0  0  0  0  0  0  0  0  0  0  0
    3.2773   -1.3590   -2.8132 C   0  0  0  0  0  0  0  0  0  0  0  0
    3.2085   -2.9090   -2.6894 C   0  0  0  0  0  0  0  0  0  0  0  0
    3.9154   -3.4597   -1.4535 C   0  0  0  0  0  0  0  0  0  0  0  0
    4.5248   -2.6106   -0.6163 C   0  0  0  0  0  0  0  0  0  0  0  0
    3.9319   -0.3572    0.3584 C   0  0  0  0  0  0  0  0  0  0  0  0
    4.0728   -1.0307    1.7257 C   0  0  0  0  0  0  0  0  0  0  0  0
    3.4195   -0.5733    2.8874 C   0  0  0  0  0  0  0  0  0  0  0  0
    3.6070   -1.2967    4.0876 C   0  0  0  0  0  0  0  0  0  0  0  0
    2.9913   -0.8812    5.2863 C   0  0  0  0  0  0  0  0  0  0  0  0
    3.1909   -1.6142    6.4736 C   0  0  0  0  0  0  0  0  0  0  0  0
    4.0042   -2.7643    6.4683 C   0  0  0  0  0  0  0  0  0  0  0  0
    4.6227   -3.1894    5.2782 C   0  0  0  0  0  0  0  0  0  0  0  0
    4.4285   -2.4575    4.0902 C   0  0  0  0  0  0  0  0  0  0  0  0
    5.0292   -2.8531    2.9448 N   0  0  0  0  0  0  0  0  0  0  0  0
    4.8939   -2.1719    1.7878 C   0  0  0  0  0  0  0  0  0  0  0  0
    6.1146   -4.6578    0.9151 H   0  0  0  0  0  0  0  0  0  0  0  0
    7.3657   -3.4671    1.2573 H   0  0  0  0  0  0  0  0  0  0  0  0
    7.0428   -3.9279   -0.4053 H   0  0  0  0  0  0  0  0  0  0  0  0
    4.5383    0.3495   -2.3172 H   0  0  0  0  0  0  0  0  0  0  0  0
    5.4061   -1.0919   -2.7622 H   0  0  0  0  0  0  0  0  0  0  0  0
    2.4144   -0.9196   -2.3177 H   0  0  0  0  0  0  0  0  0  0  0  0
    3.1733   -1.0628   -3.8598 H   0  0  0  0  0  0  0  0  0  0  0  0
    2.1687   -3.2363   -2.7040 H   0  0  0  0  0  0  0  0  0  0  0  0
    3.6827   -3.3549   -3.5638 H   0  0  0  0  0  0  0  0  0  0  0  0
    3.9680   -4.5318   -1.3349 H   0  0  0  0  0  0  0  0  0  0  0  0
    4.2909    0.6680    0.4521 H   0  0  0  0  0  0  0  0  0  0  0  0
    2.8737   -0.3146    0.0966 H   0  0  0  0  0  0  0  0  0  0  0  0
    2.7934    0.3122    2.8543 H   0  0  0  0  0  0  0  0  0  0  0  0
    2.3705   -0.0003    5.3054 H   0  0  0  0  0  0  0  0  0  0  0  0
    2.7223   -1.2947    7.3931 H   0  0  0  0  0  0  0  0  0  0  0  0
    4.1562   -3.3241    7.3799 H   0  0  0  0  0  0  0  0  0  0  0  0
    5.2445   -4.0716    5.2929 H   0  0  0  0  0  0  0  0  0  0  0  0
    5.6074   -3.6914    2.9508 H   0  0  0  0  0  0  0  0  0  0  0  0
  2  1  1  1
  1 21  1  0
  1 22  1  0
  1 23  1  0
  2  9  1  0
  2 20  1  0
  2  3  1  0
  3  4  1  0
  4  9  1  0
  4  5  1  6
  4 10  1  0
  5  6  1  0
  5 24  1  0
  5 25  1  0
  6  7  1  0
  6 26  1  0
  6 27  1  0
  7  8  1  0
  7 28  1  0
  7 29  1  0
  8  9  2  0
  8 30  1  0
 10 11  1  0
 10 31  1  0
 10 32  1  0
 11 20  2  0
 11 12  1  0
 12 13  2  0
 12 33  1  0
 13 18  1  0
 13 14  1  0
 14 15  2  0
 14 34  1  0
 15 16  1  0
 15 35  1  0
 16 17  2  0
 16 36  1  0
 17 18  1  0
 17 37  1  0
 18 19  2  0
 19 20  1  0
 19 38  1  0
M  CHG  1  19   1
M  END
>  <i_m_ct_stereo_status>  (86) 
1

>  <s_m_source_file>  (86) 
/var/tmp/pbs.5076255.sched01/tmp7dv9smms/08akalw19.sdf

>  <i_m_source_file_index>  (86) 
31

>  <i_lp_mmshare_version>  (86) 
48012

>  <i_f3d_flags>  (86) 
0

>  <s_epik_input>  (86) 
W0NIMl0xW0NIMl1bQ0gyXVtDSF09QyhbQ0BdMTIzKVtDQF0oTzIpKFtDSDNdKWM0YyhbQ0gyXTMpW2NIXWM1YyhuNClbY0hdW2NIXVtjSF1bY0hdNQ==

>  <s_epik_cmdline>  (86) 
J2VwaWtfcHl0aG9uJywgJy1waHQnLCAnMi4wJywgJy1waCcsICc3LjAnLCAnLXRuJywgJzgnLCAnLW1hJywgJzIwMCcsICctaW1hZScsICc8aW5maWxlLm1hZT4nLCAnLW9tYWUnLCAnPG91dGZpbGUubWFlPic=

>  <r_epik_Ionization_Penalty>  (86) 
1.84196

>  <r_epik_Ionization_Penalty_Charging>  (86) 
1.84196

>  <r_epik_Ionization_Penalty_Neutral>  (86) 
9.34064e-15

>  <r_epik_State_Penalty>  (86) 
1.95877

>  <r_epik_Charging_Adjusted_Penalty>  (86) 
3.80072

>  <i_epik_Tot_Q>  (86) 
1

>  <i_epik_Tot_abs_Q>  (86) 
1

>  <s_lp_Force_Field>  (86) 
OPLS3e

>  <r_lp_Energy>  (86) 
56.0376

>  <b_lp_Chiralities_Consistent>  (86) 
1

>  <s_lp_Variant>  (86) 
17:0-2

>  <s_i_glide_gridfile>  (86) 
pfpi4k_grid

>  <i_i_glide_lignum>  (86) 
31

>  <i_i_glide_rotatable_bonds>  (86) 
0

>  <r_i_docking_score>  (86) 
-3.25444

>  <r_i_glide_ligand_efficiency>  (86) 
-0.162722

>  <r_i_glide_ligand_efficiency_sa>  (86) 
-0.441695

>  <r_i_glide_ligand_efficiency_ln>  (86) 
-0.814479

>  <r_i_glide_gscore>  (86) 
-3.25444

>  <r_i_glide_lipo>  (86) 
-0.300847

>  <r_i_glide_hbond>  (86) 
-0.0177719

>  <r_i_glide_metal>  (86) 
-0

>  <r_i_glide_rewards>  (86) 
-1.60676

>  <r_i_glide_evdw>  (86) 
-16.7259

>  <r_i_glide_ecoul>  (86) 
-3.28508

>  <r_i_glide_erotb>  (86) 
0

>  <r_i_glide_esite>  (86) 
0

>  <r_i_glide_emodel>  (86) 
-24.8124

>  <r_i_glide_energy>  (86) 
-20.011

>  <r_i_glide_einternal>  (86) 
0

>  <r_i_glide_intrahb_reward>  (86) 
-0

>  <i_i_glide_confnum>  (86) 
2

>  <i_i_glide_posenum>  (86) 
30

>  <r_i_glide_eff_state_penalty>  (86) 
0

>  <ligand_id>  (86) 
17

>  <original_smiles>  (86) 
CC12OC3(CCCC=C31)Cc1cc3ccccc3nc12

>  <smiles>  (86) 
[H]C1=C2C3(C([H])([H])[H])OC2(C([H])([H])c2c([H])c4c([H])c([H])c([H])c([H])c4[n+]([H])c23)C([H])([H])C([H])([H])C1([H])[H]

$$$$
17:1:2
     RDKit          3D

 38 42  0  0  1  0  0  0  0  0999 V2000
   -1.8159    4.1442    3.5450 C   0  0  0  0  0  0  0  0  0  0  0  0
   -0.8678    3.8222    4.6952 C   0  0  1  0  0  0  0  0  0  0  0  0
   -0.3733    5.0385    5.3826 O   0  0  0  0  0  0  0  0  0  0  0  0
   -0.3466    4.2722    6.6391 C   0  0  1  0  0  0  0  0  0  0  0  0
   -0.8510    4.9331    7.9273 C   0  0  0  0  0  0  0  0  0  0  0  0
   -1.6052    3.9096    8.8150 C   0  0  0  0  0  0  0  0  0  0  0  0
   -2.7757    3.1743    8.0937 C   0  0  0  0  0  0  0  0  0  0  0  0
   -2.5606    2.9885    6.5963 C   0  0  0  0  0  0  0  0  0  0  0  0
   -1.4376    3.4590    6.0368 C   0  0  0  0  0  0  0  0  0  0  0  0
    1.0001    3.4934    6.7072 C   0  0  0  0  0  0  0  0  0  0  0  0
    1.2544    2.7395    5.3953 C   0  0  0  0  0  0  0  0  0  0  0  0
    2.3689    1.8987    5.1790 C   0  0  0  0  0  0  0  0  0  0  0  0
    2.4786    1.2415    3.9319 C   0  0  0  0  0  0  0  0  0  0  0  0
    3.5748    0.3962    3.6581 C   0  0  0  0  0  0  0  0  0  0  0  0
    3.6696   -0.2508    2.4088 C   0  0  0  0  0  0  0  0  0  0  0  0
    2.6702   -0.0589    1.4369 C   0  0  0  0  0  0  0  0  0  0  0  0
    1.5746    0.7826    1.6978 C   0  0  0  0  0  0  0  0  0  0  0  0
    1.4795    1.4395    2.9397 C   0  0  0  0  0  0  0  0  0  0  0  0
    0.4383    2.2584    3.1931 N   0  0  0  0  0  0  0  0  0  0  0  0
    0.3087    2.9117    4.3679 C   0  0  0  0  0  0  0  0  0  0  0  0
   -2.3031    3.2483    3.1588 H   0  0  0  0  0  0  0  0  0  0  0  0
   -1.2654    4.6075    2.7249 H   0  0  0  0  0  0  0  0  0  0  0  0
   -2.5839    4.8522    3.8386 H   0  0  0  0  0  0  0  0  0  0  0  0
   -0.0377    5.4055    8.4792 H   0  0  0  0  0  0  0  0  0  0  0  0
   -1.5436    5.7385    7.6913 H   0  0  0  0  0  0  0  0  0  0  0  0
   -0.8871    3.1674    9.1715 H   0  0  0  0  0  0  0  0  0  0  0  0
   -1.9808    4.3970    9.7176 H   0  0  0  0  0  0  0  0  0  0  0  0
   -2.9538    2.2110    8.5701 H   0  0  0  0  0  0  0  0  0  0  0  0
   -3.6881    3.7514    8.2297 H   0  0  0  0  0  0  0  0  0  0  0  0
   -3.3641    2.5581    6.0190 H   0  0  0  0  0  0  0  0  0  0  0  0
    1.8312    4.1772    6.8959 H   0  0  0  0  0  0  0  0  0  0  0  0
    0.9763    2.7788    7.5308 H   0  0  0  0  0  0  0  0  0  0  0  0
    3.1170    1.7630    5.9499 H   0  0  0  0  0  0  0  0  0  0  0  0
    4.3483    0.2451    4.3931 H   0  0  0  0  0  0  0  0  0  0  0  0
    4.5094   -0.8972    2.1943 H   0  0  0  0  0  0  0  0  0  0  0  0
    2.7275   -0.5569    0.4785 H   0  0  0  0  0  0  0  0  0  0  0  0
    0.8207    0.9086    0.9313 H   0  0  0  0  0  0  0  0  0  0  0  0
   -0.2553    2.4134    2.4591 H   0  0  0  0  0  0  0  0  0  0  0  0
  2  1  1  6
  1 21  1  0
  1 22  1  0
  1 23  1  0
  2  9  1  0
  2 20  1  0
  2  3  1  0
  3  4  1  0
  4  9  1  0
  4  5  1  1
  4 10  1  0
  5  6  1  0
  5 24  1  0
  5 25  1  0
  6  7  1  0
  6 26  1  0
  6 27  1  0
  7  8  1  0
  7 28  1  0
  7 29  1  0
  8  9  2  0
  8 30  1  0
 10 11  1  0
 10 31  1  0
 10 32  1  0
 11 20  2  0
 11 12  1  0
 12 13  2  0
 12 33  1  0
 13 18  1  0
 13 14  1  0
 14 15  2  0
 14 34  1  0
 15 16  1  0
 15 35  1  0
 16 17  2  0
 16 36  1  0
 17 18  1  0
 17 37  1  0
 18 19  2  0
 19 20  1  0
 19 38  1  0
M  CHG  1  19   1
M  END
>  <i_m_ct_stereo_status>  (87) 
1

>  <s_m_source_file>  (87) 
/var/tmp/pbs.5076255.sched01/tmp7dv9smms/08akalw19.sdf

>  <i_m_source_file_index>  (87) 
31

>  <i_lp_mmshare_version>  (87) 
48012

>  <i_f3d_flags>  (87) 
0

>  <s_epik_input>  (87) 
W0NIMl0xW0NIMl1bQ0gyXVtDSF09QyhbQ0BdMTIzKVtDQF0oTzIpKFtDSDNdKWM0YyhbQ0gyXTMpW2NIXWM1YyhuNClbY0hdW2NIXVtjSF1bY0hdNQ==

>  <s_epik_cmdline>  (87) 
J2VwaWtfcHl0aG9uJywgJy1waHQnLCAnMi4wJywgJy1waCcsICc3LjAnLCAnLXRuJywgJzgnLCAnLW1hJywgJzIwMCcsICctaW1hZScsICc8aW5maWxlLm1hZT4nLCAnLW9tYWUnLCAnPG91dGZpbGUubWFlPic=

>  <r_epik_Ionization_Penalty>  (87) 
1.84196

>  <r_epik_Ionization_Penalty_Charging>  (87) 
1.84196

>  <r_epik_Ionization_Penalty_Neutral>  (87) 
9.34064e-15

>  <r_epik_State_Penalty>  (87) 
1.95877

>  <r_epik_Charging_Adjusted_Penalty>  (87) 
3.80072

>  <i_epik_Tot_Q>  (87) 
1

>  <i_epik_Tot_abs_Q>  (87) 
1

>  <s_lp_Force_Field>  (87) 
OPLS3e

>  <r_lp_Energy>  (87) 
56.0376

>  <b_lp_Chiralities_Consistent>  (87) 
1

>  <s_lp_Variant>  (87) 
17:0-2

>  <s_i_glide_gridfile>  (87) 
pfpi4k_grid

>  <i_i_glide_lignum>  (87) 
31

>  <i_i_glide_rotatable_bonds>  (87) 
0

>  <r_i_docking_score>  (87) 
-3.11935

>  <r_i_glide_ligand_efficiency>  (87) 
-0.155968

>  <r_i_glide_ligand_efficiency_sa>  (87) 
-0.423361

>  <r_i_glide_ligand_efficiency_ln>  (87) 
-0.780671

>  <r_i_glide_gscore>  (87) 
-3.11935

>  <r_i_glide_lipo>  (87) 
-0.29058

>  <r_i_glide_hbond>  (87) 
0

>  <r_i_glide_metal>  (87) 
-0

>  <r_i_glide_rewards>  (87) 
-1.60676

>  <r_i_glide_evdw>  (87) 
-15.8831

>  <r_i_glide_ecoul>  (87) 
-2.43751

>  <r_i_glide_erotb>  (87) 
0

>  <r_i_glide_esite>  (87) 
-0.062227

>  <r_i_glide_emodel>  (87) 
-22.9165

>  <r_i_glide_energy>  (87) 
-18.3206

>  <r_i_glide_einternal>  (87) 
0

>  <r_i_glide_intrahb_reward>  (87) 
-0

>  <i_i_glide_confnum>  (87) 
2

>  <i_i_glide_posenum>  (87) 
33

>  <r_i_glide_eff_state_penalty>  (87) 
0

>  <ligand_id>  (87) 
17

>  <original_smiles>  (87) 
CC12OC3(CCCC=C31)Cc1cc3ccccc3nc12

>  <smiles>  (87) 
[H]C1=C2C3(C([H])([H])[H])OC2(C([H])([H])c2c([H])c4c([H])c([H])c([H])c([H])c4[n+]([H])c23)C([H])([H])C([H])([H])C1([H])[H]

$$$$
18:0:0
     RDKit          3D

 62 66  0  0  1  0  0  0  0  0999 V2000
    3.7130   -0.4613   -3.3300 C   0  0  0  0  0  0  0  0  0  0  0  0
    4.2431   -1.6600   -3.0100 C   0  0  0  0  0  0  0  0  0  0  0  0
    4.0154   -2.8651   -3.9060 C   0  0  0  0  0  0  0  0  0  0  0  0
    5.1086   -1.7983   -1.7457 C   0  0  2  0  0  0  0  0  0  0  0  0
    6.3328   -2.7313   -1.8435 C   0  0  0  0  0  0  0  0  0  0  0  0
    6.5990   -3.2351   -0.4088 C   0  0  0  0  0  0  0  0  0  0  0  0
    5.6293   -2.4752    0.5371 C   0  0  2  0  0  0  0  0  0  0  0  0
    6.3555   -1.1518    0.9096 C   0  0  0  0  0  0  0  0  0  0  0  0
    5.2853   -3.2894    1.8565 C   0  0  1  0  0  0  0  0  0  0  0  0
    4.8601   -2.4326    3.1021 C   0  0  0  0  0  0  0  0  0  0  0  0
    5.0137   -3.0930    4.5075 C   0  0  0  0  0  0  0  0  0  0  0  0
    4.4973   -4.5355    4.6388 C   0  0  2  0  0  0  0  0  0  0  0  0
    5.2597   -5.5622    3.8015 C   0  0  1  0  0  0  0  0  0  0  0  0
    5.4962   -6.7963    4.4417 O   0  0  0  0  0  0  0  0  0  0  0  0
    4.1072   -5.4811    2.7656 C   0  0  1  0  0  0  0  0  0  0  0  0
    3.0943   -6.6405    2.6771 C   0  0  0  0  0  0  0  0  0  0  0  0
    2.2958   -6.1175    3.8900 C   0  0  0  0  0  0  0  0  0  0  0  0
    0.8217   -5.8574    3.5698 C   0  0  0  0  0  0  0  0  0  0  0  0
    2.3057   -6.9268    5.1962 C   0  0  0  0  0  0  0  0  0  0  0  0
    3.2114   -4.8573    3.8320 C   0  0  1  0  0  0  0  0  0  0  0  0
    4.2615   -4.4242    1.6280 C   0  0  0  0  0  0  0  0  0  0  0  0
    3.5172   -4.4878    0.5185 C   0  0  0  0  0  0  0  0  0  0  0  0
    3.5738   -3.5263   -0.6442 C   0  0  1  0  0  0  0  0  0  0  0  0
    2.2685   -3.0904   -0.9768 O   0  0  0  0  0  0  0  0  0  0  0  0
    1.4075   -3.9844   -1.6479 C   0  0  0  0  0  0  0  0  0  0  0  0
    4.4246   -2.2490   -0.4212 C   0  0  2  0  0  0  0  0  0  0  0  0
    3.0937   -0.3452   -4.2075 H   0  0  0  0  0  0  0  0  0  0  0  0
    3.8764    0.4365   -2.7323 H   0  0  0  0  0  0  0  0  0  0  0  0
    4.9251   -3.1970   -4.3798 H   0  0  0  0  0  0  0  0  0  0  0  0
    3.3717   -2.5840   -4.7306 H   0  0  0  0  0  0  0  0  0  0  0  0
    3.6224   -3.6822   -3.3235 H   0  0  0  0  0  0  0  0  0  0  0  0
    5.4803   -0.7895   -1.5618 H   0  0  0  0  0  0  0  0  0  0  0  0
    6.1218   -3.5944   -2.4677 H   0  0  0  0  0  0  0  0  0  0  0  0
    7.2027   -2.2417   -2.2853 H   0  0  0  0  0  0  0  0  0  0  0  0
    6.4077   -4.3086   -0.3711 H   0  0  0  0  0  0  0  0  0  0  0  0
    7.6457   -3.0978   -0.1382 H   0  0  0  0  0  0  0  0  0  0  0  0
    5.6599   -0.3958    1.2693 H   0  0  0  0  0  0  0  0  0  0  0  0
    6.8966   -0.7113    0.0789 H   0  0  0  0  0  0  0  0  0  0  0  0
    7.1088   -1.3184    1.6794 H   0  0  0  0  0  0  0  0  0  0  0  0
    6.2527   -3.7375    2.0864 H   0  0  0  0  0  0  0  0  0  0  0  0
    5.4264   -1.5078    3.1626 H   0  0  0  0  0  0  0  0  0  0  0  0
    3.8275   -2.1239    2.9458 H   0  0  0  0  0  0  0  0  0  0  0  0
    6.0625   -3.0572    4.8009 H   0  0  0  0  0  0  0  0  0  0  0  0
    4.5179   -2.4468    5.2289 H   0  0  0  0  0  0  0  0  0  0  0  0
    4.4122   -4.8519    5.6841 H   0  0  0  0  0  0  0  0  0  0  0  0
    6.2267   -5.2119    3.4581 H   0  0  0  0  0  0  0  0  0  0  0  0
    4.6499   -7.1739    4.5847 H   0  0  0  0  0  0  0  0  0  0  0  0
    2.4972   -6.6769    1.7769 H   0  0  0  0  0  0  0  0  0  0  0  0
    3.5373   -7.6211    2.8489 H   0  0  0  0  0  0  0  0  0  0  0  0
    0.3188   -5.2970    4.3587 H   0  0  0  0  0  0  0  0  0  0  0  0
    0.2828   -6.7934    3.4242 H   0  0  0  0  0  0  0  0  0  0  0  0
    0.7323   -5.2864    2.6488 H   0  0  0  0  0  0  0  0  0  0  0  0
    1.7782   -6.3830    5.9853 H   0  0  0  0  0  0  0  0  0  0  0  0
    3.3121   -7.1001    5.5708 H   0  0  0  0  0  0  0  0  0  0  0  0
    1.8153   -7.8996    5.0799 H   0  0  0  0  0  0  0  0  0  0  0  0
    2.6719   -3.9754    3.4767 H   0  0  0  0  0  0  0  0  0  0  0  0
    2.7966   -5.2725    0.4013 H   0  0  0  0  0  0  0  0  0  0  0  0
    4.0103   -4.1218   -1.4355 H   0  0  0  0  0  0  0  0  0  0  0  0
    0.4262   -3.5314   -1.7710 H   0  0  0  0  0  0  0  0  0  0  0  0
    1.2559   -4.9195   -1.1170 H   0  0  0  0  0  0  0  0  0  0  0  0
    1.8268   -4.1730   -2.6251 H   0  0  0  0  0  0  0  0  0  0  0  0
    3.7959   -1.4546   -0.0077 H   0  0  0  0  0  0  0  0  0  0  0  0
  1  2  2  0
  1 27  1  0
  1 28  1  0
  2  3  1  0
  2  4  1  0
  3 29  1  0
  3 30  1  0
  3 31  1  0
  4 26  1  0
  4  5  1  0
  4 32  1  1
  5  6  1  0
  5 33  1  0
  5 34  1  0
  6  7  1  0
  6 35  1  0
  6 36  1  0
  7 26  1  0
  7  8  1  1
  7  9  1  0
  8 37  1  0
  8 38  1  0
  8 39  1  0
  9 21  1  0
  9 10  1  0
  9 40  1  1
 10 11  1  0
 10 41  1  0
 10 42  1  0
 11 12  1  0
 11 43  1  0
 11 44  1  0
 12 20  1  0
 12 13  1  0
 12 45  1  1
 13 14  1  0
 13 15  1  0
 13 46  1  6
 14 47  1  0
 15 20  1  0
 15 16  1  6
 15 21  1  0
 16 17  1  0
 16 48  1  0
 16 49  1  0
 17 18  1  0
 17 19  1  0
 17 20  1  0
 18 50  1  0
 18 51  1  0
 18 52  1  0
 19 53  1  0
 19 54  1  0
 19 55  1  0
 20 56  1  6
 21 22  2  0
 22 23  1  0
 22 57  1  0
 23 24  1  0
 23 26  1  0
 23 58  1  6
 24 25  1  0
 25 59  1  0
 25 60  1  0
 25 61  1  0
 26 62  1  1
M  END
>  <i_m_ct_stereo_status>  (88) 
1

>  <s_m_source_file>  (88) 
/var/tmp/pbs.5076255.sched01/tmp7dv9smms/08akalw19.sdf

>  <i_m_source_file_index>  (88) 
32

>  <i_lp_mmshare_version>  (88) 
48012

>  <i_f3d_flags>  (88) 
0

>  <s_epik_input>  (88) 
W0NIMl09QyhbQ0gzXSlbQ0BIXShbQ0gyXVtDSDJdMSlbQ0BASF0oW0NAQEhdKFtDSF09QzIzKU9bQ0gzXSlbQ0BAXTEoW0NIM10pW0NASF0yW0NIMl1bQ0gyXVtDQEhdKFtDQEhdNFtPSF0pW0NAQEhdKFtDQEBdMzQ1KUMoW0NIMl01KShbQ0gzXSlbQ0gzXQ==

>  <s_epik_cmdline>  (88) 
J2VwaWtfcHl0aG9uJywgJy1waHQnLCAnMi4wJywgJy1waCcsICc3LjAnLCAnLXRuJywgJzgnLCAnLW1hJywgJzIwMCcsICctaW1hZScsICc8aW5maWxlLm1hZT4nLCAnLW9tYWUnLCAnPG91dGZpbGUubWFlPic=

>  <r_lp_tautomer_probability>  (88) 
1

>  <r_epik_Ionization_Penalty>  (88) 
1.26608e-06

>  <r_epik_Ionization_Penalty_Charging>  (88) 
0

>  <r_epik_Ionization_Penalty_Neutral>  (88) 
1.26608e-06

>  <r_epik_State_Penalty>  (88) 
-0

>  <r_epik_Charging_Adjusted_Penalty>  (88) 
0

>  <i_epik_Tot_Q>  (88) 
0

>  <i_epik_Tot_abs_Q>  (88) 
0

>  <s_lp_Force_Field>  (88) 
OPLS3e

>  <r_lp_Energy>  (88) 
66.3291

>  <b_lp_Chiralities_Consistent>  (88) 
1

>  <s_lp_Variant>  (88) 
18:0-1

>  <s_i_glide_gridfile>  (88) 
pfpi4k_grid

>  <i_i_glide_lignum>  (88) 
32

>  <i_i_glide_rotatable_bonds>  (88) 
3

>  <r_i_docking_score>  (88) 
-2.56813

>  <r_i_glide_ligand_efficiency>  (88) 
-0.0987743

>  <r_i_glide_ligand_efficiency_sa>  (88) 
-0.292618

>  <r_i_glide_ligand_efficiency_ln>  (88) 
-0.603117

>  <r_i_glide_gscore>  (88) 
-2.56813

>  <r_i_glide_lipo>  (88) 
-0.70168

>  <r_i_glide_hbond>  (88) 
0

>  <r_i_glide_metal>  (88) 
-0

>  <r_i_glide_rewards>  (88) 
-0.978127

>  <r_i_glide_evdw>  (88) 
-21.5285

>  <r_i_glide_ecoul>  (88) 
0.250575

>  <r_i_glide_erotb>  (88) 
0.150514

>  <r_i_glide_esite>  (88) 
0

>  <r_i_glide_emodel>  (88) 
-22.0526

>  <r_i_glide_energy>  (88) 
-21.2779

>  <r_i_glide_einternal>  (88) 
3.28025

>  <r_i_glide_intrahb_reward>  (88) 
-0

>  <i_i_glide_confnum>  (88) 
2

>  <i_i_glide_posenum>  (88) 
13

>  <r_i_glide_eff_state_penalty>  (88) 
0

>  <ligand_id>  (88) 
18

>  <original_smiles>  (88) 
C=C(C)C1CCC2(C)C3CCC4C(O)C5(CC(C)(C)C45)C3=CC(OC)C12

>  <smiles>  (88) 
[H]OC1([H])C2([H])C([H])([H])C([H])([H])C3([H])C(=C([H])C([H])(OC([H])([H])[H])C4([H])C([H])(C(=C([H])[H])C([H])([H])[H])C([H])([H])C([H])([H])C34C([H])([H])[H])C13C([H])([H])C(C([H])([H])[H])(C([H])([H])[H])C23[H]

$$$$
18:0:1
     RDKit          3D

 62 66  0  0  1  0  0  0  0  0999 V2000
    3.1625   -0.9371    0.4674 C   0  0  0  0  0  0  0  0  0  0  0  0
    3.6248   -1.9041   -0.3199 C   0  0  0  0  0  0  0  0  0  0  0  0
    3.0680   -2.1777   -1.7308 C   0  0  0  0  0  0  0  0  0  0  0  0
    4.8149   -2.7538    0.1461 C   0  0  2  0  0  0  0  0  0  0  0  0
    5.6750   -3.3792   -0.9509 C   0  0  0  0  0  0  0  0  0  0  0  0
    6.2574   -4.6402   -0.3103 C   0  0  0  0  0  0  0  0  0  0  0  0
    5.8558   -4.6935    1.1503 C   0  0  2  0  0  0  0  0  0  0  0  0
    6.9212   -3.8706    1.8380 C   0  0  0  0  0  0  0  0  0  0  0  0
    5.8085   -6.1561    1.7655 C   0  0  1  0  0  0  0  0  0  0  0  0
    5.9973   -6.2581    3.3187 C   0  0  0  0  0  0  0  0  0  0  0  0
    6.4670   -7.6255    3.8914 C   0  0  0  0  0  0  0  0  0  0  0  0
    5.7272   -8.8614    3.3546 C   0  0  2  0  0  0  0  0  0  0  0  0
    5.9289   -9.1485    1.8654 C   0  0  1  0  0  0  0  0  0  0  0  0
    6.1036  -10.4917    1.4801 O   0  0  0  0  0  0  0  0  0  0  0  0
    4.5545   -8.4834    1.6158 C   0  0  1  0  0  0  0  0  0  0  0  0
    3.3215   -9.3432    1.2985 C   0  0  0  0  0  0  0  0  0  0  0  0
    3.1113   -9.7253    2.7697 C   0  0  0  0  0  0  0  0  0  0  0  0
    1.7017   -9.3802    3.2509 C   0  0  0  0  0  0  0  0  0  0  0  0
    3.3775  -11.1653    3.2232 C   0  0  0  0  0  0  0  0  0  0  0  0
    4.2137   -8.6825    3.1048 C   0  0  1  0  0  0  0  0  0  0  0  0
    4.5664   -6.9655    1.3568 C   0  0  0  0  0  0  0  0  0  0  0  0
    3.5015   -6.3195    0.8271 C   0  0  0  0  0  0  0  0  0  0  0  0
    3.4142   -4.8328    0.5974 C   0  0  1  0  0  0  0  0  0  0  0  0
    2.2041   -4.3105    1.0614 O   0  0  0  0  0  0  0  0  0  0  0  0
    1.8620   -4.4986    2.4304 C   0  0  0  0  0  0  0  0  0  0  0  0
    4.5396   -3.9288    1.1095 C   0  0  2  0  0  0  0  0  0  0  0  0
    2.3368   -0.2511    0.1794 H   0  0  0  0  0  0  0  0  0  0  0  0
    3.5617   -0.7584    1.4691 H   0  0  0  0  0  0  0  0  0  0  0  0
    3.8337   -2.0089   -2.4779 H   0  0  0  0  0  0  0  0  0  0  0  0
    2.2417   -1.5173   -2.0076 H   0  0  0  0  0  0  0  0  0  0  0  0
    2.6771   -3.1821   -1.8343 H   0  0  0  0  0  0  0  0  0  0  0  0
    5.4355   -2.0325    0.6764 H   0  0  0  0  0  0  0  0  0  0  0  0
    5.1117   -3.7193   -1.8244 H   0  0  0  0  0  0  0  0  0  0  0  0
    6.4482   -2.6992   -1.3212 H   0  0  0  0  0  0  0  0  0  0  0  0
    5.8002   -5.5193   -0.7452 H   0  0  0  0  0  0  0  0  0  0  0  0
    7.3443   -4.6203   -0.3651 H   0  0  0  0  0  0  0  0  0  0  0  0
    6.4002   -3.5529    2.7416 H   0  0  0  0  0  0  0  0  0  0  0  0
    7.2491   -2.9786    1.2969 H   0  0  0  0  0  0  0  0  0  0  0  0
    7.8263   -4.4499    2.0545 H   0  0  0  0  0  0  0  0  0  0  0  0
    6.6867   -6.6089    1.3083 H   0  0  0  0  0  0  0  0  0  0  0  0
    6.7361   -5.5492    3.6776 H   0  0  0  0  0  0  0  0  0  0  0  0
    5.0614   -5.9557    3.7885 H   0  0  0  0  0  0  0  0  0  0  0  0
    7.5293   -7.7489    3.6895 H   0  0  0  0  0  0  0  0  0  0  0  0
    6.3815   -7.5952    4.9748 H   0  0  0  0  0  0  0  0  0  0  0  0
    5.8969   -9.7563    3.9452 H   0  0  0  0  0  0  0  0  0  0  0  0
    6.7740   -8.6046    1.4632 H   0  0  0  0  0  0  0  0  0  0  0  0
    5.2388  -10.8697    1.3320 H   0  0  0  0  0  0  0  0  0  0  0  0
    2.4446   -8.8441    0.8904 H   0  0  0  0  0  0  0  0  0  0  0  0
    3.5781  -10.1939    0.7010 H   0  0  0  0  0  0  0  0  0  0  0  0
    1.6028   -9.4388    4.3333 H   0  0  0  0  0  0  0  0  0  0  0  0
    0.9607  -10.0425    2.8008 H   0  0  0  0  0  0  0  0  0  0  0  0
    1.4377   -8.3691    2.9496 H   0  0  0  0  0  0  0  0  0  0  0  0
    3.2792  -11.2616    4.3078 H   0  0  0  0  0  0  0  0  0  0  0  0
    4.3858  -11.4935    2.9879 H   0  0  0  0  0  0  0  0  0  0  0  0
    2.6931  -11.8820    2.7645 H   0  0  0  0  0  0  0  0  0  0  0  0
    3.7886   -7.8011    3.5759 H   0  0  0  0  0  0  0  0  0  0  0  0
    2.6120   -6.8420    0.5267 H   0  0  0  0  0  0  0  0  0  0  0  0
    3.3970   -4.8196   -0.4848 H   0  0  0  0  0  0  0  0  0  0  0  0
    0.9040   -4.0292    2.6205 H   0  0  0  0  0  0  0  0  0  0  0  0
    2.5469   -4.0087    3.1157 H   0  0  0  0  0  0  0  0  0  0  0  0
    1.7561   -5.5505    2.6926 H   0  0  0  0  0  0  0  0  0  0  0  0
    4.3310   -3.5411    2.0990 H   0  0  0  0  0  0  0  0  0  0  0  0
  1  2  2  0
  1 27  1  0
  1 28  1  0
  2  3  1  0
  2  4  1  0
  3 29  1  0
  3 30  1  0
  3 31  1  0
  4 26  1  0
  4  5  1  0
  4 32  1  1
  5  6  1  0
  5 33  1  0
  5 34  1  0
  6  7  1  0
  6 35  1  0
  6 36  1  0
  7 26  1  0
  7  8  1  1
  7  9  1  0
  8 37  1  0
  8 38  1  0
  8 39  1  0
  9 21  1  0
  9 10  1  0
  9 40  1  6
 10 11  1  0
 10 41  1  0
 10 42  1  0
 11 12  1  0
 11 43  1  0
 11 44  1  0
 12 20  1  0
 12 13  1  0
 12 45  1  1
 13 14  1  0
 13 15  1  0
 13 46  1  6
 14 47  1  0
 15 20  1  0
 15 16  1  6
 15 21  1  0
 16 17  1  0
 16 48  1  0
 16 49  1  0
 17 18  1  0
 17 19  1  0
 17 20  1  0
 18 50  1  0
 18 51  1  0
 18 52  1  0
 19 53  1  0
 19 54  1  0
 19 55  1  0
 20 56  1  1
 21 22  2  0
 22 23  1  0
 22 57  1  0
 23 24  1  0
 23 26  1  0
 23 58  1  6
 24 25  1  0
 25 59  1  0
 25 60  1  0
 25 61  1  0
 26 62  1  1
M  END
>  <i_m_ct_stereo_status>  (89) 
1

>  <s_m_source_file>  (89) 
/var/tmp/pbs.5076255.sched01/tmp7dv9smms/08akalw19.sdf

>  <i_m_source_file_index>  (89) 
32

>  <i_lp_mmshare_version>  (89) 
48012

>  <i_f3d_flags>  (89) 
0

>  <s_epik_input>  (89) 
W0NIMl09QyhbQ0gzXSlbQ0BIXShbQ0gyXVtDSDJdMSlbQ0BASF0oW0NAQEhdKFtDSF09QzIzKU9bQ0gzXSlbQ0BAXTEoW0NIM10pW0NASF0yW0NIMl1bQ0gyXVtDQEhdKFtDQEhdNFtPSF0pW0NAQEhdKFtDQEBdMzQ1KUMoW0NIMl01KShbQ0gzXSlbQ0gzXQ==

>  <s_epik_cmdline>  (89) 
J2VwaWtfcHl0aG9uJywgJy1waHQnLCAnMi4wJywgJy1waCcsICc3LjAnLCAnLXRuJywgJzgnLCAnLW1hJywgJzIwMCcsICctaW1hZScsICc8aW5maWxlLm1hZT4nLCAnLW9tYWUnLCAnPG91dGZpbGUubWFlPic=

>  <r_lp_tautomer_probability>  (89) 
1

>  <r_epik_Ionization_Penalty>  (89) 
1.26608e-06

>  <r_epik_Ionization_Penalty_Charging>  (89) 
0

>  <r_epik_Ionization_Penalty_Neutral>  (89) 
1.26608e-06

>  <r_epik_State_Penalty>  (89) 
-0

>  <r_epik_Charging_Adjusted_Penalty>  (89) 
0

>  <i_epik_Tot_Q>  (89) 
0

>  <i_epik_Tot_abs_Q>  (89) 
0

>  <s_lp_Force_Field>  (89) 
OPLS3e

>  <r_lp_Energy>  (89) 
66.3291

>  <b_lp_Chiralities_Consistent>  (89) 
1

>  <s_lp_Variant>  (89) 
18:0-1

>  <s_i_glide_gridfile>  (89) 
pfpi4k_grid

>  <i_i_glide_lignum>  (89) 
32

>  <i_i_glide_rotatable_bonds>  (89) 
3

>  <r_i_docking_score>  (89) 
-2.52657

>  <r_i_glide_ligand_efficiency>  (89) 
-0.0971759

>  <r_i_glide_ligand_efficiency_sa>  (89) 
-0.287883

>  <r_i_glide_ligand_efficiency_ln>  (89) 
-0.593357

>  <r_i_glide_gscore>  (89) 
-2.52657

>  <r_i_glide_lipo>  (89) 
-0.493739

>  <r_i_glide_hbond>  (89) 
-0.154981

>  <r_i_glide_metal>  (89) 
-0

>  <r_i_glide_rewards>  (89) 
-0.978127

>  <r_i_glide_evdw>  (89) 
-8.29877

>  <r_i_glide_ecoul>  (89) 
-4.23535

>  <r_i_glide_erotb>  (89) 
0.150514

>  <r_i_glide_esite>  (89) 
0

>  <r_i_glide_emodel>  (89) 
-12.375

>  <r_i_glide_energy>  (89) 
-12.5341

>  <r_i_glide_einternal>  (89) 
4.20748

>  <r_i_glide_intrahb_reward>  (89) 
-0

>  <i_i_glide_confnum>  (89) 
2

>  <i_i_glide_posenum>  (89) 
1

>  <r_i_glide_eff_state_penalty>  (89) 
0

>  <ligand_id>  (89) 
18

>  <original_smiles>  (89) 
C=C(C)C1CCC2(C)C3CCC4C(O)C5(CC(C)(C)C45)C3=CC(OC)C12

>  <smiles>  (89) 
[H]OC1([H])C2([H])C([H])([H])C([H])([H])C3([H])C(=C([H])C([H])(OC([H])([H])[H])C4([H])C([H])(C(=C([H])[H])C([H])([H])[H])C([H])([H])C([H])([H])C34C([H])([H])[H])C13C([H])([H])C(C([H])([H])[H])(C([H])([H])[H])C23[H]

$$$$
19:0:0
     RDKit          3D

 66 70  0  0  1  0  0  0  0  0999 V2000
    3.7581   -4.7394    1.7293 C   0  0  0  0  0  0  0  0  0  0  0  0
    4.5965   -3.5521    2.1988 C   0  0  0  0  0  0  0  0  0  0  0  0
    5.7977   -3.6972    2.4293 O   0  0  0  0  0  0  0  0  0  0  0  0
    3.9032   -2.1771    2.3226 C   0  0  2  0  0  0  0  0  0  0  0  0
    4.8441   -1.0012    2.0397 C   0  0  0  0  0  0  0  0  0  0  0  0
    4.1591    0.2113    2.6698 C   0  0  0  0  0  0  0  0  0  0  0  0
    3.0263   -0.2823    3.6015 C   0  0  1  0  0  0  0  0  0  0  0  0
    1.6162    0.1641    3.0931 C   0  0  2  0  0  0  0  0  0  0  0  0
    1.3981    1.6920    2.9770 C   0  0  0  0  0  0  0  0  0  0  0  0
    0.8431    2.4747    4.1800 C   0  0  2  0  0  0  0  0  0  0  0  0
   -0.6023    2.1214    4.4565 C   0  0  0  0  0  0  0  0  0  0  0  0
   -1.4009    3.1283    4.1107 C   0  0  0  0  0  0  0  0  0  0  0  0
   -0.6032    4.2452    3.6818 C   0  0  0  0  0  0  0  0  0  0  0  0
   -1.0102    5.3491    3.3223 O   0  0  0  0  0  0  0  0  0  0  0  0
    0.6865    3.8771    3.7918 N   0  0  0  0  0  0  0  0  0  0  0  0
    1.8421    4.7555    3.5947 C   0  0  0  0  0  0  0  0  0  0  0  0
   -1.0862    0.8585    5.1534 C   0  0  2  0  0  0  0  0  0  0  0  0
   -1.5861    1.2212    6.5741 C   0  0  0  0  0  0  0  0  0  0  0  0
   -0.4300    1.4257    7.5620 C   0  0  0  0  0  0  0  0  0  0  0  0
    0.5228    0.2243    7.6090 C   0  0  1  0  0  0  0  0  0  0  0  0
   -0.0395   -0.8460    8.3405 O   0  0  0  0  0  0  0  0  0  0  0  0
    0.9745   -0.2217    6.2033 C   0  0  0  0  0  0  0  0  0  0  0  0
   -0.1409   -0.3949    5.1224 C   0  0  1  0  0  0  0  0  0  0  0  0
   -1.0214   -1.6187    5.5196 C   0  0  0  0  0  0  0  0  0  0  0  0
    0.4088   -0.6501    3.6482 C   0  0  2  0  0  0  0  0  0  0  0  0
    0.7235   -2.1189    3.2863 C   0  0  0  0  0  0  0  0  0  0  0  0
    1.9694   -2.6445    3.9906 C   0  0  0  0  0  0  0  0  0  0  0  0
    3.2557   -1.8289    3.6961 C   0  0  1  0  0  0  0  0  0  0  0  0
    4.2342   -2.1002    4.8716 C   0  0  0  0  0  0  0  0  0  0  0  0
    3.2885   -4.5130    0.7731 H   0  0  0  0  0  0  0  0  0  0  0  0
    2.9863   -4.9961    2.4489 H   0  0  0  0  0  0  0  0  0  0  0  0
    4.3950   -5.6146    1.6083 H   0  0  0  0  0  0  0  0  0  0  0  0
    3.1236   -2.1395    1.5626 H   0  0  0  0  0  0  0  0  0  0  0  0
    5.8282   -1.1345    2.4970 H   0  0  0  0  0  0  0  0  0  0  0  0
    5.0093   -0.8590    0.9691 H   0  0  0  0  0  0  0  0  0  0  0  0
    4.8782    0.7846    3.2572 H   0  0  0  0  0  0  0  0  0  0  0  0
    3.7978    0.8547    1.8684 H   0  0  0  0  0  0  0  0  0  0  0  0
    3.2071    0.1745    4.5717 H   0  0  0  0  0  0  0  0  0  0  0  0
    1.6464   -0.1236    2.0404 H   0  0  0  0  0  0  0  0  0  0  0  0
    2.3359    2.1599    2.6811 H   0  0  0  0  0  0  0  0  0  0  0  0
    0.7287    1.8692    2.1334 H   0  0  0  0  0  0  0  0  0  0  0  0
    1.4702    2.4462    5.0645 H   0  0  0  0  0  0  0  0  0  0  0  0
   -2.4738    3.1577    4.2312 H   0  0  0  0  0  0  0  0  0  0  0  0
    1.5475    5.7907    3.4147 H   0  0  0  0  0  0  0  0  0  0  0  0
    2.4247    4.4454    2.7276 H   0  0  0  0  0  0  0  0  0  0  0  0
    2.4981    4.7456    4.4656 H   0  0  0  0  0  0  0  0  0  0  0  0
   -1.9797    0.5981    4.5830 H   0  0  0  0  0  0  0  0  0  0  0  0
   -2.1973    2.1225    6.5471 H   0  0  0  0  0  0  0  0  0  0  0  0
   -2.2656    0.4595    6.9314 H   0  0  0  0  0  0  0  0  0  0  0  0
    0.1344    2.3076    7.2584 H   0  0  0  0  0  0  0  0  0  0  0  0
   -0.8086    1.6442    8.5593 H   0  0  0  0  0  0  0  0  0  0  0  0
    1.4109    0.5247    8.1653 H   0  0  0  0  0  0  0  0  0  0  0  0
    0.6468   -1.4799    8.4989 H   0  0  0  0  0  0  0  0  0  0  0  0
    1.6606    0.5449    5.8792 H   0  0  0  0  0  0  0  0  0  0  0  0
    1.5798   -1.1153    6.3071 H   0  0  0  0  0  0  0  0  0  0  0  0
   -0.4240   -2.5168    5.6790 H   0  0  0  0  0  0  0  0  0  0  0  0
   -1.7738   -1.8334    4.7582 H   0  0  0  0  0  0  0  0  0  0  0  0
   -1.5634   -1.4801    6.4476 H   0  0  0  0  0  0  0  0  0  0  0  0
   -0.4310   -0.3820    2.9983 H   0  0  0  0  0  0  0  0  0  0  0  0
   -0.1165   -2.7815    3.4739 H   0  0  0  0  0  0  0  0  0  0  0  0
    0.8820   -2.1944    2.2132 H   0  0  0  0  0  0  0  0  0  0  0  0
    1.7810   -2.7105    5.0585 H   0  0  0  0  0  0  0  0  0  0  0  0
    2.0992   -3.6791    3.7029 H   0  0  0  0  0  0  0  0  0  0  0  0
    3.8169   -1.7300    5.8097 H   0  0  0  0  0  0  0  0  0  0  0  0
    5.1989   -1.6059    4.7335 H   0  0  0  0  0  0  0  0  0  0  0  0
    4.4189   -3.1686    5.0029 H   0  0  0  0  0  0  0  0  0  0  0  0
  1  2  1  0
  1 30  1  0
  1 31  1  0
  1 32  1  0
  2  3  2  0
  2  4  1  0
  4 28  1  0
  4  5  1  0
  4 33  1  6
  5  6  1  0
  5 34  1  0
  5 35  1  0
  6  7  1  0
  6 36  1  0
  6 37  1  0
  7 28  1  0
  7  8  1  0
  7 38  1  1
  8 25  1  0
  8  9  1  0
  8 39  1  6
  9 10  1  0
  9 40  1  0
  9 41  1  0
 10 15  1  0
 10 11  1  0
 10 42  1  1
 11 12  2  0
 11 17  1  0
 12 13  1  0
 12 43  1  0
 13 14  2  0
 13 15  1  0
 15 16  1  0
 16 44  1  0
 16 45  1  0
 16 46  1  0
 17 23  1  0
 17 18  1  0
 17 47  1  6
 18 19  1  0
 18 48  1  0
 18 49  1  0
 19 20  1  0
 19 50  1  0
 19 51  1  0
 20 21  1  0
 20 22  1  0
 20 52  1  1
 21 53  1  0
 22 23  1  0
 22 54  1  0
 22 55  1  0
 23 24  1  1
 23 25  1  0
 24 56  1  0
 24 57  1  0
 24 58  1  0
 25 26  1  0
 25 59  1  6
 26 27  1  0
 26 60  1  0
 26 61  1  0
 27 28  1  0
 27 62  1  0
 27 63  1  0
 28 29  1  1
 29 64  1  0
 29 65  1  0
 29 66  1  0
M  END
>  <i_m_ct_stereo_status>  (90) 
1

>  <s_m_source_file>  (90) 
/var/tmp/pbs.5076255.sched01/tmp7dv9smms/08akalw19.sdf

>  <i_m_source_file_index>  (90) 
33

>  <i_lp_mmshare_version>  (90) 
48012

>  <i_f3d_flags>  (90) 
0

>  <s_epik_input>  (90) 
W0NIM11DKD1PKVtDQEhdKFtDSDJdW0NIMl0xKVtDQF0oW0NIM10pKFtDSDJdW0NIMl1bQ0BIXTIzKVtDQEBIXTFbQ0BASF0yW0NIMl1bQ0BASF0oTihbQ0gzXSlDKD1PKVtDSF00KUM9NFtDQEBIXShbQ0BAXTM1W0NIM10pW0NIMl1bQ0gyXVtDQEBIXShbT0hdKVtDSDJdNQ==

>  <s_epik_cmdline>  (90) 
J2VwaWtfcHl0aG9uJywgJy1waHQnLCAnMi4wJywgJy1waCcsICc3LjAnLCAnLXRuJywgJzgnLCAnLW1hJywgJzIwMCcsICctaW1hZScsICc8aW5maWxlLm1hZT4nLCAnLW9tYWUnLCAnPG91dGZpbGUubWFlPic=

>  <r_lp_tautomer_probability>  (90) 
0.961761

>  <r_epik_Ionization_Penalty>  (90) 
8.43499e-05

>  <r_epik_Ionization_Penalty_Charging>  (90) 
0

>  <r_epik_Ionization_Penalty_Neutral>  (90) 
8.43499e-05

>  <r_epik_State_Penalty>  (90) 
0.0186766

>  <r_epik_Charging_Adjusted_Penalty>  (90) 
0.0186766

>  <i_epik_Tot_Q>  (90) 
0

>  <i_epik_Tot_abs_Q>  (90) 
0

>  <s_lp_Force_Field>  (90) 
OPLS3e

>  <r_lp_Energy>  (90) 
59.0229

>  <b_lp_Chiralities_Consistent>  (90) 
1

>  <s_lp_Variant>  (90) 
19:0-1

>  <s_i_glide_gridfile>  (90) 
pfpi4k_grid

>  <i_i_glide_lignum>  (90) 
33

>  <i_i_glide_rotatable_bonds>  (90) 
2

>  <r_i_docking_score>  (90) 
-2.9733

>  <r_i_glide_ligand_efficiency>  (90) 
-0.102528

>  <r_i_glide_ligand_efficiency_sa>  (90) 
-0.314997

>  <r_i_glide_ligand_efficiency_ln>  (90) 
-0.68081

>  <r_i_glide_gscore>  (90) 
-2.9733

>  <r_i_glide_lipo>  (90) 
-0.134247

>  <r_i_glide_hbond>  (90) 
-0.195134

>  <r_i_glide_metal>  (90) 
-0

>  <r_i_glide_rewards>  (90) 
-0.715534

>  <r_i_glide_evdw>  (90) 
-17.5518

>  <r_i_glide_ecoul>  (90) 
-5.82211

>  <r_i_glide_erotb>  (90) 
0

>  <r_i_glide_esite>  (90) 
-0.177475

>  <r_i_glide_emodel>  (90) 
-27.1627

>  <r_i_glide_energy>  (90) 
-23.3739

>  <r_i_glide_einternal>  (90) 
0.67603

>  <r_i_glide_intrahb_reward>  (90) 
-0

>  <i_i_glide_confnum>  (90) 
2

>  <i_i_glide_posenum>  (90) 
24

>  <r_i_glide_eff_state_penalty>  (90) 
0

>  <ligand_id>  (90) 
19

>  <original_smiles>  (90) 
CC(=O)C1CCC2C3CC4C(=CC(=O)N4C)C4CCC(O)CC4(C)C3CCC12C

>  <smiles>  (90) 
[H]OC1([H])C([H])([H])C([H])([H])C2([H])C3=C([H])C(=O)N(C([H])([H])[H])C3([H])C([H])([H])C3([H])C4([H])C([H])([H])C([H])([H])C([H])(C(=O)C([H])([H])[H])C4(C([H])([H])[H])C([H])([H])C([H])([H])C3([H])C2(C([H])([H])[H])C1([H])[H]

$$$$
19:1:0
     RDKit          3D

 66 70  0  0  1  0  0  0  0  0999 V2000
    3.8464   -1.7925   -1.7297 C   0  0  0  0  0  0  0  0  0  0  0  0
    5.1311   -2.0564   -0.9429 C   0  0  0  0  0  0  0  0  0  0  0  0
    6.2315   -1.8553   -1.4528 O   0  0  0  0  0  0  0  0  0  0  0  0
    5.0493   -2.6022    0.5070 C   0  0  2  0  0  0  0  0  0  0  0  0
    4.2383   -3.9047    0.5599 C   0  0  0  0  0  0  0  0  0  0  0  0
    2.7964   -3.4856    0.8887 C   0  0  0  0  0  0  0  0  0  0  0  0
    2.8542   -2.0335    1.4108 C   0  0  1  0  0  0  0  0  0  0  0  0
    1.9202   -1.7478    2.6156 C   0  0  2  0  0  0  0  0  0  0  0  0
    1.5607   -0.2430    2.6705 C   0  0  0  0  0  0  0  0  0  0  0  0
    0.4953    0.1751    3.6789 C   0  0  0  0  0  0  0  0  0  0  0  0
    0.3082   -0.2146    4.9460 C   0  0  0  0  0  0  0  0  0  0  0  0
   -0.8389    0.5486    5.5381 C   0  0  0  0  0  0  0  0  0  0  0  0
   -1.2227    1.4475    4.3865 C   0  0  0  0  0  0  0  0  0  0  0  0
   -2.1285    2.2916    4.4549 O   0  0  0  0  0  0  0  0  0  0  0  0
   -0.4209    1.1771    3.3542 N   0  0  0  0  0  0  0  0  0  0  0  0
   -0.4602    1.8863    2.0805 C   0  0  0  0  0  0  0  0  0  0  0  0
    1.0425   -1.2286    5.8185 C   0  0  2  0  0  0  0  0  0  0  0  0
    2.0599   -0.5513    6.7506 C   0  0  0  0  0  0  0  0  0  0  0  0
    2.4148   -1.5057    7.8926 C   0  0  0  0  0  0  0  0  0  0  0  0
    3.0346   -2.7928    7.3504 C   0  0  1  0  0  0  0  0  0  0  0  0
    3.1732   -3.6930    8.4257 O   0  0  0  0  0  0  0  0  0  0  0  0
    2.1823   -3.4590    6.2479 C   0  0  0  0  0  0  0  0  0  0  0  0
    1.5497   -2.5327    5.1435 C   0  0  1  0  0  0  0  0  0  0  0  0
    0.2929   -3.3072    4.6604 C   0  0  0  0  0  0  0  0  0  0  0  0
    2.5188   -2.3584    3.9076 C   0  0  2  0  0  0  0  0  0  0  0  0
    3.9101   -1.7442    4.1367 C   0  0  0  0  0  0  0  0  0  0  0  0
    4.8726   -2.0868    2.9822 C   0  0  0  0  0  0  0  0  0  0  0  0
    4.3627   -1.6854    1.5652 C   0  0  1  0  0  0  0  0  0  0  0  0
    4.6995   -0.1866    1.3267 C   0  0  0  0  0  0  0  0  0  0  0  0
    3.2536   -1.0208   -1.2458 H   0  0  0  0  0  0  0  0  0  0  0  0
    3.2485   -2.6968   -1.7918 H   0  0  0  0  0  0  0  0  0  0  0  0
    4.0586   -1.4628   -2.7473 H   0  0  0  0  0  0  0  0  0  0  0  0
    6.0796   -2.8031    0.8073 H   0  0  0  0  0  0  0  0  0  0  0  0
    4.3104   -4.4837   -0.3661 H   0  0  0  0  0  0  0  0  0  0  0  0
    4.6219   -4.5553    1.3504 H   0  0  0  0  0  0  0  0  0  0  0  0
    2.1930   -3.5119   -0.0187 H   0  0  0  0  0  0  0  0  0  0  0  0
    2.3425   -4.1937    1.5818 H   0  0  0  0  0  0  0  0  0  0  0  0
    2.4629   -1.4189    0.6055 H   0  0  0  0  0  0  0  0  0  0  0  0
    0.9998   -2.2611    2.3677 H   0  0  0  0  0  0  0  0  0  0  0  0
    2.4345    0.3649    2.8750 H   0  0  0  0  0  0  0  0  0  0  0  0
    1.2414    0.0567    1.6699 H   0  0  0  0  0  0  0  0  0  0  0  0
   -0.5371    1.1348    6.4090 H   0  0  0  0  0  0  0  0  0  0  0  0
   -1.6653   -0.1099    5.8094 H   0  0  0  0  0  0  0  0  0  0  0  0
   -1.1919    2.6954    2.0921 H   0  0  0  0  0  0  0  0  0  0  0  0
   -0.7360    1.2056    1.2782 H   0  0  0  0  0  0  0  0  0  0  0  0
    0.5073    2.3268    1.8386 H   0  0  0  0  0  0  0  0  0  0  0  0
    0.2410   -1.5616    6.4790 H   0  0  0  0  0  0  0  0  0  0  0  0
    2.9635   -0.2556    6.2186 H   0  0  0  0  0  0  0  0  0  0  0  0
    1.6429    0.3594    7.1739 H   0  0  0  0  0  0  0  0  0  0  0  0
    3.1003   -1.0215    8.5919 H   0  0  0  0  0  0  0  0  0  0  0  0
    1.5133   -1.7431    8.4619 H   0  0  0  0  0  0  0  0  0  0  0  0
    4.0406   -2.5719    7.0074 H   0  0  0  0  0  0  0  0  0  0  0  0
    3.7313   -4.4115    8.1603 H   0  0  0  0  0  0  0  0  0  0  0  0
    2.7785   -4.2260    5.7729 H   0  0  0  0  0  0  0  0  0  0  0  0
    1.3794   -4.0067    6.7539 H   0  0  0  0  0  0  0  0  0  0  0  0
    0.5566   -4.2387    4.1536 H   0  0  0  0  0  0  0  0  0  0  0  0
   -0.3270   -2.7122    3.9852 H   0  0  0  0  0  0  0  0  0  0  0  0
   -0.3561   -3.5684    5.4967 H   0  0  0  0  0  0  0  0  0  0  0  0
    2.7328   -3.3905    3.6443 H   0  0  0  0  0  0  0  0  0  0  0  0
    3.8607   -0.6630    4.2530 H   0  0  0  0  0  0  0  0  0  0  0  0
    4.3686   -2.1345    5.0385 H   0  0  0  0  0  0  0  0  0  0  0  0
    5.8267   -1.5991    3.1729 H   0  0  0  0  0  0  0  0  0  0  0  0
    5.0775   -3.1604    3.0248 H   0  0  0  0  0  0  0  0  0  0  0  0
    4.4583    0.4351    2.1826 H   0  0  0  0  0  0  0  0  0  0  0  0
    4.1659    0.2302    0.4722 H   0  0  0  0  0  0  0  0  0  0  0  0
    5.7645   -0.0433    1.1336 H   0  0  0  0  0  0  0  0  0  0  0  0
  1  2  1  0
  1 30  1  0
  1 31  1  0
  1 32  1  0
  2  3  2  0
  2  4  1  0
  4 28  1  0
  4  5  1  0
  4 33  1  1
  5  6  1  0
  5 34  1  0
  5 35  1  0
  6  7  1  0
  6 36  1  0
  6 37  1  0
  7 28  1  0
  7  8  1  0
  7 38  1  6
  8 25  1  0
  8  9  1  0
  8 39  1  6
  9 40  1  0
  9 41  1  0
  9 10  1  0
 10 15  1  0
 10 11  2  0
 11 12  1  0
 11 17  1  0
 12 13  1  0
 12 43  1  0
 12 42  1  0
 13 15  1  0
 13 14  2  0
 15 16  1  0
 16 44  1  0
 16 45  1  0
 16 46  1  0
 17 23  1  0
 17 18  1  0
 17 47  1  1
 18 19  1  0
 18 48  1  0
 18 49  1  0
 19 20  1  0
 19 50  1  0
 19 51  1  0
 20 21  1  0
 20 22  1  0
 20 52  1  6
 21 53  1  0
 22 23  1  0
 22 54  1  0
 22 55  1  0
 23 24  1  6
 23 25  1  0
 24 56  1  0
 24 57  1  0
 24 58  1  0
 25 26  1  0
 25 59  1  6
 26 27  1  0
 26 60  1  0
 26 61  1  0
 27 28  1  0
 27 62  1  0
 27 63  1  0
 28 29  1  6
 29 64  1  0
 29 65  1  0
 29 66  1  0
M  END
>  <i_m_ct_stereo_status>  (91) 
1

>  <s_m_source_file>  (91) 
/var/tmp/pbs.5076255.sched01/tmp7dv9smms/08akalw19.sdf

>  <i_m_source_file_index>  (91) 
34

>  <i_lp_mmshare_version>  (91) 
48012

>  <i_f3d_flags>  (91) 
0

>  <s_epik_input>  (91) 
W0NIM11DKD1PKVtDQEhdKFtDSDJdW0NIMl0xKVtDQF0oW0NIM10pKFtDSDJdW0NIMl1bQ0BIXTIzKVtDQEBIXTFbQ0BASF0yW0NIMl1bQ0BASF0oTihbQ0gzXSlDKD1PKVtDSF00KUM9NFtDQEBIXShbQ0BAXTM1W0NIM10pW0NIMl1bQ0gyXVtDQEBIXShbT0hdKVtDSDJdNQ==

>  <s_epik_cmdline>  (91) 
J2VwaWtfcHl0aG9uJywgJy1waHQnLCAnMi4wJywgJy1waCcsICc3LjAnLCAnLXRuJywgJzgnLCAnLW1hJywgJzIwMCcsICctaW1hZScsICc8aW5maWxlLm1hZT4nLCAnLW9tYWUnLCAnPG91dGZpbGUubWFlPic=

>  <r_lp_tautomer_probability>  (91) 
0.0382385

>  <r_epik_Ionization_Penalty>  (91) 
6.78221e-07

>  <r_epik_Ionization_Penalty_Charging>  (91) 
0

>  <r_epik_Ionization_Penalty_Neutral>  (91) 
6.78221e-07

>  <r_epik_State_Penalty>  (91) 
2.05757

>  <r_epik_Charging_Adjusted_Penalty>  (91) 
2.05757

>  <i_epik_Tot_Q>  (91) 
0

>  <i_epik_Tot_abs_Q>  (91) 
0

>  <s_lp_Force_Field>  (91) 
OPLS3e

>  <r_lp_Energy>  (91) 
47.6042

>  <b_lp_Chiralities_Consistent>  (91) 
1

>  <s_lp_Variant>  (91) 
19:0-2

>  <s_i_glide_gridfile>  (91) 
pfpi4k_grid

>  <i_i_glide_lignum>  (91) 
34

>  <i_i_glide_rotatable_bonds>  (91) 
2

>  <r_i_docking_score>  (91) 
-2.8662

>  <r_i_glide_ligand_efficiency>  (91) 
-0.0988343

>  <r_i_glide_ligand_efficiency_sa>  (91) 
-0.30365

>  <r_i_glide_ligand_efficiency_ln>  (91) 
-0.656286

>  <r_i_glide_gscore>  (91) 
-2.8662

>  <r_i_glide_lipo>  (91) 
-0.251354

>  <r_i_glide_hbond>  (91) 
-0.145889

>  <r_i_glide_metal>  (91) 
-0

>  <r_i_glide_rewards>  (91) 
-0.684776

>  <r_i_glide_evdw>  (91) 
-22.9908

>  <r_i_glide_ecoul>  (91) 
-3.73165

>  <r_i_glide_erotb>  (91) 
0

>  <r_i_glide_esite>  (91) 
-0.0748904

>  <r_i_glide_emodel>  (91) 
-30.426

>  <r_i_glide_energy>  (91) 
-26.7224

>  <r_i_glide_einternal>  (91) 
2.15537

>  <r_i_glide_intrahb_reward>  (91) 
-0

>  <i_i_glide_confnum>  (91) 
2

>  <i_i_glide_posenum>  (91) 
8

>  <r_i_glide_eff_state_penalty>  (91) 
0

>  <ligand_id>  (91) 
19

>  <original_smiles>  (91) 
CC(=O)C1CCC2C3CC4C(=CC(=O)N4C)C4CCC(O)CC4(C)C3CCC12C

>  <smiles>  (91) 
[H]OC1([H])C([H])([H])C([H])([H])C2([H])C3=C(N(C([H])([H])[H])C(=O)C3([H])[H])C([H])([H])C3([H])C4([H])C([H])([H])C([H])([H])C([H])(C(=O)C([H])([H])[H])C4(C([H])([H])[H])C([H])([H])C([H])([H])C3([H])C2(C([H])([H])[H])C1([H])[H]

$$$$
19:1:1
     RDKit          3D

 66 70  0  0  1  0  0  0  0  0999 V2000
    3.0153   -3.4174   -1.9933 C   0  0  0  0  0  0  0  0  0  0  0  0
    4.5366   -3.3086   -1.8691 C   0  0  0  0  0  0  0  0  0  0  0  0
    5.2566   -3.3483   -2.8692 O   0  0  0  0  0  0  0  0  0  0  0  0
    5.1793   -3.1507   -0.4667 C   0  0  2  0  0  0  0  0  0  0  0  0
    4.8390   -4.3474    0.4346 C   0  0  0  0  0  0  0  0  0  0  0  0
    3.5867   -3.9377    1.2286 C   0  0  0  0  0  0  0  0  0  0  0  0
    3.4421   -2.4056    1.0882 C   0  0  1  0  0  0  0  0  0  0  0  0
    3.0192   -1.6784    2.3932 C   0  0  2  0  0  0  0  0  0  0  0  0
    2.3188   -0.3368    2.0518 C   0  0  0  0  0  0  0  0  0  0  0  0
    1.6657    0.4172    3.2044 C   0  0  0  0  0  0  0  0  0  0  0  0
    2.1048    0.6201    4.4527 C   0  0  0  0  0  0  0  0  0  0  0  0
    1.1205    1.4793    5.1917 C   0  0  0  0  0  0  0  0  0  0  0  0
    0.0817    1.7263    4.1179 C   0  0  0  0  0  0  0  0  0  0  0  0
   -0.9368    2.4064    4.3065 O   0  0  0  0  0  0  0  0  0  0  0  0
    0.4606    1.0982    3.0001 N   0  0  0  0  0  0  0  0  0  0  0  0
   -0.2756    1.1456    1.7363 C   0  0  0  0  0  0  0  0  0  0  0  0
    3.3667    0.1643    5.1820 C   0  0  2  0  0  0  0  0  0  0  0  0
    4.4441    1.2615    5.2035 C   0  0  0  0  0  0  0  0  0  0  0  0
    5.4590    0.9613    6.3090 C   0  0  0  0  0  0  0  0  0  0  0  0
    6.1395   -0.3836    6.0619 C   0  0  1  0  0  0  0  0  0  0  0  0
    6.9472   -0.7082    7.1676 O   0  0  0  0  0  0  0  0  0  0  0  0
    5.1448   -1.5399    5.8112 C   0  0  0  0  0  0  0  0  0  0  0  0
    3.9039   -1.2643    4.8812 C   0  0  1  0  0  0  0  0  0  0  0  0
    2.8215   -2.2690    5.3714 C   0  0  0  0  0  0  0  0  0  0  0  0
    4.2216   -1.5954    3.3692 C   0  0  2  0  0  0  0  0  0  0  0  0
    5.3621   -0.8385    2.6683 C   0  0  0  0  0  0  0  0  0  0  0  0
    5.8535   -1.5903    1.4161 C   0  0  0  0  0  0  0  0  0  0  0  0
    4.7381   -1.9133    0.3738 C   0  0  1  0  0  0  0  0  0  0  0  0
    4.5333   -0.6555   -0.5185 C   0  0  0  0  0  0  0  0  0  0  0  0
    2.5333   -2.5049   -1.6474 H   0  0  0  0  0  0  0  0  0  0  0  0
    2.6468   -4.2486   -1.3973 H   0  0  0  0  0  0  0  0  0  0  0  0
    2.7038   -3.5846   -3.0250 H   0  0  0  0  0  0  0  0  0  0  0  0
    6.2566   -3.1185   -0.6364 H   0  0  0  0  0  0  0  0  0  0  0  0
    4.6976   -5.2716   -0.1339 H   0  0  0  0  0  0  0  0  0  0  0  0
    5.6636   -4.5414    1.1254 H   0  0  0  0  0  0  0  0  0  0  0  0
    2.7061   -4.4211    0.8036 H   0  0  0  0  0  0  0  0  0  0  0  0
    3.6579   -4.2864    2.2586 H   0  0  0  0  0  0  0  0  0  0  0  0
    2.6035   -2.2581    0.4108 H   0  0  0  0  0  0  0  0  0  0  0  0
    2.2492   -2.3167    2.8159 H   0  0  0  0  0  0  0  0  0  0  0  0
    3.0014    0.3614    1.5829 H   0  0  0  0  0  0  0  0  0  0  0  0
    1.5650   -0.5392    1.2894 H   0  0  0  0  0  0  0  0  0  0  0  0
    1.5674    2.4147    5.5366 H   0  0  0  0  0  0  0  0  0  0  0  0
    0.6871    0.9538    6.0453 H   0  0  0  0  0  0  0  0  0  0  0  0
   -1.1553    1.7864    1.7857 H   0  0  0  0  0  0  0  0  0  0  0  0
   -0.6294    0.1594    1.4700 H   0  0  0  0  0  0  0  0  0  0  0  0
    0.3406    1.5145    0.9184 H   0  0  0  0  0  0  0  0  0  0  0  0
    3.0129    0.1060    6.2117 H   0  0  0  0  0  0  0  0  0  0  0  0
    4.9465    1.3459    4.2408 H   0  0  0  0  0  0  0  0  0  0  0  0
    3.9927    2.2317    5.3997 H   0  0  0  0  0  0  0  0  0  0  0  0
    6.2062    1.7569    6.3596 H   0  0  0  0  0  0  0  0  0  0  0  0
    4.9501    0.9491    7.2746 H   0  0  0  0  0  0  0  0  0  0  0  0
    6.8244   -0.2564    5.2336 H   0  0  0  0  0  0  0  0  0  0  0  0
    6.3821   -0.8133    7.9235 H   0  0  0  0  0  0  0  0  0  0  0  0
    5.6996   -2.3862    5.4274 H   0  0  0  0  0  0  0  0  0  0  0  0
    4.7855   -1.8688    6.7923 H   0  0  0  0  0  0  0  0  0  0  0  0
    3.1158   -3.3046    5.1867 H   0  0  0  0  0  0  0  0  0  0  0  0
    1.8462   -2.1060    4.9060 H   0  0  0  0  0  0  0  0  0  0  0  0
    2.6509   -2.1692    6.4430 H   0  0  0  0  0  0  0  0  0  0  0  0
    4.5901   -2.6154    3.4337 H   0  0  0  0  0  0  0  0  0  0  0  0
    5.0607    0.1651    2.3877 H   0  0  0  0  0  0  0  0  0  0  0  0
    6.2177   -0.7306    3.3225 H   0  0  0  0  0  0  0  0  0  0  0  0
    6.6391   -1.0019    0.9421 H   0  0  0  0  0  0  0  0  0  0  0  0
    6.3419   -2.5109    1.7477 H   0  0  0  0  0  0  0  0  0  0  0  0
    4.4925    0.2466    0.0764 H   0  0  0  0  0  0  0  0  0  0  0  0
    3.6140   -0.7015   -1.1027 H   0  0  0  0  0  0  0  0  0  0  0  0
    5.3527   -0.5342   -1.2291 H   0  0  0  0  0  0  0  0  0  0  0  0
  1  2  1  0
  1 30  1  0
  1 31  1  0
  1 32  1  0
  2  3  2  0
  2  4  1  0
  4 28  1  0
  4  5  1  0
  4 33  1  6
  5  6  1  0
  5 34  1  0
  5 35  1  0
  6  7  1  0
  6 36  1  0
  6 37  1  0
  7 28  1  0
  7  8  1  0
  7 38  1  6
  8 25  1  0
  8  9  1  0
  8 39  1  1
  9 40  1  0
  9 41  1  0
  9 10  1  0
 10 15  1  0
 10 11  2  0
 11 12  1  0
 11 17  1  0
 12 13  1  0
 12 43  1  0
 12 42  1  0
 13 15  1  0
 13 14  2  0
 15 16  1  0
 16 44  1  0
 16 45  1  0
 16 46  1  0
 17 23  1  0
 17 18  1  0
 17 47  1  1
 18 19  1  0
 18 48  1  0
 18 49  1  0
 19 20  1  0
 19 50  1  0
 19 51  1  0
 20 21  1  0
 20 22  1  0
 20 52  1  6
 21 53  1  0
 22 23  1  0
 22 54  1  0
 22 55  1  0
 23 24  1  1
 23 25  1  0
 24 56  1  0
 24 57  1  0
 24 58  1  0
 25 26  1  0
 25 59  1  1
 26 27  1  0
 26 60  1  0
 26 61  1  0
 27 28  1  0
 27 62  1  0
 27 63  1  0
 28 29  1  6
 29 64  1  0
 29 65  1  0
 29 66  1  0
M  END
>  <i_m_ct_stereo_status>  (92) 
1

>  <s_m_source_file>  (92) 
/var/tmp/pbs.5076255.sched01/tmp7dv9smms/08akalw19.sdf

>  <i_m_source_file_index>  (92) 
34

>  <i_lp_mmshare_version>  (92) 
48012

>  <i_f3d_flags>  (92) 
0

>  <s_epik_input>  (92) 
W0NIM11DKD1PKVtDQEhdKFtDSDJdW0NIMl0xKVtDQF0oW0NIM10pKFtDSDJdW0NIMl1bQ0BIXTIzKVtDQEBIXTFbQ0BASF0yW0NIMl1bQ0BASF0oTihbQ0gzXSlDKD1PKVtDSF00KUM9NFtDQEBIXShbQ0BAXTM1W0NIM10pW0NIMl1bQ0gyXVtDQEBIXShbT0hdKVtDSDJdNQ==

>  <s_epik_cmdline>  (92) 
J2VwaWtfcHl0aG9uJywgJy1waHQnLCAnMi4wJywgJy1waCcsICc3LjAnLCAnLXRuJywgJzgnLCAnLW1hJywgJzIwMCcsICctaW1hZScsICc8aW5maWxlLm1hZT4nLCAnLW9tYWUnLCAnPG91dGZpbGUubWFlPic=

>  <r_lp_tautomer_probability>  (92) 
0.0382385

>  <r_epik_Ionization_Penalty>  (92) 
6.78221e-07

>  <r_epik_Ionization_Penalty_Charging>  (92) 
0

>  <r_epik_Ionization_Penalty_Neutral>  (92) 
6.78221e-07

>  <r_epik_State_Penalty>  (92) 
2.05757

>  <r_epik_Charging_Adjusted_Penalty>  (92) 
2.05757

>  <i_epik_Tot_Q>  (92) 
0

>  <i_epik_Tot_abs_Q>  (92) 
0

>  <s_lp_Force_Field>  (92) 
OPLS3e

>  <r_lp_Energy>  (92) 
47.6042

>  <b_lp_Chiralities_Consistent>  (92) 
1

>  <s_lp_Variant>  (92) 
19:0-2

>  <s_i_glide_gridfile>  (92) 
pfpi4k_grid

>  <i_i_glide_lignum>  (92) 
34

>  <i_i_glide_rotatable_bonds>  (92) 
2

>  <r_i_docking_score>  (92) 
-2.85081

>  <r_i_glide_ligand_efficiency>  (92) 
-0.0983039

>  <r_i_glide_ligand_efficiency_sa>  (92) 
-0.302021

>  <r_i_glide_ligand_efficiency_ln>  (92) 
-0.652764

>  <r_i_glide_gscore>  (92) 
-2.85081

>  <r_i_glide_lipo>  (92) 
-0.513646

>  <r_i_glide_hbond>  (92) 
0

>  <r_i_glide_metal>  (92) 
-0

>  <r_i_glide_rewards>  (92) 
-0.686066

>  <r_i_glide_evdw>  (92) 
-24.9234

>  <r_i_glide_ecoul>  (92) 
-2.33045

>  <r_i_glide_erotb>  (92) 
0

>  <r_i_glide_esite>  (92) 
-0.0553662

>  <r_i_glide_emodel>  (92) 
-31.1273

>  <r_i_glide_energy>  (92) 
-27.2538

>  <r_i_glide_einternal>  (92) 
1.80959

>  <r_i_glide_intrahb_reward>  (92) 
-0

>  <i_i_glide_confnum>  (92) 
2

>  <i_i_glide_posenum>  (92) 
23

>  <r_i_glide_eff_state_penalty>  (92) 
0

>  <ligand_id>  (92) 
19

>  <original_smiles>  (92) 
CC(=O)C1CCC2C3CC4C(=CC(=O)N4C)C4CCC(O)CC4(C)C3CCC12C

>  <smiles>  (92) 
[H]OC1([H])C([H])([H])C([H])([H])C2([H])C3=C(N(C([H])([H])[H])C(=O)C3([H])[H])C([H])([H])C3([H])C4([H])C([H])([H])C([H])([H])C([H])(C(=O)C([H])([H])[H])C4(C([H])([H])[H])C([H])([H])C([H])([H])C3([H])C2(C([H])([H])[H])C1([H])[H]

$$$$
19:1:2
     RDKit          3D

 66 70  0  0  1  0  0  0  0  0999 V2000
    3.8538   -1.9184   -1.7773 C   0  0  0  0  0  0  0  0  0  0  0  0
    5.1360   -2.1195   -0.9691 C   0  0  0  0  0  0  0  0  0  0  0  0
    6.2283   -1.8537   -1.4632 O   0  0  0  0  0  0  0  0  0  0  0  0
    5.0580   -2.6639    0.4809 C   0  0  2  0  0  0  0  0  0  0  0  0
    4.2450   -3.9649    0.5385 C   0  0  0  0  0  0  0  0  0  0  0  0
    2.8063   -3.5425    0.8741 C   0  0  0  0  0  0  0  0  0  0  0  0
    2.8693   -2.0900    1.3961 C   0  0  1  0  0  0  0  0  0  0  0  0
    1.9417   -1.7991    2.6053 C   0  0  2  0  0  0  0  0  0  0  0  0
    1.5850   -0.2940    2.6590 C   0  0  0  0  0  0  0  0  0  0  0  0
    0.5285    0.1264    3.6755 C   0  0  0  0  0  0  0  0  0  0  0  0
    0.3481   -0.2566    4.9421 C   0  0  0  0  0  0  0  0  0  0  0  0
   -0.7944    0.5107    5.5407 C   0  0  0  0  0  0  0  0  0  0  0  0
   -1.1794    1.4027    4.3877 C   0  0  0  0  0  0  0  0  0  0  0  0
   -2.0859    2.2472    4.4625 O   0  0  0  0  0  0  0  0  0  0  0  0
   -0.3868    1.1287    3.3499 N   0  0  0  0  0  0  0  0  0  0  0  0
   -0.4366    1.8335    2.0729 C   0  0  0  0  0  0  0  0  0  0  0  0
    1.0893   -1.2701    5.8169 C   0  0  2  0  0  0  0  0  0  0  0  0
    2.1127   -0.5939    6.7406 C   0  0  0  0  0  0  0  0  0  0  0  0
    2.4689   -1.5443    7.8857 C   0  0  0  0  0  0  0  0  0  0  0  0
    3.0766   -2.8371    7.3455 C   0  0  1  0  0  0  0  0  0  0  0  0
    3.2317   -3.7447    8.4060 O   0  0  0  0  0  0  0  0  0  0  0  0
    2.2230   -3.5033    6.2459 C   0  0  0  0  0  0  0  0  0  0  0  0
    1.5897   -2.5780    5.1401 C   0  0  1  0  0  0  0  0  0  0  0  0
    0.3300   -3.3517    4.6667 C   0  0  0  0  0  0  0  0  0  0  0  0
    2.5498   -2.4081    3.8976 C   0  0  2  0  0  0  0  0  0  0  0  0
    3.9461   -1.7953    4.1133 C   0  0  0  0  0  0  0  0  0  0  0  0
    4.8972   -2.1435    2.9542 C   0  0  0  0  0  0  0  0  0  0  0  0
    4.3807   -1.7427    1.5407 C   0  0  1  0  0  0  0  0  0  0  0  0
    4.7149   -0.2484    1.2930 C   0  0  0  0  0  0  0  0  0  0  0  0
    3.2125   -1.1750   -1.3097 H   0  0  0  0  0  0  0  0  0  0  0  0
    3.3030   -2.8509   -1.8539 H   0  0  0  0  0  0  0  0  0  0  0  0
    4.0659   -1.5733   -2.7891 H   0  0  0  0  0  0  0  0  0  0  0  0
    6.0895   -2.8671    0.7749 H   0  0  0  0  0  0  0  0  0  0  0  0
    4.3110   -4.5472   -0.3842 H   0  0  0  0  0  0  0  0  0  0  0  0
    4.6319   -4.6140    1.3292 H   0  0  0  0  0  0  0  0  0  0  0  0
    2.1969   -3.5699   -0.0272 H   0  0  0  0  0  0  0  0  0  0  0  0
    2.3545   -4.2472    1.5744 H   0  0  0  0  0  0  0  0  0  0  0  0
    2.4751   -1.4749    0.5956 H   0  0  0  0  0  0  0  0  0  0  0  0
    1.0129   -2.3055    2.3680 H   0  0  0  0  0  0  0  0  0  0  0  0
    2.4638    0.3127    2.8586 H   0  0  0  0  0  0  0  0  0  0  0  0
    1.2619    0.0018    1.6603 H   0  0  0  0  0  0  0  0  0  0  0  0
   -0.4827    1.0974    6.4106 H   0  0  0  0  0  0  0  0  0  0  0  0
   -1.6185   -0.1511    5.8211 H   0  0  0  0  0  0  0  0  0  0  0  0
   -1.1645    2.6443    2.0924 H   0  0  0  0  0  0  0  0  0  0  0  0
   -0.7237    1.1502    1.2803 H   0  0  0  0  0  0  0  0  0  0  0  0
    0.5286    2.2697    1.8196 H   0  0  0  0  0  0  0  0  0  0  0  0
    0.2895   -1.6004    6.4795 H   0  0  0  0  0  0  0  0  0  0  0  0
    3.0111   -0.2982    6.1996 H   0  0  0  0  0  0  0  0  0  0  0  0
    1.6985    0.3195    7.1594 H   0  0  0  0  0  0  0  0  0  0  0  0
    3.1623   -1.0597    8.5736 H   0  0  0  0  0  0  0  0  0  0  0  0
    1.5682   -1.7686    8.4590 H   0  0  0  0  0  0  0  0  0  0  0  0
    4.0835   -2.6247    6.9925 H   0  0  0  0  0  0  0  0  0  0  0  0
    2.3630   -3.9673    8.7390 H   0  0  0  0  0  0  0  0  0  0  0  0
    2.8249   -4.2634    5.7702 H   0  0  0  0  0  0  0  0  0  0  0  0
    1.4178   -4.0577    6.7495 H   0  0  0  0  0  0  0  0  0  0  0  0
    0.5895   -4.2848    4.1613 H   0  0  0  0  0  0  0  0  0  0  0  0
   -0.2913   -2.7573    3.9939 H   0  0  0  0  0  0  0  0  0  0  0  0
   -0.3167   -3.6101    5.5046 H   0  0  0  0  0  0  0  0  0  0  0  0
    2.7605   -3.4379    3.6355 H   0  0  0  0  0  0  0  0  0  0  0  0
    3.8976   -0.7140    4.2250 H   0  0  0  0  0  0  0  0  0  0  0  0
    4.4060   -2.1851    5.0165 H   0  0  0  0  0  0  0  0  0  0  0  0
    5.8512   -1.6575    3.1348 H   0  0  0  0  0  0  0  0  0  0  0  0
    5.1019   -3.2177    2.9991 H   0  0  0  0  0  0  0  0  0  0  0  0
    4.4806    0.3767    2.1485 H   0  0  0  0  0  0  0  0  0  0  0  0
    4.1764    0.1608    0.4399 H   0  0  0  0  0  0  0  0  0  0  0  0
    5.7783   -0.1063    1.0931 H   0  0  0  0  0  0  0  0  0  0  0  0
  1  2  1  0
  1 30  1  0
  1 31  1  0
  1 32  1  0
  2  3  2  0
  2  4  1  0
  4 28  1  0
  4  5  1  0
  4 33  1  1
  5  6  1  0
  5 34  1  0
  5 35  1  0
  6  7  1  0
  6 36  1  0
  6 37  1  0
  7 28  1  0
  7  8  1  0
  7 38  1  6
  8 25  1  0
  8  9  1  0
  8 39  1  6
  9 40  1  0
  9 41  1  0
  9 10  1  0
 10 15  1  0
 10 11  2  0
 11 12  1  0
 11 17  1  0
 12 13  1  0
 12 43  1  0
 12 42  1  0
 13 15  1  0
 13 14  2  0
 15 16  1  0
 16 44  1  0
 16 45  1  0
 16 46  1  0
 17 23  1  0
 17 18  1  0
 17 47  1  1
 18 19  1  0
 18 48  1  0
 18 49  1  0
 19 20  1  0
 19 50  1  0
 19 51  1  0
 20 21  1  0
 20 22  1  0
 20 52  1  6
 21 53  1  0
 22 23  1  0
 22 54  1  0
 22 55  1  0
 23 24  1  6
 23 25  1  0
 24 56  1  0
 24 57  1  0
 24 58  1  0
 25 26  1  0
 25 59  1  6
 26 27  1  0
 26 60  1  0
 26 61  1  0
 27 28  1  0
 27 62  1  0
 27 63  1  0
 28 29  1  6
 29 64  1  0
 29 65  1  0
 29 66  1  0
M  END
>  <i_m_ct_stereo_status>  (93) 
1

>  <s_m_source_file>  (93) 
/var/tmp/pbs.5076255.sched01/tmp7dv9smms/08akalw19.sdf

>  <i_m_source_file_index>  (93) 
34

>  <i_lp_mmshare_version>  (93) 
48012

>  <i_f3d_flags>  (93) 
0

>  <s_epik_input>  (93) 
W0NIM11DKD1PKVtDQEhdKFtDSDJdW0NIMl0xKVtDQF0oW0NIM10pKFtDSDJdW0NIMl1bQ0BIXTIzKVtDQEBIXTFbQ0BASF0yW0NIMl1bQ0BASF0oTihbQ0gzXSlDKD1PKVtDSF00KUM9NFtDQEBIXShbQ0BAXTM1W0NIM10pW0NIMl1bQ0gyXVtDQEBIXShbT0hdKVtDSDJdNQ==

>  <s_epik_cmdline>  (93) 
J2VwaWtfcHl0aG9uJywgJy1waHQnLCAnMi4wJywgJy1waCcsICc3LjAnLCAnLXRuJywgJzgnLCAnLW1hJywgJzIwMCcsICctaW1hZScsICc8aW5maWxlLm1hZT4nLCAnLW9tYWUnLCAnPG91dGZpbGUubWFlPic=

>  <r_lp_tautomer_probability>  (93) 
0.0382385

>  <r_epik_Ionization_Penalty>  (93) 
6.78221e-07

>  <r_epik_Ionization_Penalty_Charging>  (93) 
0

>  <r_epik_Ionization_Penalty_Neutral>  (93) 
6.78221e-07

>  <r_epik_State_Penalty>  (93) 
2.05757

>  <r_epik_Charging_Adjusted_Penalty>  (93) 
2.05757

>  <i_epik_Tot_Q>  (93) 
0

>  <i_epik_Tot_abs_Q>  (93) 
0

>  <s_lp_Force_Field>  (93) 
OPLS3e

>  <r_lp_Energy>  (93) 
47.6042

>  <b_lp_Chiralities_Consistent>  (93) 
1

>  <s_lp_Variant>  (93) 
19:0-2

>  <s_i_glide_gridfile>  (93) 
pfpi4k_grid

>  <i_i_glide_lignum>  (93) 
34

>  <i_i_glide_rotatable_bonds>  (93) 
2

>  <r_i_docking_score>  (93) 
-2.84047

>  <r_i_glide_ligand_efficiency>  (93) 
-0.0979474

>  <r_i_glide_ligand_efficiency_sa>  (93) 
-0.300925

>  <r_i_glide_ligand_efficiency_ln>  (93) 
-0.650396

>  <r_i_glide_gscore>  (93) 
-2.84047

>  <r_i_glide_lipo>  (93) 
-0.266743

>  <r_i_glide_hbond>  (93) 
-0.145415

>  <r_i_glide_metal>  (93) 
-0

>  <r_i_glide_rewards>  (93) 
-0.684776

>  <r_i_glide_evdw>  (93) 
-23.0565

>  <r_i_glide_ecoul>  (93) 
-3.448

>  <r_i_glide_erotb>  (93) 
0

>  <r_i_glide_esite>  (93) 
-0.0735166

>  <r_i_glide_emodel>  (93) 
-30.5216

>  <r_i_glide_energy>  (93) 
-26.5045

>  <r_i_glide_einternal>  (93) 
1.59455

>  <r_i_glide_intrahb_reward>  (93) 
-0

>  <i_i_glide_confnum>  (93) 
1

>  <i_i_glide_posenum>  (93) 
19

>  <r_i_glide_eff_state_penalty>  (93) 
0

>  <ligand_id>  (93) 
19

>  <original_smiles>  (93) 
CC(=O)C1CCC2C3CC4C(=CC(=O)N4C)C4CCC(O)CC4(C)C3CCC12C

>  <smiles>  (93) 
[H]OC1([H])C([H])([H])C([H])([H])C2([H])C3=C(N(C([H])([H])[H])C(=O)C3([H])[H])C([H])([H])C3([H])C4([H])C([H])([H])C([H])([H])C([H])(C(=O)C([H])([H])[H])C4(C([H])([H])[H])C([H])([H])C([H])([H])C3([H])C2(C([H])([H])[H])C1([H])[H]

$$$$
20:0:0
     RDKit          3D

 76 80  0  0  1  0  0  0  0  0999 V2000
    3.0579   -3.5531   -0.4184 C   0  0  0  0  0  0  0  0  0  0  0  0
    4.3292   -3.3871    0.4579 C   0  0  0  0  0  0  0  0  0  0  0  0
    5.1866   -4.6592    0.3486 C   0  0  0  0  0  0  0  0  0  0  0  0
    5.1223   -2.1049    0.0481 C   0  0  1  0  0  0  0  0  0  0  0  0
    5.1145   -1.7772   -1.3286 O   0  0  0  0  0  0  0  0  0  0  0  0
    4.4889   -1.0292    0.8978 C   0  0  0  0  0  0  0  0  0  0  0  0
    3.8604   -1.5499    1.9539 C   0  0  0  0  0  0  0  0  0  0  0  0
    3.9726   -3.0545    1.9444 C   0  0  1  0  0  0  0  0  0  0  0  0
    2.8200   -3.8030    2.6426 C   0  0  0  0  0  0  0  0  0  0  0  0
    1.8259   -2.9077    3.4186 C   0  0  1  0  0  0  0  0  0  0  0  0
    1.1062   -3.7924    4.2536 O   0  0  0  0  0  0  0  0  0  0  0  0
    2.4601   -1.6731    4.1669 C   0  0  1  0  0  0  0  0  0  0  0  0
    3.6114   -2.1760    5.0982 C   0  0  0  0  0  0  0  0  0  0  0  0
    3.0575   -0.7991    3.0213 C   0  0  1  0  0  0  0  0  0  0  0  0
    3.7967    0.3998    3.5957 C   0  0  0  0  0  0  0  0  0  0  0  0
    2.7945    1.3318    4.2509 C   0  0  0  0  0  0  0  0  0  0  0  0
    1.9112    0.6829    5.3532 C   0  0  1  0  0  0  0  0  0  0  0  0
    0.8305    1.7025    5.9606 C   0  0  1  0  0  0  0  0  0  0  0  0
    0.6535    1.3811    7.4741 C   0  0  0  0  0  0  0  0  0  0  0  0
    1.3596    3.1743    6.0050 C   0  0  0  0  0  0  0  0  0  0  0  0
    1.0479    3.9953    4.7597 C   0  0  0  0  0  0  0  0  0  0  0  0
    1.9165    4.5545    4.0904 O   0  0  0  0  0  0  0  0  0  0  0  0
   -0.4380    4.0873    4.4596 C   0  0  1  0  0  0  0  0  0  0  0  0
   -0.7193    5.0246    3.4265 O   0  0  0  0  0  0  0  0  0  0  0  0
   -1.0440    2.6844    4.1963 C   0  0  0  0  0  0  0  0  0  0  0  0
   -2.5775    2.9007    4.2507 C   0  0  0  0  0  0  0  0  0  0  0  0
   -0.7115    2.1870    2.7766 C   0  0  0  0  0  0  0  0  0  0  0  0
   -0.6145    1.6341    5.3043 C   0  0  1  0  0  0  0  0  0  0  0  0
   -1.0327    0.1790    4.9892 C   0  0  0  0  0  0  0  0  0  0  0  0
    0.0442   -0.6686    4.2787 C   0  0  0  0  0  0  0  0  0  0  0  0
    1.4033   -0.8006    5.0285 C   0  0  1  0  0  0  0  0  0  0  0  0
    1.1536   -1.5460    6.3846 C   0  0  0  0  0  0  0  0  0  0  0  0
    3.2992   -3.6099   -1.4820 H   0  0  0  0  0  0  0  0  0  0  0  0
    2.3626   -2.7209   -0.2804 H   0  0  0  0  0  0  0  0  0  0  0  0
    2.5217   -4.4770   -0.1961 H   0  0  0  0  0  0  0  0  0  0  0  0
    6.1023   -4.5784    0.9318 H   0  0  0  0  0  0  0  0  0  0  0  0
    5.4715   -4.8550   -0.6845 H   0  0  0  0  0  0  0  0  0  0  0  0
    4.6476   -5.5355    0.7082 H   0  0  0  0  0  0  0  0  0  0  0  0
    6.1643   -2.1907    0.3635 H   0  0  0  0  0  0  0  0  0  0  0  0
    4.2161   -1.7674   -1.6287 H   0  0  0  0  0  0  0  0  0  0  0  0
    4.5509    0.0184    0.6385 H   0  0  0  0  0  0  0  0  0  0  0  0
    4.8685   -3.2459    2.5373 H   0  0  0  0  0  0  0  0  0  0  0  0
    2.2563   -4.4220    1.9481 H   0  0  0  0  0  0  0  0  0  0  0  0
    3.2811   -4.5205    3.3234 H   0  0  0  0  0  0  0  0  0  0  0  0
    1.1201   -2.5329    2.6768 H   0  0  0  0  0  0  0  0  0  0  0  0
    0.7893   -4.5141    3.7334 H   0  0  0  0  0  0  0  0  0  0  0  0
    3.9017   -1.4266    5.8357 H   0  0  0  0  0  0  0  0  0  0  0  0
    4.5165   -2.4260    4.5506 H   0  0  0  0  0  0  0  0  0  0  0  0
    3.3315   -3.0734    5.6512 H   0  0  0  0  0  0  0  0  0  0  0  0
    2.2316   -0.4047    2.4314 H   0  0  0  0  0  0  0  0  0  0  0  0
    4.5847    0.1111    4.2897 H   0  0  0  0  0  0  0  0  0  0  0  0
    4.2927    0.9432    2.7989 H   0  0  0  0  0  0  0  0  0  0  0  0
    3.3823    2.1469    4.6700 H   0  0  0  0  0  0  0  0  0  0  0  0
    2.1980    1.7716    3.4646 H   0  0  0  0  0  0  0  0  0  0  0  0
    2.6575    0.5604    6.1378 H   0  0  0  0  0  0  0  0  0  0  0  0
    0.1165    2.1722    8.0004 H   0  0  0  0  0  0  0  0  0  0  0  0
    1.6120    1.2650    7.9838 H   0  0  0  0  0  0  0  0  0  0  0  0
    0.0669    0.4882    7.6617 H   0  0  0  0  0  0  0  0  0  0  0  0
    0.8667    3.7195    6.8097 H   0  0  0  0  0  0  0  0  0  0  0  0
    2.4210    3.2169    6.2426 H   0  0  0  0  0  0  0  0  0  0  0  0
   -0.8966    4.4895    5.3627 H   0  0  0  0  0  0  0  0  0  0  0  0
   -0.2810    4.7476    2.6216 H   0  0  0  0  0  0  0  0  0  0  0  0
   -3.0994    1.9738    4.0424 H   0  0  0  0  0  0  0  0  0  0  0  0
   -2.9160    3.6230    3.5035 H   0  0  0  0  0  0  0  0  0  0  0  0
   -2.9013    3.2676    5.2286 H   0  0  0  0  0  0  0  0  0  0  0  0
   -1.2424    1.2748    2.5011 H   0  0  0  0  0  0  0  0  0  0  0  0
    0.3491    2.0317    2.6118 H   0  0  0  0  0  0  0  0  0  0  0  0
   -1.0249    2.9393    2.0633 H   0  0  0  0  0  0  0  0  0  0  0  0
   -1.2799    1.9169    6.1210 H   0  0  0  0  0  0  0  0  0  0  0  0
   -1.3505   -0.3022    5.9091 H   0  0  0  0  0  0  0  0  0  0  0  0
   -1.9321    0.1616    4.3768 H   0  0  0  0  0  0  0  0  0  0  0  0
   -0.3964   -1.6483    4.1155 H   0  0  0  0  0  0  0  0  0  0  0  0
    0.2141   -0.2632    3.2866 H   0  0  0  0  0  0  0  0  0  0  0  0
    0.1598   -1.4144    6.7961 H   0  0  0  0  0  0  0  0  0  0  0  0
    1.8643   -1.2363    7.1517 H   0  0  0  0  0  0  0  0  0  0  0  0
    1.2532   -2.6227    6.3182 H   0  0  0  0  0  0  0  0  0  0  0  0
  1  2  1  0
  1 33  1  0
  1 34  1  0
  1 35  1  0
  2  8  1  0
  2  3  1  0
  2  4  1  0
  3 36  1  0
  3 37  1  0
  3 38  1  0
  4  5  1  0
  4  6  1  0
  4 39  1  1
  5 40  1  0
  6  7  2  0
  6 41  1  0
  7 14  1  0
  7  8  1  0
  8  9  1  0
  8 42  1  1
  9 10  1  0
  9 43  1  0
  9 44  1  0
 10 11  1  0
 10 12  1  0
 10 45  1  6
 11 46  1  0
 12 31  1  0
 12 13  1  1
 12 14  1  0
 13 47  1  0
 13 48  1  0
 13 49  1  0
 14 15  1  0
 14 50  1  6
 15 16  1  0
 15 51  1  0
 15 52  1  0
 16 17  1  0
 16 53  1  0
 16 54  1  0
 17 31  1  0
 17 18  1  0
 17 55  1  1
 18 28  1  0
 18 19  1  1
 18 20  1  0
 19 56  1  0
 19 57  1  0
 19 58  1  0
 20 21  1  0
 20 59  1  0
 20 60  1  0
 21 22  2  0
 21 23  1  0
 23 24  1  0
 23 25  1  0
 23 61  1  1
 24 62  1  0
 25 26  1  0
 25 27  1  0
 25 28  1  0
 26 63  1  0
 26 64  1  0
 26 65  1  0
 27 66  1  0
 27 67  1  0
 27 68  1  0
 28 29  1  0
 28 69  1  1
 29 30  1  0
 29 70  1  0
 29 71  1  0
 30 31  1  0
 30 72  1  0
 30 73  1  0
 31 32  1  1
 32 74  1  0
 32 75  1  0
 32 76  1  0
M  END
>  <i_m_ct_stereo_status>  (94) 
1

>  <s_m_source_file>  (94) 
/var/tmp/pbs.5076255.sched01/tmp7dv9smms/08akalw19.sdf

>  <i_m_source_file_index>  (94) 
35

>  <i_lp_mmshare_version>  (94) 
48012

>  <i_f3d_flags>  (94) 
0

>  <s_epik_input>  (94) 
W09IXVtDQEBIXShbQ0hdPTEpQyhbQ0gzXSkoW0NIM10pW0NASF0oW0NIMl1bQ0BIXTJbT0hdKUMxW0NAQEhdKFtDQF0yM1tDSDNdKVtDSDJdW0NIMl1bQ0BIXTRbQ0BdNShbQ0gzXSlbQ0BASF0oQyhbQ0gzXSkoW0NIM10pW0NASF0oW09IXSlDKD1PKVtDSDJdNSlbQ0gyXVtDSDJdW0NAQF0zNFtDSDNd

>  <s_epik_cmdline>  (94) 
J2VwaWtfcHl0aG9uJywgJy1waHQnLCAnMi4wJywgJy1waCcsICc3LjAnLCAnLXRuJywgJzgnLCAnLW1hJywgJzIwMCcsICctaW1hZScsICc8aW5maWxlLm1hZT4nLCAnLW9tYWUnLCAnPG91dGZpbGUubWFlPic=

>  <r_lp_tautomer_probability>  (94) 
1

>  <r_epik_Ionization_Penalty>  (94) 
1.91073e-06

>  <r_epik_Ionization_Penalty_Charging>  (94) 
0

>  <r_epik_Ionization_Penalty_Neutral>  (94) 
1.91073e-06

>  <r_epik_State_Penalty>  (94) 
-0

>  <r_epik_Charging_Adjusted_Penalty>  (94) 
0

>  <i_epik_Tot_Q>  (94) 
0

>  <i_epik_Tot_abs_Q>  (94) 
0

>  <s_lp_Force_Field>  (94) 
OPLS3e

>  <r_lp_Energy>  (94) 
89.1907

>  <b_lp_Chiralities_Consistent>  (94) 
1

>  <s_lp_Variant>  (94) 
20:0-1

>  <s_i_glide_gridfile>  (94) 
pfpi4k_grid

>  <i_i_glide_lignum>  (94) 
35

>  <i_i_glide_rotatable_bonds>  (94) 
3

>  <r_i_docking_score>  (94) 
-2.90039

>  <r_i_glide_ligand_efficiency>  (94) 
-0.0906373

>  <r_i_glide_ligand_efficiency_sa>  (94) 
-0.287755

>  <r_i_glide_ligand_efficiency_ln>  (94) 
-0.649477

>  <r_i_glide_gscore>  (94) 
-2.90039

>  <r_i_glide_lipo>  (94) 
-0.168503

>  <r_i_glide_hbond>  (94) 
0

>  <r_i_glide_metal>  (94) 
-0

>  <r_i_glide_rewards>  (94) 
-0.37741

>  <r_i_glide_evdw>  (94) 
-29.036

>  <r_i_glide_ecoul>  (94) 
-5.89828

>  <r_i_glide_erotb>  (94) 
0

>  <r_i_glide_esite>  (94) 
-0.0179361

>  <r_i_glide_emodel>  (94) 
-40.7445

>  <r_i_glide_energy>  (94) 
-34.9343

>  <r_i_glide_einternal>  (94) 
1.66388

>  <r_i_glide_intrahb_reward>  (94) 
-0

>  <i_i_glide_confnum>  (94) 
1

>  <i_i_glide_posenum>  (94) 
40

>  <r_i_glide_eff_state_penalty>  (94) 
0

>  <ligand_id>  (94) 
20

>  <original_smiles>  (94) 
CC1(C)C(O)C=C2C1CC(O)C1(C)C2CCC2C3(C)CC(=O)C(O)C(C)(C)C3CCC21C

>  <smiles>  (94) 
[H]OC1([H])C([H])=C2C([H])(C([H])([H])C([H])(O[H])C3(C([H])([H])[H])C2([H])C([H])([H])C([H])([H])C2([H])C4(C([H])([H])[H])C([H])([H])C(=O)C([H])(O[H])C(C([H])([H])[H])(C([H])([H])[H])C4([H])C([H])([H])C([H])([H])C23C([H])([H])[H])C1(C([H])([H])[H])C([H])([H])[H]

$$$$
20:0:1
     RDKit          3D

 76 80  0  0  1  0  0  0  0  0999 V2000
    3.0949   -3.4618   -0.7721 C   0  0  0  0  0  0  0  0  0  0  0  0
    4.3606   -3.3833    0.1222 C   0  0  0  0  0  0  0  0  0  0  0  0
    5.1882   -4.6639   -0.0728 C   0  0  0  0  0  0  0  0  0  0  0  0
    5.1865   -2.0953   -0.1894 C   0  0  1  0  0  0  0  0  0  0  0  0
    5.1940   -1.6667   -1.5373 O   0  0  0  0  0  0  0  0  0  0  0  0
    4.5738   -1.0690    0.7325 C   0  0  0  0  0  0  0  0  0  0  0  0
    3.9259   -1.6498    1.7452 C   0  0  0  0  0  0  0  0  0  0  0  0
    4.0015   -3.1519    1.6259 C   0  0  1  0  0  0  0  0  0  0  0  0
    2.8270   -3.9206    2.2633 C   0  0  0  0  0  0  0  0  0  0  0  0
    1.8520   -3.0592    3.0984 C   0  0  1  0  0  0  0  0  0  0  0  0
    1.1002   -3.9896    3.8490 O   0  0  0  0  0  0  0  0  0  0  0  0
    2.5086   -1.8993    3.9365 C   0  0  1  0  0  0  0  0  0  0  0  0
    3.6410   -2.4937    4.8341 C   0  0  0  0  0  0  0  0  0  0  0  0
    3.1321   -0.9592    2.8584 C   0  0  1  0  0  0  0  0  0  0  0  0
    3.8984    0.1784    3.5194 C   0  0  0  0  0  0  0  0  0  0  0  0
    2.9094    1.0805    4.2348 C   0  0  0  0  0  0  0  0  0  0  0  0
    2.0060    0.3764    5.2853 C   0  0  1  0  0  0  0  0  0  0  0  0
    0.9434    1.3741    5.9575 C   0  0  1  0  0  0  0  0  0  0  0  0
    0.7455    0.9483    7.4423 C   0  0  0  0  0  0  0  0  0  0  0  0
    1.5053    2.8246    6.1122 C   0  0  0  0  0  0  0  0  0  0  0  0
    1.2194    3.7429    4.9296 C   0  0  0  0  0  0  0  0  0  0  0  0
    2.1049    4.3254    4.3054 O   0  0  0  0  0  0  0  0  0  0  0  0
   -0.2646    3.8917    4.6307 C   0  0  1  0  0  0  0  0  0  0  0  0
   -0.5244    4.9133    3.6756 O   0  0  0  0  0  0  0  0  0  0  0  0
   -0.8965    2.5270    4.2480 C   0  0  0  0  0  0  0  0  0  0  0  0
   -2.4264    2.7562    4.3141 C   0  0  0  0  0  0  0  0  0  0  0  0
   -0.5653    2.1406    2.7888 C   0  0  0  0  0  0  0  0  0  0  0  0
   -0.4959    1.3887    5.2822 C   0  0  1  0  0  0  0  0  0  0  0  0
   -0.9459   -0.0300    4.8665 C   0  0  0  0  0  0  0  0  0  0  0  0
    0.1156   -0.8480    4.1048 C   0  0  0  0  0  0  0  0  0  0  0  0
    1.4653   -1.0687    4.8519 C   0  0  1  0  0  0  0  0  0  0  0  0
    1.1873   -1.9054    6.1480 C   0  0  0  0  0  0  0  0  0  0  0  0
    3.3421   -3.4434   -1.8357 H   0  0  0  0  0  0  0  0  0  0  0  0
    2.4100   -2.6362   -0.5725 H   0  0  0  0  0  0  0  0  0  0  0  0
    2.5418   -4.3895   -0.6214 H   0  0  0  0  0  0  0  0  0  0  0  0
    6.1053   -4.6483    0.5161 H   0  0  0  0  0  0  0  0  0  0  0  0
    5.4677   -4.7888   -1.1181 H   0  0  0  0  0  0  0  0  0  0  0  0
    4.6269   -5.5529    0.2189 H   0  0  0  0  0  0  0  0  0  0  0  0
    6.2241   -2.2260    0.1235 H   0  0  0  0  0  0  0  0  0  0  0  0
    4.3004   -1.6512   -1.8510 H   0  0  0  0  0  0  0  0  0  0  0  0
    4.6582   -0.0074    0.5498 H   0  0  0  0  0  0  0  0  0  0  0  0
    4.8875   -3.4075    2.2090 H   0  0  0  0  0  0  0  0  0  0  0  0
    2.2479   -4.4732    1.5274 H   0  0  0  0  0  0  0  0  0  0  0  0
    3.2636   -4.6973    2.8929 H   0  0  0  0  0  0  0  0  0  0  0  0
    1.1658   -2.6016    2.3861 H   0  0  0  0  0  0  0  0  0  0  0  0
    0.4516   -3.5096    4.3411 H   0  0  0  0  0  0  0  0  0  0  0  0
    3.9441   -1.8072    5.6260 H   0  0  0  0  0  0  0  0  0  0  0  0
    4.5418   -2.7257    4.2728 H   0  0  0  0  0  0  0  0  0  0  0  0
    3.3349   -3.4224    5.3164 H   0  0  0  0  0  0  0  0  0  0  0  0
    2.3213   -0.5040    2.2913 H   0  0  0  0  0  0  0  0  0  0  0  0
    4.6715   -0.1817    4.1976 H   0  0  0  0  0  0  0  0  0  0  0  0
    4.4174    0.7705    2.7721 H   0  0  0  0  0  0  0  0  0  0  0  0
    3.5109    1.8495    4.7153 H   0  0  0  0  0  0  0  0  0  0  0  0
    2.3260    1.5889    3.4806 H   0  0  0  0  0  0  0  0  0  0  0  0
    2.7437    0.1813    6.0644 H   0  0  0  0  0  0  0  0  0  0  0  0
    0.2233    1.7122    8.0193 H   0  0  0  0  0  0  0  0  0  0  0  0
    1.6972    0.7749    7.9470 H   0  0  0  0  0  0  0  0  0  0  0  0
    0.1387    0.0581    7.5613 H   0  0  0  0  0  0  0  0  0  0  0  0
    1.0193    3.3191    6.9513 H   0  0  0  0  0  0  0  0  0  0  0  0
    2.5649    2.8238    6.3582 H   0  0  0  0  0  0  0  0  0  0  0  0
   -0.7176    4.2309    5.5621 H   0  0  0  0  0  0  0  0  0  0  0  0
   -0.1802    4.6504    2.8223 H   0  0  0  0  0  0  0  0  0  0  0  0
   -2.9757    1.8556    4.0524 H   0  0  0  0  0  0  0  0  0  0  0  0
   -2.7496    3.5348    3.6205 H   0  0  0  0  0  0  0  0  0  0  0  0
   -2.7454    3.0648    5.3123 H   0  0  0  0  0  0  0  0  0  0  0  0
   -1.1110    1.2567    2.4611 H   0  0  0  0  0  0  0  0  0  0  0  0
    0.4925    1.9586    2.6342 H   0  0  0  0  0  0  0  0  0  0  0  0
   -0.8601    2.9275    2.0944 H   0  0  0  0  0  0  0  0  0  0  0  0
   -1.1607    1.6281    6.1127 H   0  0  0  0  0  0  0  0  0  0  0  0
   -1.2851   -0.5655    5.7482 H   0  0  0  0  0  0  0  0  0  0  0  0
   -1.8372    0.0170    4.2453 H   0  0  0  0  0  0  0  0  0  0  0  0
   -0.3504   -1.7991    3.8675 H   0  0  0  0  0  0  0  0  0  0  0  0
    0.3008   -0.3731    3.1462 H   0  0  0  0  0  0  0  0  0  0  0  0
    0.1942   -1.7785    6.5608 H   0  0  0  0  0  0  0  0  0  0  0  0
    1.8982   -1.6623    6.9376 H   0  0  0  0  0  0  0  0  0  0  0  0
    1.2697   -2.9762    6.0110 H   0  0  0  0  0  0  0  0  0  0  0  0
  1  2  1  0
  1 33  1  0
  1 34  1  0
  1 35  1  0
  2  8  1  0
  2  3  1  0
  2  4  1  0
  3 36  1  0
  3 37  1  0
  3 38  1  0
  4  5  1  0
  4  6  1  0
  4 39  1  1
  5 40  1  0
  6  7  2  0
  6 41  1  0
  7 14  1  0
  7  8  1  0
  8  9  1  0
  8 42  1  1
  9 10  1  0
  9 43  1  0
  9 44  1  0
 10 11  1  0
 10 12  1  0
 10 45  1  6
 11 46  1  0
 12 31  1  0
 12 13  1  1
 12 14  1  0
 13 47  1  0
 13 48  1  0
 13 49  1  0
 14 15  1  0
 14 50  1  6
 15 16  1  0
 15 51  1  0
 15 52  1  0
 16 17  1  0
 16 53  1  0
 16 54  1  0
 17 31  1  0
 17 18  1  0
 17 55  1  1
 18 28  1  0
 18 19  1  1
 18 20  1  0
 19 56  1  0
 19 57  1  0
 19 58  1  0
 20 21  1  0
 20 59  1  0
 20 60  1  0
 21 22  2  0
 21 23  1  0
 23 24  1  0
 23 25  1  0
 23 61  1  1
 24 62  1  0
 25 26  1  0
 25 27  1  0
 25 28  1  0
 26 63  1  0
 26 64  1  0
 26 65  1  0
 27 66  1  0
 27 67  1  0
 27 68  1  0
 28 29  1  0
 28 69  1  1
 29 30  1  0
 29 70  1  0
 29 71  1  0
 30 31  1  0
 30 72  1  0
 30 73  1  0
 31 32  1  1
 32 74  1  0
 32 75  1  0
 32 76  1  0
M  END
>  <i_m_ct_stereo_status>  (95) 
1

>  <s_m_source_file>  (95) 
/var/tmp/pbs.5076255.sched01/tmp7dv9smms/08akalw19.sdf

>  <i_m_source_file_index>  (95) 
35

>  <i_lp_mmshare_version>  (95) 
48012

>  <i_f3d_flags>  (95) 
0

>  <s_epik_input>  (95) 
W09IXVtDQEBIXShbQ0hdPTEpQyhbQ0gzXSkoW0NIM10pW0NASF0oW0NIMl1bQ0BIXTJbT0hdKUMxW0NAQEhdKFtDQF0yM1tDSDNdKVtDSDJdW0NIMl1bQ0BIXTRbQ0BdNShbQ0gzXSlbQ0BASF0oQyhbQ0gzXSkoW0NIM10pW0NASF0oW09IXSlDKD1PKVtDSDJdNSlbQ0gyXVtDSDJdW0NAQF0zNFtDSDNd

>  <s_epik_cmdline>  (95) 
J2VwaWtfcHl0aG9uJywgJy1waHQnLCAnMi4wJywgJy1waCcsICc3LjAnLCAnLXRuJywgJzgnLCAnLW1hJywgJzIwMCcsICctaW1hZScsICc8aW5maWxlLm1hZT4nLCAnLW9tYWUnLCAnPG91dGZpbGUubWFlPic=

>  <r_lp_tautomer_probability>  (95) 
1

>  <r_epik_Ionization_Penalty>  (95) 
1.91073e-06

>  <r_epik_Ionization_Penalty_Charging>  (95) 
0

>  <r_epik_Ionization_Penalty_Neutral>  (95) 
1.91073e-06

>  <r_epik_State_Penalty>  (95) 
-0

>  <r_epik_Charging_Adjusted_Penalty>  (95) 
0

>  <i_epik_Tot_Q>  (95) 
0

>  <i_epik_Tot_abs_Q>  (95) 
0

>  <s_lp_Force_Field>  (95) 
OPLS3e

>  <r_lp_Energy>  (95) 
89.1907

>  <b_lp_Chiralities_Consistent>  (95) 
1

>  <s_lp_Variant>  (95) 
20:0-1

>  <s_i_glide_gridfile>  (95) 
pfpi4k_grid

>  <i_i_glide_lignum>  (95) 
35

>  <i_i_glide_rotatable_bonds>  (95) 
3

>  <r_i_docking_score>  (95) 
-2.8541

>  <r_i_glide_ligand_efficiency>  (95) 
-0.0891905

>  <r_i_glide_ligand_efficiency_sa>  (95) 
-0.283162

>  <r_i_glide_ligand_efficiency_ln>  (95) 
-0.63911

>  <r_i_glide_gscore>  (95) 
-2.8541

>  <r_i_glide_lipo>  (95) 
-0.193931

>  <r_i_glide_hbond>  (95) 
0

>  <r_i_glide_metal>  (95) 
-0

>  <r_i_glide_rewards>  (95) 
-0.37741

>  <r_i_glide_evdw>  (95) 
-29.6811

>  <r_i_glide_ecoul>  (95) 
-5.25012

>  <r_i_glide_erotb>  (95) 
0

>  <r_i_glide_esite>  (95) 
-0.0111844

>  <r_i_glide_emodel>  (95) 
-40.7039

>  <r_i_glide_energy>  (95) 
-34.9312

>  <r_i_glide_einternal>  (95) 
1.64578

>  <r_i_glide_intrahb_reward>  (95) 
-0

>  <i_i_glide_confnum>  (95) 
1

>  <i_i_glide_posenum>  (95) 
38

>  <r_i_glide_eff_state_penalty>  (95) 
0

>  <ligand_id>  (95) 
20

>  <original_smiles>  (95) 
CC1(C)C(O)C=C2C1CC(O)C1(C)C2CCC2C3(C)CC(=O)C(O)C(C)(C)C3CCC21C

>  <smiles>  (95) 
[H]OC1([H])C([H])=C2C([H])(C([H])([H])C([H])(O[H])C3(C([H])([H])[H])C2([H])C([H])([H])C([H])([H])C2([H])C4(C([H])([H])[H])C([H])([H])C(=O)C([H])(O[H])C(C([H])([H])[H])(C([H])([H])[H])C4([H])C([H])([H])C([H])([H])C23C([H])([H])[H])C1(C([H])([H])[H])C([H])([H])[H]

$$$$
20:0:2
     RDKit          3D

 76 80  0  0  1  0  0  0  0  0999 V2000
    3.0799   -3.4851   -0.6747 C   0  0  0  0  0  0  0  0  0  0  0  0
    4.3409   -3.3953    0.2254 C   0  0  0  0  0  0  0  0  0  0  0  0
    5.1715   -4.6775    0.0502 C   0  0  0  0  0  0  0  0  0  0  0  0
    5.1657   -2.1095   -0.0992 C   0  0  1  0  0  0  0  0  0  0  0  0
    5.1786   -1.7000   -1.4538 O   0  0  0  0  0  0  0  0  0  0  0  0
    4.5458   -1.0722    0.8075 C   0  0  0  0  0  0  0  0  0  0  0  0
    3.8935   -1.6425    1.8238 C   0  0  0  0  0  0  0  0  0  0  0  0
    3.9733   -3.1455    1.7246 C   0  0  1  0  0  0  0  0  0  0  0  0
    2.7976   -3.9107    2.3664 C   0  0  0  0  0  0  0  0  0  0  0  0
    1.8144   -3.0459    3.1910 C   0  0  1  0  0  0  0  0  0  0  0  0
    1.0510   -3.9680    3.9448 O   0  0  0  0  0  0  0  0  0  0  0  0
    2.4660   -1.8697    4.0132 C   0  0  1  0  0  0  0  0  0  0  0  0
    3.5969   -2.4482    4.9236 C   0  0  0  0  0  0  0  0  0  0  0  0
    3.0939   -0.9406    2.9258 C   0  0  1  0  0  0  0  0  0  0  0  0
    3.8551    0.2095    3.5741 C   0  0  0  0  0  0  0  0  0  0  0  0
    2.8617    1.1183    4.2754 C   0  0  0  0  0  0  0  0  0  0  0  0
    1.9546    0.4251    5.3298 C   0  0  1  0  0  0  0  0  0  0  0  0
    0.8871    1.4293    5.9842 C   0  0  1  0  0  0  0  0  0  0  0  0
    0.6830    1.0222    7.4734 C   0  0  0  0  0  0  0  0  0  0  0  0
    1.4460    2.8825    6.1243 C   0  0  0  0  0  0  0  0  0  0  0  0
    1.1663    3.7848    4.9287 C   0  0  0  0  0  0  0  0  0  0  0  0
    2.0543    4.3606    4.3032 O   0  0  0  0  0  0  0  0  0  0  0  0
   -0.3149    3.9284    4.6189 C   0  0  1  0  0  0  0  0  0  0  0  0
   -0.5649    4.9388    3.6491 O   0  0  0  0  0  0  0  0  0  0  0  0
   -0.9427    2.5599    4.2514 C   0  0  0  0  0  0  0  0  0  0  0  0
   -2.4688    2.7953    4.3082 C   0  0  0  0  0  0  0  0  0  0  0  0
   -0.6086    2.1465    2.7994 C   0  0  0  0  0  0  0  0  0  0  0  0
   -0.5493    1.4335    5.3030 C   0  0  1  0  0  0  0  0  0  0  0  0
   -0.9944    0.0085    4.9026 C   0  0  0  0  0  0  0  0  0  0  0  0
    0.0728   -0.8188    4.1577 C   0  0  0  0  0  0  0  0  0  0  0  0
    1.4194   -1.0257    4.9128 C   0  0  1  0  0  0  0  0  0  0  0  0
    1.1364   -1.8454    6.2169 C   0  0  0  0  0  0  0  0  0  0  0  0
    3.3309   -3.4810   -1.7374 H   0  0  0  0  0  0  0  0  0  0  0  0
    2.3955   -2.6557   -0.4917 H   0  0  0  0  0  0  0  0  0  0  0  0
    2.5230   -4.4090   -0.5140 H   0  0  0  0  0  0  0  0  0  0  0  0
    6.0841   -4.6524    0.6434 H   0  0  0  0  0  0  0  0  0  0  0  0
    5.4582   -4.8164   -0.9914 H   0  0  0  0  0  0  0  0  0  0  0  0
    4.6107   -5.5629    0.3503 H   0  0  0  0  0  0  0  0  0  0  0  0
    6.2023   -2.2342    0.2205 H   0  0  0  0  0  0  0  0  0  0  0  0
    4.2871   -1.6981   -1.7735 H   0  0  0  0  0  0  0  0  0  0  0  0
    4.6302   -0.0132    0.6117 H   0  0  0  0  0  0  0  0  0  0  0  0
    4.8584   -3.3907    2.3137 H   0  0  0  0  0  0  0  0  0  0  0  0
    2.2241   -4.4708    1.6316 H   0  0  0  0  0  0  0  0  0  0  0  0
    3.2393   -4.6810    3.0013 H   0  0  0  0  0  0  0  0  0  0  0  0
    1.1303   -2.6004    2.4707 H   0  0  0  0  0  0  0  0  0  0  0  0
    1.6331   -4.4009    4.5546 H   0  0  0  0  0  0  0  0  0  0  0  0
    3.8946   -1.7479    5.7050 H   0  0  0  0  0  0  0  0  0  0  0  0
    4.5008   -2.6840    4.3684 H   0  0  0  0  0  0  0  0  0  0  0  0
    3.2934   -3.3688    5.4211 H   0  0  0  0  0  0  0  0  0  0  0  0
    2.2854   -0.4935    2.3491 H   0  0  0  0  0  0  0  0  0  0  0  0
    4.6263   -0.1393    4.2609 H   0  0  0  0  0  0  0  0  0  0  0  0
    4.3761    0.7976    2.8243 H   0  0  0  0  0  0  0  0  0  0  0  0
    3.4599    1.8950    4.7487 H   0  0  0  0  0  0  0  0  0  0  0  0
    2.2808    1.6161    3.5116 H   0  0  0  0  0  0  0  0  0  0  0  0
    2.6893    0.2419    6.1148 H   0  0  0  0  0  0  0  0  0  0  0  0
    0.1566    1.7926    8.0385 H   0  0  0  0  0  0  0  0  0  0  0  0
    1.6330    0.8568    7.9854 H   0  0  0  0  0  0  0  0  0  0  0  0
    0.0768    0.1325    7.6005 H   0  0  0  0  0  0  0  0  0  0  0  0
    0.9554    3.3870    6.9553 H   0  0  0  0  0  0  0  0  0  0  0  0
    2.5054    2.8867    6.3755 H   0  0  0  0  0  0  0  0  0  0  0  0
   -0.7757    4.2792    5.5416 H   0  0  0  0  0  0  0  0  0  0  0  0
   -0.1860    4.6773    2.8102 H   0  0  0  0  0  0  0  0  0  0  0  0
   -2.9877    1.8809    4.0465 H   0  0  0  0  0  0  0  0  0  0  0  0
   -2.7947    3.5625    3.6018 H   0  0  0  0  0  0  0  0  0  0  0  0
   -2.8021    3.1081    5.3010 H   0  0  0  0  0  0  0  0  0  0  0  0
   -1.1531    1.2581    2.4792 H   0  0  0  0  0  0  0  0  0  0  0  0
    0.4506    1.9665    2.6524 H   0  0  0  0  0  0  0  0  0  0  0  0
   -0.8992    2.9251    2.0924 H   0  0  0  0  0  0  0  0  0  0  0  0
   -1.2185    1.6821    6.1271 H   0  0  0  0  0  0  0  0  0  0  0  0
   -1.3373   -0.5170    5.7889 H   0  0  0  0  0  0  0  0  0  0  0  0
   -1.8834    0.0462    4.2767 H   0  0  0  0  0  0  0  0  0  0  0  0
   -0.3861   -1.7781    3.9363 H   0  0  0  0  0  0  0  0  0  0  0  0
    0.2596   -0.3595    3.1921 H   0  0  0  0  0  0  0  0  0  0  0  0
    0.1406   -1.7141    6.6227 H   0  0  0  0  0  0  0  0  0  0  0  0
    1.8439   -1.5954    7.0080 H   0  0  0  0  0  0  0  0  0  0  0  0
    1.2119   -2.9172    6.0855 H   0  0  0  0  0  0  0  0  0  0  0  0
  1  2  1  0
  1 33  1  0
  1 34  1  0
  1 35  1  0
  2  8  1  0
  2  3  1  0
  2  4  1  0
  3 36  1  0
  3 37  1  0
  3 38  1  0
  4  5  1  0
  4  6  1  0
  4 39  1  1
  5 40  1  0
  6  7  2  0
  6 41  1  0
  7 14  1  0
  7  8  1  0
  8  9  1  0
  8 42  1  1
  9 10  1  0
  9 43  1  0
  9 44  1  0
 10 11  1  0
 10 12  1  0
 10 45  1  6
 11 46  1  0
 12 31  1  0
 12 13  1  1
 12 14  1  0
 13 47  1  0
 13 48  1  0
 13 49  1  0
 14 15  1  0
 14 50  1  6
 15 16  1  0
 15 51  1  0
 15 52  1  0
 16 17  1  0
 16 53  1  0
 16 54  1  0
 17 31  1  0
 17 18  1  0
 17 55  1  1
 18 28  1  0
 18 19  1  1
 18 20  1  0
 19 56  1  0
 19 57  1  0
 19 58  1  0
 20 21  1  0
 20 59  1  0
 20 60  1  0
 21 22  2  0
 21 23  1  0
 23 24  1  0
 23 25  1  0
 23 61  1  1
 24 62  1  0
 25 26  1  0
 25 27  1  0
 25 28  1  0
 26 63  1  0
 26 64  1  0
 26 65  1  0
 27 66  1  0
 27 67  1  0
 27 68  1  0
 28 29  1  0
 28 69  1  1
 29 30  1  0
 29 70  1  0
 29 71  1  0
 30 31  1  0
 30 72  1  0
 30 73  1  0
 31 32  1  1
 32 74  1  0
 32 75  1  0
 32 76  1  0
M  END
>  <i_m_ct_stereo_status>  (96) 
1

>  <s_m_source_file>  (96) 
/var/tmp/pbs.5076255.sched01/tmp7dv9smms/08akalw19.sdf

>  <i_m_source_file_index>  (96) 
35

>  <i_lp_mmshare_version>  (96) 
48012

>  <i_f3d_flags>  (96) 
0

>  <s_epik_input>  (96) 
W09IXVtDQEBIXShbQ0hdPTEpQyhbQ0gzXSkoW0NIM10pW0NASF0oW0NIMl1bQ0BIXTJbT0hdKUMxW0NAQEhdKFtDQF0yM1tDSDNdKVtDSDJdW0NIMl1bQ0BIXTRbQ0BdNShbQ0gzXSlbQ0BASF0oQyhbQ0gzXSkoW0NIM10pW0NASF0oW09IXSlDKD1PKVtDSDJdNSlbQ0gyXVtDSDJdW0NAQF0zNFtDSDNd

>  <s_epik_cmdline>  (96) 
J2VwaWtfcHl0aG9uJywgJy1waHQnLCAnMi4wJywgJy1waCcsICc3LjAnLCAnLXRuJywgJzgnLCAnLW1hJywgJzIwMCcsICctaW1hZScsICc8aW5maWxlLm1hZT4nLCAnLW9tYWUnLCAnPG91dGZpbGUubWFlPic=

>  <r_lp_tautomer_probability>  (96) 
1

>  <r_epik_Ionization_Penalty>  (96) 
1.91073e-06

>  <r_epik_Ionization_Penalty_Charging>  (96) 
0

>  <r_epik_Ionization_Penalty_Neutral>  (96) 
1.91073e-06

>  <r_epik_State_Penalty>  (96) 
-0

>  <r_epik_Charging_Adjusted_Penalty>  (96) 
0

>  <i_epik_Tot_Q>  (96) 
0

>  <i_epik_Tot_abs_Q>  (96) 
0

>  <s_lp_Force_Field>  (96) 
OPLS3e

>  <r_lp_Energy>  (96) 
89.1907

>  <b_lp_Chiralities_Consistent>  (96) 
1

>  <s_lp_Variant>  (96) 
20:0-1

>  <s_i_glide_gridfile>  (96) 
pfpi4k_grid

>  <i_i_glide_lignum>  (96) 
35

>  <i_i_glide_rotatable_bonds>  (96) 
3

>  <r_i_docking_score>  (96) 
-2.63889

>  <r_i_glide_ligand_efficiency>  (96) 
-0.0824653

>  <r_i_glide_ligand_efficiency_sa>  (96) 
-0.261811

>  <r_i_glide_ligand_efficiency_ln>  (96) 
-0.590919

>  <r_i_glide_gscore>  (96) 
-2.63889

>  <r_i_glide_lipo>  (96) 
-0.183934

>  <r_i_glide_hbond>  (96) 
0

>  <r_i_glide_metal>  (96) 
-0

>  <r_i_glide_rewards>  (96) 
-0.37741

>  <r_i_glide_evdw>  (96) 
-29.9102

>  <r_i_glide_ecoul>  (96) 
-3.80227

>  <r_i_glide_erotb>  (96) 
0

>  <r_i_glide_esite>  (96) 
-0.0116945

>  <r_i_glide_emodel>  (96) 
-39.1238

>  <r_i_glide_energy>  (96) 
-33.7125

>  <r_i_glide_einternal>  (96) 
1.29408

>  <r_i_glide_intrahb_reward>  (96) 
-0

>  <i_i_glide_confnum>  (96) 
1

>  <i_i_glide_posenum>  (96) 
8

>  <r_i_glide_eff_state_penalty>  (96) 
0

>  <ligand_id>  (96) 
20

>  <original_smiles>  (96) 
CC1(C)C(O)C=C2C1CC(O)C1(C)C2CCC2C3(C)CC(=O)C(O)C(C)(C)C3CCC21C

>  <smiles>  (96) 
[H]OC1([H])C([H])=C2C([H])(C([H])([H])C([H])(O[H])C3(C([H])([H])[H])C2([H])C([H])([H])C([H])([H])C2([H])C4(C([H])([H])[H])C([H])([H])C(=O)C([H])(O[H])C(C([H])([H])[H])(C([H])([H])[H])C4([H])C([H])([H])C([H])([H])C23C([H])([H])[H])C1(C([H])([H])[H])C([H])([H])[H]

$$$$
22:0:0
     RDKit          3D

 56 59  0  0  1  0  0  0  0  0999 V2000
    4.5210   -0.5816   -2.5506 C   0  0  0  0  0  0  0  0  0  0  0  0
    4.8049   -1.6454   -2.0219 C   0  0  0  0  0  0  0  0  0  0  0  0
    5.1205   -2.9750   -1.4385 C   0  0  1  0  0  0  0  0  0  0  0  0
    5.0148   -3.9394   -2.4661 O   0  0  0  0  0  0  0  0  0  0  0  0
    6.5595   -3.0369   -0.8504 C   0  0  1  0  0  0  0  0  0  0  0  0
    7.5361   -2.2589   -1.5196 O   0  0  0  0  0  0  0  0  0  0  0  0
    6.4364   -2.5923    0.6144 C   0  0  0  0  0  0  0  0  0  0  0  0
    4.9343   -2.6150    0.9705 C   0  0  2  0  0  0  0  0  0  0  0  0
    4.6471   -3.1055    2.4210 C   0  0  1  0  0  0  0  0  0  0  0  0
    3.3332   -2.5533    3.0161 C   0  0  0  0  0  0  0  0  0  0  0  0
    3.1843   -2.9459    4.4957 C   0  0  0  0  0  0  0  0  0  0  0  0
    3.2199   -4.4865    4.7136 C   0  0  1  0  0  0  0  0  0  0  0  0
    1.9701   -5.1891    4.3145 N   0  0  0  0  0  0  0  0  0  0  0  0
    0.7086   -4.4403    4.4857 C   0  0  0  0  0  0  0  0  0  0  0  0
    1.9119   -6.5065    4.0006 C   0  0  0  0  0  0  0  0  0  0  0  0
    0.8614   -7.0823    3.7213 O   0  0  0  0  0  0  0  0  0  0  0  0
    3.1856   -7.3558    3.9633 C   0  0  0  0  0  0  0  0  0  0  0  0
    4.4908   -6.6255    4.3180 C   0  0  0  0  0  0  0  0  0  0  0  0
    4.5193   -5.0917    4.0950 C   0  0  2  0  0  0  0  0  0  0  0  0
    5.7461   -4.6166    4.9251 C   0  0  0  0  0  0  0  0  0  0  0  0
    4.7359   -4.6467    2.5912 C   0  0  1  0  0  0  0  0  0  0  0  0
    3.8597   -5.3162    1.5085 C   0  0  0  0  0  0  0  0  0  0  0  0
    4.2930   -4.9062    0.0896 C   0  0  0  0  0  0  0  0  0  0  0  0
    4.2372   -3.3768   -0.1920 C   0  0  2  0  0  0  0  0  0  0  0  0
    2.7576   -2.9471   -0.3708 C   0  0  0  0  0  0  0  0  0  0  0  0
    4.2315    0.3261   -3.0404 H   0  0  0  0  0  0  0  0  0  0  0  0
    4.2769   -4.5168   -2.2932 H   0  0  0  0  0  0  0  0  0  0  0  0
    6.9252   -4.0625   -0.8470 H   0  0  0  0  0  0  0  0  0  0  0  0
    7.8737   -2.7620   -2.2514 H   0  0  0  0  0  0  0  0  0  0  0  0
    7.0164   -3.2690    1.2405 H   0  0  0  0  0  0  0  0  0  0  0  0
    6.8413   -1.5922    0.7756 H   0  0  0  0  0  0  0  0  0  0  0  0
    4.6174   -1.5724    0.9122 H   0  0  0  0  0  0  0  0  0  0  0  0
    5.4381   -2.6515    3.0126 H   0  0  0  0  0  0  0  0  0  0  0  0
    3.3157   -1.4655    2.9352 H   0  0  0  0  0  0  0  0  0  0  0  0
    2.4675   -2.9183    2.4702 H   0  0  0  0  0  0  0  0  0  0  0  0
    3.9967   -2.4864    5.0556 H   0  0  0  0  0  0  0  0  0  0  0  0
    2.2943   -2.4867    4.9293 H   0  0  0  0  0  0  0  0  0  0  0  0
    3.2663   -4.6468    5.7937 H   0  0  0  0  0  0  0  0  0  0  0  0
   -0.1896   -5.0154    4.2616 H   0  0  0  0  0  0  0  0  0  0  0  0
    0.6669   -3.5712    3.8289 H   0  0  0  0  0  0  0  0  0  0  0  0
    0.6069   -4.1100    5.5213 H   0  0  0  0  0  0  0  0  0  0  0  0
    3.0528   -8.1931    4.6484 H   0  0  0  0  0  0  0  0  0  0  0  0
    3.2537   -7.8192    2.9809 H   0  0  0  0  0  0  0  0  0  0  0  0
    4.6701   -6.8330    5.3776 H   0  0  0  0  0  0  0  0  0  0  0  0
    5.3216   -7.0949    3.7902 H   0  0  0  0  0  0  0  0  0  0  0  0
    6.6658   -5.0747    4.5667 H   0  0  0  0  0  0  0  0  0  0  0  0
    5.6501   -4.8852    5.9776 H   0  0  0  0  0  0  0  0  0  0  0  0
    5.9018   -3.5421    4.9098 H   0  0  0  0  0  0  0  0  0  0  0  0
    5.7532   -4.9434    2.3448 H   0  0  0  0  0  0  0  0  0  0  0  0
    3.9662   -6.3945    1.5526 H   0  0  0  0  0  0  0  0  0  0  0  0
    2.8047   -5.0991    1.6604 H   0  0  0  0  0  0  0  0  0  0  0  0
    5.2982   -5.2947   -0.0681 H   0  0  0  0  0  0  0  0  0  0  0  0
    3.6665   -5.4301   -0.6287 H   0  0  0  0  0  0  0  0  0  0  0  0
    2.1130   -3.3902    0.3820 H   0  0  0  0  0  0  0  0  0  0  0  0
    2.3587   -3.2420   -1.3441 H   0  0  0  0  0  0  0  0  0  0  0  0
    2.6379   -1.8658   -0.2804 H   0  0  0  0  0  0  0  0  0  0  0  0
  1  2  3  0
  1 26  1  0
  3  2  1  6
  3 24  1  0
  3  4  1  0
  3  5  1  0
  4 27  1  0
  5  6  1  0
  5  7  1  0
  5 28  1  1
  6 29  1  0
  7  8  1  0
  7 30  1  0
  7 31  1  0
  8 24  1  0
  8  9  1  0
  8 32  1  1
  9 21  1  0
  9 10  1  0
  9 33  1  1
 10 11  1  0
 10 34  1  0
 10 35  1  0
 11 12  1  0
 11 36  1  0
 11 37  1  0
 12 19  1  0
 12 13  1  0
 12 38  1  1
 13 14  1  0
 13 15  1  0
 14 39  1  0
 14 40  1  0
 14 41  1  0
 15 16  2  0
 15 17  1  0
 17 18  1  0
 17 42  1  0
 17 43  1  0
 18 19  1  0
 18 44  1  0
 18 45  1  0
 19 20  1  1
 19 21  1  0
 20 46  1  0
 20 47  1  0
 20 48  1  0
 21 22  1  0
 21 49  1  6
 22 23  1  0
 22 50  1  0
 22 51  1  0
 23 24  1  0
 23 52  1  0
 23 53  1  0
 24 25  1  6
 25 54  1  0
 25 55  1  0
 25 56  1  0
M  END
>  <i_m_ct_stereo_status>  (97) 
1

>  <s_m_source_file>  (97) 
/var/tmp/pbs.5076255.sched01/tmp7dv9smms/08akalw19.sdf

>  <i_m_source_file_index>  (97) 
37

>  <i_lp_mmshare_version>  (97) 
48012

>  <i_f3d_flags>  (97) 
0

>  <s_epik_input>  (97) 
W0NIXSNDW0NAQF0oW09IXSkoW0NAQEhdKFtPSF0pW0NIMl0xKVtDQEBdKFtDSDNdKShbQ0gyXVtDSDJdW0NAQEhdMjMpW0NASF0xW0NASF0yW0NIMl1bQ0gyXVtDQEhdKFtDQF0zNFtDSDNdKU4oW0NIM10pQyg9TylbQ0gyXVtDSDJdNA==

>  <s_epik_cmdline>  (97) 
J2VwaWtfcHl0aG9uJywgJy1waHQnLCAnMi4wJywgJy1waCcsICc3LjAnLCAnLXRuJywgJzgnLCAnLW1hJywgJzIwMCcsICctaW1hZScsICc8aW5maWxlLm1hZT4nLCAnLW9tYWUnLCAnPG91dGZpbGUubWFlPic=

>  <r_lp_tautomer_probability>  (97) 
1

>  <r_epik_Ionization_Penalty>  (97) 
8.32325e-07

>  <r_epik_Ionization_Penalty_Charging>  (97) 
0

>  <r_epik_Ionization_Penalty_Neutral>  (97) 
8.32325e-07

>  <r_epik_State_Penalty>  (97) 
-0

>  <r_epik_Charging_Adjusted_Penalty>  (97) 
0

>  <i_epik_Tot_Q>  (97) 
0

>  <i_epik_Tot_abs_Q>  (97) 
0

>  <s_lp_Force_Field>  (97) 
OPLS3e

>  <r_lp_Energy>  (97) 
65.2091

>  <b_lp_Chiralities_Consistent>  (97) 
1

>  <s_lp_Variant>  (97) 
22:0-1

>  <s_i_glide_gridfile>  (97) 
pfpi4k_grid

>  <i_i_glide_lignum>  (97) 
37

>  <i_i_glide_rotatable_bonds>  (97) 
3

>  <r_i_docking_score>  (97) 
-3.38476

>  <r_i_glide_ligand_efficiency>  (97) 
-0.13539

>  <r_i_glide_ligand_efficiency_sa>  (97) 
-0.395884

>  <r_i_glide_ligand_efficiency_ln>  (97) 
-0.802289

>  <r_i_glide_gscore>  (97) 
-3.38476

>  <r_i_glide_lipo>  (97) 
-0.291318

>  <r_i_glide_hbond>  (97) 
0

>  <r_i_glide_metal>  (97) 
-0

>  <r_i_glide_rewards>  (97) 
-1.05357

>  <r_i_glide_evdw>  (97) 
-17.3512

>  <r_i_glide_ecoul>  (97) 
-8.85101

>  <r_i_glide_erotb>  (97) 
0.159193

>  <r_i_glide_esite>  (97) 
-0.0038497

>  <r_i_glide_emodel>  (97) 
-30.3383

>  <r_i_glide_energy>  (97) 
-26.2022

>  <r_i_glide_einternal>  (97) 
3.16693

>  <r_i_glide_intrahb_reward>  (97) 
-0

>  <i_i_glide_confnum>  (97) 
1

>  <i_i_glide_posenum>  (97) 
1

>  <r_i_glide_eff_state_penalty>  (97) 
0

>  <ligand_id>  (97) 
22

>  <original_smiles>  (97) 
C#CC1(O)C(O)CC2C3CCC4N(C)C(=O)CCC4(C)C3CCC21C

>  <smiles>  (97) 
[H]C#CC1(O[H])C([H])(O[H])C([H])([H])C2([H])C3([H])C([H])([H])C([H])([H])C4([H])N(C([H])([H])[H])C(=O)C([H])([H])C([H])([H])C4(C([H])([H])[H])C3([H])C([H])([H])C([H])([H])C12C([H])([H])[H]

$$$$
22:0:1
     RDKit          3D

 56 59  0  0  1  0  0  0  0  0999 V2000
    5.2523   -0.4219    0.5749 C   0  0  0  0  0  0  0  0  0  0  0  0
    4.7693   -1.4777    0.1982 C   0  0  0  0  0  0  0  0  0  0  0  0
    4.1655   -2.7401   -0.2901 C   0  0  1  0  0  0  0  0  0  0  0  0
    3.3608   -2.4502   -1.4190 O   0  0  0  0  0  0  0  0  0  0  0  0
    5.2470   -3.7773   -0.7015 C   0  0  1  0  0  0  0  0  0  0  0  0
    6.4467   -3.2390   -1.2391 O   0  0  0  0  0  0  0  0  0  0  0  0
    5.5506   -4.5881    0.5693 C   0  0  0  0  0  0  0  0  0  0  0  0
    4.4418   -4.2630    1.5956 C   0  0  2  0  0  0  0  0  0  0  0  0
    4.0068   -5.4916    2.4480 C   0  0  1  0  0  0  0  0  0  0  0  0
    3.4304   -5.1192    3.8336 C   0  0  0  0  0  0  0  0  0  0  0  0
    3.1638   -6.3736    4.6839 C   0  0  0  0  0  0  0  0  0  0  0  0
    2.1843   -7.3695    3.9969 C   0  0  1  0  0  0  0  0  0  0  0  0
    0.7559   -6.9433    4.0262 N   0  0  0  0  0  0  0  0  0  0  0  0
    0.3210   -6.1683    5.2000 C   0  0  0  0  0  0  0  0  0  0  0  0
   -0.1781   -7.3886    3.1442 C   0  0  0  0  0  0  0  0  0  0  0  0
   -1.3618   -7.0529    3.1877 O   0  0  0  0  0  0  0  0  0  0  0  0
    0.2156   -8.3223    2.0035 C   0  0  0  0  0  0  0  0  0  0  0  0
    1.6990   -8.7185    1.9244 C   0  0  0  0  0  0  0  0  0  0  0  0
    2.7132   -7.7470    2.5762 C   0  0  2  0  0  0  0  0  0  0  0  0
    4.0051   -8.6051    2.7193 C   0  0  0  0  0  0  0  0  0  0  0  0
    3.0668   -6.4781    1.6973 C   0  0  1  0  0  0  0  0  0  0  0  0
    1.8934   -5.6749    1.0911 C   0  0  0  0  0  0  0  0  0  0  0  0
    2.3890   -4.5680    0.1388 C   0  0  0  0  0  0  0  0  0  0  0  0
    3.3348   -3.5212    0.7984 C   0  0  2  0  0  0  0  0  0  0  0  0
    2.5044   -2.5645    1.6994 C   0  0  0  0  0  0  0  0  0  0  0  0
    5.6421    0.5231    0.8715 H   0  0  0  0  0  0  0  0  0  0  0  0
    2.5542   -2.0304   -1.1308 H   0  0  0  0  0  0  0  0  0  0  0  0
    4.8461   -4.4623   -1.4534 H   0  0  0  0  0  0  0  0  0  0  0  0
    6.2875   -3.0511   -2.1541 H   0  0  0  0  0  0  0  0  0  0  0  0
    5.5831   -5.6501    0.3181 H   0  0  0  0  0  0  0  0  0  0  0  0
    6.5259   -4.3347    0.9884 H   0  0  0  0  0  0  0  0  0  0  0  0
    4.8925   -3.5409    2.2786 H   0  0  0  0  0  0  0  0  0  0  0  0
    4.9398   -6.0111    2.6598 H   0  0  0  0  0  0  0  0  0  0  0  0
    4.1320   -4.4735    4.3632 H   0  0  0  0  0  0  0  0  0  0  0  0
    2.5062   -4.5574    3.7376 H   0  0  0  0  0  0  0  0  0  0  0  0
    4.1142   -6.8711    4.8652 H   0  0  0  0  0  0  0  0  0  0  0  0
    2.8348   -6.0946    5.6848 H   0  0  0  0  0  0  0  0  0  0  0  0
    2.1946   -8.2791    4.5990 H   0  0  0  0  0  0  0  0  0  0  0  0
   -0.7449   -5.9426    5.2273 H   0  0  0  0  0  0  0  0  0  0  0  0
    0.8239   -5.2037    5.2470 H   0  0  0  0  0  0  0  0  0  0  0  0
    0.5416   -6.7219    6.1139 H   0  0  0  0  0  0  0  0  0  0  0  0
   -0.3871   -9.2278    2.0831 H   0  0  0  0  0  0  0  0  0  0  0  0
   -0.1069   -7.8532    1.0767 H   0  0  0  0  0  0  0  0  0  0  0  0
    1.7699   -9.6919    2.4194 H   0  0  0  0  0  0  0  0  0  0  0  0
    1.9685   -8.9082    0.8881 H   0  0  0  0  0  0  0  0  0  0  0  0
    4.3629   -8.9506    1.7493 H   0  0  0  0  0  0  0  0  0  0  0  0
    3.8291   -9.4957    3.3248 H   0  0  0  0  0  0  0  0  0  0  0  0
    4.8363   -8.0854    3.1926 H   0  0  0  0  0  0  0  0  0  0  0  0
    3.6134   -6.8578    0.8344 H   0  0  0  0  0  0  0  0  0  0  0  0
    1.2643   -6.3282    0.4944 H   0  0  0  0  0  0  0  0  0  0  0  0
    1.2709   -5.2565    1.8791 H   0  0  0  0  0  0  0  0  0  0  0  0
    2.8870   -5.0585   -0.6926 H   0  0  0  0  0  0  0  0  0  0  0  0
    1.5469   -4.0601   -0.3253 H   0  0  0  0  0  0  0  0  0  0  0  0
    1.7773   -3.0962    2.3075 H   0  0  0  0  0  0  0  0  0  0  0  0
    1.9429   -1.8424    1.1063 H   0  0  0  0  0  0  0  0  0  0  0  0
    3.1340   -1.9986    2.3884 H   0  0  0  0  0  0  0  0  0  0  0  0
  1  2  3  0
  1 26  1  0
  3  2  1  1
  3 24  1  0
  3  4  1  0
  3  5  1  0
  4 27  1  0
  5  6  1  0
  5  7  1  0
  5 28  1  6
  6 29  1  0
  7  8  1  0
  7 30  1  0
  7 31  1  0
  8 24  1  0
  8  9  1  0
  8 32  1  1
  9 21  1  0
  9 10  1  0
  9 33  1  1
 10 11  1  0
 10 34  1  0
 10 35  1  0
 11 12  1  0
 11 36  1  0
 11 37  1  0
 12 19  1  0
 12 13  1  0
 12 38  1  1
 13 14  1  0
 13 15  1  0
 14 39  1  0
 14 40  1  0
 14 41  1  0
 15 16  2  0
 15 17  1  0
 17 18  1  0
 17 42  1  0
 17 43  1  0
 18 19  1  0
 18 44  1  0
 18 45  1  0
 19 20  1  1
 19 21  1  0
 20 46  1  0
 20 47  1  0
 20 48  1  0
 21 22  1  0
 21 49  1  6
 22 23  1  0
 22 50  1  0
 22 51  1  0
 23 24  1  0
 23 52  1  0
 23 53  1  0
 24 25  1  1
 25 54  1  0
 25 55  1  0
 25 56  1  0
M  END
>  <i_m_ct_stereo_status>  (98) 
1

>  <s_m_source_file>  (98) 
/var/tmp/pbs.5076255.sched01/tmp7dv9smms/08akalw19.sdf

>  <i_m_source_file_index>  (98) 
37

>  <i_lp_mmshare_version>  (98) 
48012

>  <i_f3d_flags>  (98) 
0

>  <s_epik_input>  (98) 
W0NIXSNDW0NAQF0oW09IXSkoW0NAQEhdKFtPSF0pW0NIMl0xKVtDQEBdKFtDSDNdKShbQ0gyXVtDSDJdW0NAQEhdMjMpW0NASF0xW0NASF0yW0NIMl1bQ0gyXVtDQEhdKFtDQF0zNFtDSDNdKU4oW0NIM10pQyg9TylbQ0gyXVtDSDJdNA==

>  <s_epik_cmdline>  (98) 
J2VwaWtfcHl0aG9uJywgJy1waHQnLCAnMi4wJywgJy1waCcsICc3LjAnLCAnLXRuJywgJzgnLCAnLW1hJywgJzIwMCcsICctaW1hZScsICc8aW5maWxlLm1hZT4nLCAnLW9tYWUnLCAnPG91dGZpbGUubWFlPic=

>  <r_lp_tautomer_probability>  (98) 
1

>  <r_epik_Ionization_Penalty>  (98) 
8.32325e-07

>  <r_epik_Ionization_Penalty_Charging>  (98) 
0

>  <r_epik_Ionization_Penalty_Neutral>  (98) 
8.32325e-07

>  <r_epik_State_Penalty>  (98) 
-0

>  <r_epik_Charging_Adjusted_Penalty>  (98) 
0

>  <i_epik_Tot_Q>  (98) 
0

>  <i_epik_Tot_abs_Q>  (98) 
0

>  <s_lp_Force_Field>  (98) 
OPLS3e

>  <r_lp_Energy>  (98) 
65.2091

>  <b_lp_Chiralities_Consistent>  (98) 
1

>  <s_lp_Variant>  (98) 
22:0-1

>  <s_i_glide_gridfile>  (98) 
pfpi4k_grid

>  <i_i_glide_lignum>  (98) 
37

>  <i_i_glide_rotatable_bonds>  (98) 
3

>  <r_i_docking_score>  (98) 
-3.19355

>  <r_i_glide_ligand_efficiency>  (98) 
-0.127742

>  <r_i_glide_ligand_efficiency_sa>  (98) 
-0.373519

>  <r_i_glide_ligand_efficiency_ln>  (98) 
-0.756966

>  <r_i_glide_gscore>  (98) 
-3.19355

>  <r_i_glide_lipo>  (98) 
-0.354164

>  <r_i_glide_hbond>  (98) 
-0.153272

>  <r_i_glide_metal>  (98) 
-0

>  <r_i_glide_rewards>  (98) 
-1.05357

>  <r_i_glide_evdw>  (98) 
-21.1647

>  <r_i_glide_ecoul>  (98) 
-4.39256

>  <r_i_glide_erotb>  (98) 
0.159193

>  <r_i_glide_esite>  (98) 
-0.0746076

>  <r_i_glide_emodel>  (98) 
-29.1897

>  <r_i_glide_energy>  (98) 
-25.5573

>  <r_i_glide_einternal>  (98) 
3.48741

>  <r_i_glide_intrahb_reward>  (98) 
-0

>  <i_i_glide_confnum>  (98) 
1

>  <i_i_glide_posenum>  (98) 
8

>  <r_i_glide_eff_state_penalty>  (98) 
0

>  <ligand_id>  (98) 
22

>  <original_smiles>  (98) 
C#CC1(O)C(O)CC2C3CCC4N(C)C(=O)CCC4(C)C3CCC21C

>  <smiles>  (98) 
[H]C#CC1(O[H])C([H])(O[H])C([H])([H])C2([H])C3([H])C([H])([H])C([H])([H])C4([H])N(C([H])([H])[H])C(=O)C([H])([H])C([H])([H])C4(C([H])([H])[H])C3([H])C([H])([H])C([H])([H])C12C([H])([H])[H]

$$$$
22:0:2
     RDKit          3D

 56 59  0  0  1  0  0  0  0  0999 V2000
    5.1798   -0.4189    0.5474 C   0  0  0  0  0  0  0  0  0  0  0  0
    4.6900   -1.4668    0.1599 C   0  0  0  0  0  0  0  0  0  0  0  0
    4.0768   -2.7276   -0.3216 C   0  0  1  0  0  0  0  0  0  0  0  0
    3.2375   -2.4405   -1.4262 O   0  0  0  0  0  0  0  0  0  0  0  0
    5.1488   -3.7626   -0.7636 C   0  0  1  0  0  0  0  0  0  0  0  0
    6.3373   -3.2105   -1.3130 O   0  0  0  0  0  0  0  0  0  0  0  0
    5.4802   -4.5848    0.4958 C   0  0  0  0  0  0  0  0  0  0  0  0
    4.3935   -4.2663    1.5466 C   0  0  2  0  0  0  0  0  0  0  0  0
    3.9764   -5.5002    2.3981 C   0  0  1  0  0  0  0  0  0  0  0  0
    3.4250   -5.1372    3.7959 C   0  0  0  0  0  0  0  0  0  0  0  0
    3.1761   -6.3973    4.6436 C   0  0  0  0  0  0  0  0  0  0  0  0
    2.1849   -7.3901    3.9700 C   0  0  1  0  0  0  0  0  0  0  0  0
    0.7571   -6.9667    4.0286 N   0  0  0  0  0  0  0  0  0  0  0  0
    0.3429   -6.2013    5.2158 C   0  0  0  0  0  0  0  0  0  0  0  0
   -0.1938   -7.4013    3.1586 C   0  0  0  0  0  0  0  0  0  0  0  0
   -1.3748   -7.0485    3.2226 O   0  0  0  0  0  0  0  0  0  0  0  0
    0.1818   -8.3323    2.0096 C   0  0  0  0  0  0  0  0  0  0  0  0
    1.6627   -8.7280    1.9109 C   0  0  0  0  0  0  0  0  0  0  0  0
    2.6896   -7.7570    2.5389 C   0  0  2  0  0  0  0  0  0  0  0  0
    3.9851   -8.6138    2.6480 C   0  0  0  0  0  0  0  0  0  0  0  0
    3.0246   -6.4843    1.6590 C   0  0  1  0  0  0  0  0  0  0  0  0
    1.8402   -5.6806    1.0784 C   0  0  0  0  0  0  0  0  0  0  0  0
    2.3186   -4.5698    0.1236 C   0  0  0  0  0  0  0  0  0  0  0  0
    3.2710   -3.5219    0.7749 C   0  0  2  0  0  0  0  0  0  0  0  0
    2.4547   -2.5721    1.6960 C   0  0  0  0  0  0  0  0  0  0  0  0
    5.5675    0.5165    0.8697 H   0  0  0  0  0  0  0  0  0  0  0  0
    2.4671   -1.9658   -1.1219 H   0  0  0  0  0  0  0  0  0  0  0  0
    4.7342   -4.4368   -1.5187 H   0  0  0  0  0  0  0  0  0  0  0  0
    6.8308   -3.9164   -1.7084 H   0  0  0  0  0  0  0  0  0  0  0  0
    5.5099   -5.6470    0.2401 H   0  0  0  0  0  0  0  0  0  0  0  0
    6.4624   -4.3308    0.9021 H   0  0  0  0  0  0  0  0  0  0  0  0
    4.8532   -3.5453    2.2247 H   0  0  0  0  0  0  0  0  0  0  0  0
    4.9143   -6.0179    2.5882 H   0  0  0  0  0  0  0  0  0  0  0  0
    4.1356   -4.4936    4.3168 H   0  0  0  0  0  0  0  0  0  0  0  0
    2.4977   -4.5773    3.7202 H   0  0  0  0  0  0  0  0  0  0  0  0
    4.1307   -6.8956    4.8022 H   0  0  0  0  0  0  0  0  0  0  0  0
    2.8654   -6.1249    5.6531 H   0  0  0  0  0  0  0  0  0  0  0  0
    2.2092   -8.3050    4.5635 H   0  0  0  0  0  0  0  0  0  0  0  0
   -0.7219   -5.9795    5.2645 H   0  0  0  0  0  0  0  0  0  0  0  0
    0.8449   -5.2367    5.2575 H   0  0  0  0  0  0  0  0  0  0  0  0
    0.5841   -6.7600    6.1206 H   0  0  0  0  0  0  0  0  0  0  0  0
   -0.4199   -9.2392    2.0840 H   0  0  0  0  0  0  0  0  0  0  0  0
   -0.1526   -7.8613    1.0872 H   0  0  0  0  0  0  0  0  0  0  0  0
    1.7451   -9.7066    2.3961 H   0  0  0  0  0  0  0  0  0  0  0  0
    1.9220   -8.9138    0.8741 H   0  0  0  0  0  0  0  0  0  0  0  0
    4.3224   -8.9507    1.6676 H   0  0  0  0  0  0  0  0  0  0  0  0
    3.8215   -9.5095    3.2489 H   0  0  0  0  0  0  0  0  0  0  0  0
    4.8246   -8.0957    3.1082 H   0  0  0  0  0  0  0  0  0  0  0  0
    3.5542   -6.8584    0.7834 H   0  0  0  0  0  0  0  0  0  0  0  0
    1.2005   -6.3300    0.4882 H   0  0  0  0  0  0  0  0  0  0  0  0
    1.2318   -5.2662    1.8800 H   0  0  0  0  0  0  0  0  0  0  0  0
    2.8055   -5.0574   -0.7188 H   0  0  0  0  0  0  0  0  0  0  0  0
    1.4673   -4.0627   -0.3258 H   0  0  0  0  0  0  0  0  0  0  0  0
    1.7412   -3.1092    2.3153 H   0  0  0  0  0  0  0  0  0  0  0  0
    1.8800   -1.8472    1.1187 H   0  0  0  0  0  0  0  0  0  0  0  0
    3.0965   -2.0082    2.3754 H   0  0  0  0  0  0  0  0  0  0  0  0
  1  2  3  0
  1 26  1  0
  3  2  1  1
  3 24  1  0
  3  4  1  0
  3  5  1  0
  4 27  1  0
  5  6  1  0
  5  7  1  0
  5 28  1  6
  6 29  1  0
  7  8  1  0
  7 30  1  0
  7 31  1  0
  8 24  1  0
  8  9  1  0
  8 32  1  1
  9 21  1  0
  9 10  1  0
  9 33  1  1
 10 11  1  0
 10 34  1  0
 10 35  1  0
 11 12  1  0
 11 36  1  0
 11 37  1  0
 12 19  1  0
 12 13  1  0
 12 38  1  1
 13 14  1  0
 13 15  1  0
 14 39  1  0
 14 40  1  0
 14 41  1  0
 15 16  2  0
 15 17  1  0
 17 18  1  0
 17 42  1  0
 17 43  1  0
 18 19  1  0
 18 44  1  0
 18 45  1  0
 19 20  1  1
 19 21  1  0
 20 46  1  0
 20 47  1  0
 20 48  1  0
 21 22  1  0
 21 49  1  6
 22 23  1  0
 22 50  1  0
 22 51  1  0
 23 24  1  0
 23 52  1  0
 23 53  1  0
 24 25  1  1
 25 54  1  0
 25 55  1  0
 25 56  1  0
M  END
>  <i_m_ct_stereo_status>  (99) 
1

>  <s_m_source_file>  (99) 
/var/tmp/pbs.5076255.sched01/tmp7dv9smms/08akalw19.sdf

>  <i_m_source_file_index>  (99) 
37

>  <i_lp_mmshare_version>  (99) 
48012

>  <i_f3d_flags>  (99) 
0

>  <s_epik_input>  (99) 
W0NIXSNDW0NAQF0oW09IXSkoW0NAQEhdKFtPSF0pW0NIMl0xKVtDQEBdKFtDSDNdKShbQ0gyXVtDSDJdW0NAQEhdMjMpW0NASF0xW0NASF0yW0NIMl1bQ0gyXVtDQEhdKFtDQF0zNFtDSDNdKU4oW0NIM10pQyg9TylbQ0gyXVtDSDJdNA==

>  <s_epik_cmdline>  (99) 
J2VwaWtfcHl0aG9uJywgJy1waHQnLCAnMi4wJywgJy1waCcsICc3LjAnLCAnLXRuJywgJzgnLCAnLW1hJywgJzIwMCcsICctaW1hZScsICc8aW5maWxlLm1hZT4nLCAnLW9tYWUnLCAnPG91dGZpbGUubWFlPic=

>  <r_lp_tautomer_probability>  (99) 
1

>  <r_epik_Ionization_Penalty>  (99) 
8.32325e-07

>  <r_epik_Ionization_Penalty_Charging>  (99) 
0

>  <r_epik_Ionization_Penalty_Neutral>  (99) 
8.32325e-07

>  <r_epik_State_Penalty>  (99) 
-0

>  <r_epik_Charging_Adjusted_Penalty>  (99) 
0

>  <i_epik_Tot_Q>  (99) 
0

>  <i_epik_Tot_abs_Q>  (99) 
0

>  <s_lp_Force_Field>  (99) 
OPLS3e

>  <r_lp_Energy>  (99) 
65.2091

>  <b_lp_Chiralities_Consistent>  (99) 
1

>  <s_lp_Variant>  (99) 
22:0-1

>  <s_i_glide_gridfile>  (99) 
pfpi4k_grid

>  <i_i_glide_lignum>  (99) 
37

>  <i_i_glide_rotatable_bonds>  (99) 
3

>  <r_i_docking_score>  (99) 
-3.18422

>  <r_i_glide_ligand_efficiency>  (99) 
-0.127369

>  <r_i_glide_ligand_efficiency_sa>  (99) 
-0.372428

>  <r_i_glide_ligand_efficiency_ln>  (99) 
-0.754755

>  <r_i_glide_gscore>  (99) 
-3.18422

>  <r_i_glide_lipo>  (99) 
-0.351874

>  <r_i_glide_hbond>  (99) 
-0.150159

>  <r_i_glide_metal>  (99) 
-0

>  <r_i_glide_rewards>  (99) 
-1.05357

>  <r_i_glide_evdw>  (99) 
-21.056

>  <r_i_glide_ecoul>  (99) 
-4.40371

>  <r_i_glide_erotb>  (99) 
0.159193

>  <r_i_glide_esite>  (99) 
-0.0744492

>  <r_i_glide_emodel>  (99) 
-29.0872

>  <r_i_glide_energy>  (99) 
-25.4597

>  <r_i_glide_einternal>  (99) 
3.39885

>  <r_i_glide_intrahb_reward>  (99) 
-0

>  <i_i_glide_confnum>  (99) 
1

>  <i_i_glide_posenum>  (99) 
6

>  <r_i_glide_eff_state_penalty>  (99) 
0

>  <ligand_id>  (99) 
22

>  <original_smiles>  (99) 
C#CC1(O)C(O)CC2C3CCC4N(C)C(=O)CCC4(C)C3CCC21C

>  <smiles>  (99) 
[H]C#CC1(O[H])C([H])(O[H])C([H])([H])C2([H])C3([H])C([H])([H])C([H])([H])C4([H])N(C([H])([H])[H])C(=O)C([H])([H])C([H])([H])C4(C([H])([H])[H])C3([H])C([H])([H])C([H])([H])C12C([H])([H])[H]

$$$$
23:0:0
     RDKit          3D

 55 60  0  0  1  0  0  0  0  0999 V2000
    6.7780   -5.4391    0.9794 O   0  0  0  0  0  0  0  0  0  0  0  0
    5.5786   -5.6307    0.7900 C   0  0  0  0  0  0  0  0  0  0  0  0
    4.9998   -6.7868    1.1328 N   0  0  0  0  0  0  0  0  0  0  0  0
    5.6360   -7.8374    1.9225 C   0  0  2  0  0  0  0  0  0  0  0  0
    5.0548   -9.2154    1.5481 C   0  0  1  0  0  0  0  0  0  0  0  0
    5.7937  -10.3077    2.3558 C   0  0  0  0  0  0  0  0  0  0  0  0
    5.5760  -10.0650    3.8650 C   0  0  2  0  0  0  0  0  0  0  0  0
    4.0668  -10.1101    4.1794 C   0  0  0  0  0  0  0  0  0  0  0  0
    3.3388   -9.0068    3.3831 C   0  0  2  0  0  0  0  0  0  0  0  0
    3.5425   -9.2592    1.8737 C   0  0  0  0  0  0  0  0  0  0  0  0
    3.9096   -7.6243    3.7667 C   0  0  0  0  0  0  0  0  0  0  0  0
    5.4215   -7.5899    3.4398 C   0  0  1  0  0  0  0  0  0  0  0  0
    6.1472   -8.6861    4.2514 C   0  0  0  0  0  0  0  0  0  0  0  0
    4.6724   -4.5351    0.1895 C   0  0  2  0  0  0  0  0  0  0  0  0
    5.2192   -3.8844   -1.1090 C   0  0  1  0  0  0  0  0  0  0  0  0
    4.1315   -2.9605   -1.7066 C   0  0  0  0  0  0  0  0  0  0  0  0
    3.8014   -1.8382   -0.6964 C   0  0  1  0  0  0  0  0  0  0  0  0
    3.2758   -2.4672    0.6095 C   0  0  0  0  0  0  0  0  0  0  0  0
    4.3582   -3.4001    1.2067 C   0  0  2  0  0  0  0  0  0  0  0  0
    5.6239   -2.5603    1.5128 C   0  0  0  0  0  0  0  0  0  0  0  0
    6.1522   -1.9342    0.2014 C   0  0  2  0  0  0  0  0  0  0  0  0
    7.3200   -1.1840    0.4776 O   0  0  0  0  0  0  0  0  0  0  0  0
    5.0695   -1.0135   -0.4001 C   0  0  0  0  0  0  0  0  0  0  0  0
    6.4904   -3.0325   -0.8374 C   0  0  0  0  0  0  0  0  0  0  0  0
    4.0119   -6.8875    0.9561 H   0  0  0  0  0  0  0  0  0  0  0  0
    6.7080   -7.8651    1.7194 H   0  0  0  0  0  0  0  0  0  0  0  0
    5.2058   -9.3961    0.4823 H   0  0  0  0  0  0  0  0  0  0  0  0
    5.4154  -11.2923    2.0793 H   0  0  0  0  0  0  0  0  0  0  0  0
    6.8597  -10.3048    2.1172 H   0  0  0  0  0  0  0  0  0  0  0  0
    6.0856  -10.8405    4.4359 H   0  0  0  0  0  0  0  0  0  0  0  0
    3.6586  -11.0862    3.9157 H   0  0  0  0  0  0  0  0  0  0  0  0
    3.9001   -9.9807    5.2492 H   0  0  0  0  0  0  0  0  0  0  0  0
    2.2742   -9.0355    3.6133 H   0  0  0  0  0  0  0  0  0  0  0  0
    2.9891   -8.5239    1.2890 H   0  0  0  0  0  0  0  0  0  0  0  0
    3.1329  -10.2304    1.5946 H   0  0  0  0  0  0  0  0  0  0  0  0
    3.3789   -6.8381    3.2282 H   0  0  0  0  0  0  0  0  0  0  0  0
    3.7456   -7.4235    4.8262 H   0  0  0  0  0  0  0  0  0  0  0  0
    5.8356   -6.6192    3.7188 H   0  0  0  0  0  0  0  0  0  0  0  0
    6.0180   -8.5115    5.3214 H   0  0  0  0  0  0  0  0  0  0  0  0
    7.2217   -8.6531    4.0579 H   0  0  0  0  0  0  0  0  0  0  0  0
    3.7280   -5.0146   -0.0721 H   0  0  0  0  0  0  0  0  0  0  0  0
    5.4215   -4.6676   -1.8386 H   0  0  0  0  0  0  0  0  0  0  0  0
    4.4836   -2.5297   -2.6428 H   0  0  0  0  0  0  0  0  0  0  0  0
    3.2282   -3.5267   -1.9481 H   0  0  0  0  0  0  0  0  0  0  0  0
    3.0341   -1.1799   -1.1171 H   0  0  0  0  0  0  0  0  0  0  0  0
    3.0130   -1.6792    1.3175 H   0  0  0  0  0  0  0  0  0  0  0  0
    2.3524   -3.0146    0.4075 H   0  0  0  0  0  0  0  0  0  0  0  0
    3.9770   -3.8316    2.1300 H   0  0  0  0  0  0  0  0  0  0  0  0
    5.3835   -1.7876    2.2452 H   0  0  0  0  0  0  0  0  0  0  0  0
    6.3962   -3.1715    1.9793 H   0  0  0  0  0  0  0  0  0  0  0  0
    7.1319   -0.5466    1.1515 H   0  0  0  0  0  0  0  0  0  0  0  0
    5.4262   -0.5631   -1.3257 H   0  0  0  0  0  0  0  0  0  0  0  0
    4.8259   -0.1948    0.2803 H   0  0  0  0  0  0  0  0  0  0  0  0
    7.3312   -3.6322   -0.4905 H   0  0  0  0  0  0  0  0  0  0  0  0
    6.8253   -2.5842   -1.7723 H   0  0  0  0  0  0  0  0  0  0  0  0
  1  2  2  0
  2  3  1  0
  2 14  1  0
  3  4  1  0
  3 25  1  0
  4 12  1  0
  4  5  1  0
  4 26  1  1
  5 10  1  0
  5  6  1  0
  5 27  1  6
  6  7  1  0
  6 28  1  0
  6 29  1  0
  7 13  1  0
  7  8  1  0
  7 30  1  1
  8  9  1  0
  8 31  1  0
  8 32  1  0
  9 10  1  0
  9 11  1  0
  9 33  1  6
 10 34  1  0
 10 35  1  0
 11 12  1  0
 11 36  1  0
 11 37  1  0
 12 13  1  0
 12 38  1  1
 13 39  1  0
 13 40  1  0
 14 19  1  0
 14 15  1  0
 14 41  1  6
 15 24  1  0
 15 16  1  0
 15 42  1  6
 16 17  1  0
 16 43  1  0
 16 44  1  0
 17 23  1  0
 17 18  1  0
 17 45  1  6
 18 19  1  0
 18 46  1  0
 18 47  1  0
 19 20  1  0
 19 48  1  1
 20 21  1  0
 20 49  1  0
 20 50  1  0
 21 22  1  1
 21 23  1  0
 21 24  1  0
 22 51  1  0
 23 52  1  0
 23 53  1  0
 24 54  1  0
 24 55  1  0
M  END
>  <i_m_ct_stereo_status>  (100) 
1

>  <s_m_source_file>  (100) 
/var/tmp/pbs.5076255.sched01/tmp7dv9smms/08akalw19.sdf

>  <i_m_source_file_index>  (100) 
38

>  <i_lp_mmshare_version>  (100) 
48012

>  <i_f3d_flags>  (100) 
0

>  <s_epik_input>  (100) 
W0NIMl0xW0NAQEhdKFtDSDJdMilbQ0gyXVtDQEBIXShbQ0gyXTMpW0NASF0oW0NASF0xW0NIMl1bQ0BdMjNbT0hdKUMoPU8pW05IXVtDQEhdKFtDQEBIXTQ1KVtDQEhdNltDSDJdW0NAQEhdKFtDSDJdNSlbQ0gyXVtDQEBIXShbQ0gyXTQpW0NIMl02

>  <s_epik_cmdline>  (100) 
J2VwaWtfcHl0aG9uJywgJy1waHQnLCAnMi4wJywgJy1waCcsICc3LjAnLCAnLXRuJywgJzgnLCAnLW1hJywgJzIwMCcsICctaW1hZScsICc8aW5maWxlLm1hZT4nLCAnLW9tYWUnLCAnPG91dGZpbGUubWFlPic=

>  <r_lp_tautomer_probability>  (100) 
1

>  <r_epik_Ionization_Penalty>  (100) 
2.33129e-06

>  <r_epik_Ionization_Penalty_Charging>  (100) 
0

>  <r_epik_Ionization_Penalty_Neutral>  (100) 
2.33129e-06

>  <r_epik_State_Penalty>  (100) 
-0

>  <r_epik_Charging_Adjusted_Penalty>  (100) 
0

>  <i_epik_Tot_Q>  (100) 
0

>  <i_epik_Tot_abs_Q>  (100) 
0

>  <s_lp_Force_Field>  (100) 
OPLS3e

>  <r_lp_Energy>  (100) 
-7.28839

>  <b_lp_Chiralities_Consistent>  (100) 
1

>  <s_lp_Variant>  (100) 
23:0-1

>  <s_i_glide_gridfile>  (100) 
pfpi4k_grid

>  <i_i_glide_lignum>  (100) 
38

>  <i_i_glide_rotatable_bonds>  (100) 
4

>  <r_i_docking_score>  (100) 
-3.15036

>  <r_i_glide_ligand_efficiency>  (100) 
-0.131265

>  <r_i_glide_ligand_efficiency_sa>  (100) 
-0.378633

>  <r_i_glide_ligand_efficiency_ln>  (100) 
-0.754025

>  <r_i_glide_gscore>  (100) 
-3.15036

>  <r_i_glide_lipo>  (100) 
-0.283249

>  <r_i_glide_hbond>  (100) 
-0.225157

>  <r_i_glide_metal>  (100) 
-0

>  <r_i_glide_rewards>  (100) 
-1.29057

>  <r_i_glide_evdw>  (100) 
-26.6187

>  <r_i_glide_ecoul>  (100) 
-3.59914

>  <r_i_glide_erotb>  (100) 
0.519426

>  <r_i_glide_esite>  (100) 
0

>  <r_i_glide_emodel>  (100) 
-35.917

>  <r_i_glide_energy>  (100) 
-30.2179

>  <r_i_glide_einternal>  (100) 
0.610008

>  <r_i_glide_intrahb_reward>  (100) 
-0

>  <i_i_glide_confnum>  (100) 
4

>  <i_i_glide_posenum>  (100) 
31

>  <r_i_glide_eff_state_penalty>  (100) 
0

>  <ligand_id>  (100) 
23

>  <original_smiles>  (100) 
O=C(NC1C2CC3CC(C2)CC1C3)C1C2CC3CC1CC(O)(C3)C2

>  <smiles>  (100) 
[H]OC12C([H])([H])C3([H])C([H])([H])C([H])(C1([H])[H])C([H])(C(=O)N([H])C1([H])C4([H])C([H])([H])C5([H])C([H])([H])C([H])(C4([H])[H])C([H])([H])C1([H])C5([H])[H])C([H])(C3([H])[H])C2([H])[H]

$$$$
23:0:1
     RDKit          3D

 55 60  0  0  1  0  0  0  0  0999 V2000
   -1.3822    0.9626    7.0650 O   0  0  0  0  0  0  0  0  0  0  0  0
   -0.7633    2.0199    6.8940 C   0  0  0  0  0  0  0  0  0  0  0  0
    0.3088    2.0931    6.0971 N   0  0  0  0  0  0  0  0  0  0  0  0
    0.8906    0.9877    5.3453 C   0  0  2  0  0  0  0  0  0  0  0  0
    2.3799    1.2650    5.0336 C   0  0  1  0  0  0  0  0  0  0  0  0
    2.9802    0.0399    4.3039 C   0  0  0  0  0  0  0  0  0  0  0  0
    2.2169   -0.1907    2.9820 C   0  0  2  0  0  0  0  0  0  0  0  0
    2.3384    1.0569    2.0868 C   0  0  0  0  0  0  0  0  0  0  0  0
    1.7381    2.2771    2.8147 C   0  0  2  0  0  0  0  0  0  0  0  0
    2.5138    2.5140    4.1290 C   0  0  0  0  0  0  0  0  0  0  0  0
    0.2488    2.0145    3.1200 C   0  0  0  0  0  0  0  0  0  0  0  0
    0.1271    0.7603    4.0171 C   0  0  1  0  0  0  0  0  0  0  0  0
    0.7319   -0.4579    3.2854 C   0  0  0  0  0  0  0  0  0  0  0  0
   -1.2245    3.3342    7.5550 C   0  0  2  0  0  0  0  0  0  0  0  0
   -0.1164    4.0758    8.3628 C   0  0  1  0  0  0  0  0  0  0  0  0
   -0.6483    5.4597    8.8130 C   0  0  0  0  0  0  0  0  0  0  0  0
   -1.8816    5.2698    9.7256 C   0  0  1  0  0  0  0  0  0  0  0  0
   -2.9741    4.5158    8.9392 C   0  0  0  0  0  0  0  0  0  0  0  0
   -2.4438    3.1414    8.4973 C   0  0  2  0  0  0  0  0  0  0  0  0
   -2.0486    2.3396    9.7601 C   0  0  0  0  0  0  0  0  0  0  0  0
   -0.9484    3.0824   10.5351 C   0  0  2  0  0  0  0  0  0  0  0  0
   -0.5852    2.3187   11.6719 O   0  0  0  0  0  0  0  0  0  0  0  0
   -1.4821    4.4595   10.9782 C   0  0  0  0  0  0  0  0  0  0  0  0
    0.2876    3.2683    9.6205 C   0  0  0  0  0  0  0  0  0  0  0  0
    0.7112    3.0056    5.9523 H   0  0  0  0  0  0  0  0  0  0  0  0
    0.8377    0.0845    5.9526 H   0  0  0  0  0  0  0  0  0  0  0  0
    2.9278    1.4235    5.9646 H   0  0  0  0  0  0  0  0  0  0  0  0
    4.0412    0.2024    4.1031 H   0  0  0  0  0  0  0  0  0  0  0  0
    2.9177   -0.8495    4.9356 H   0  0  0  0  0  0  0  0  0  0  0  0
    2.6317   -1.0505    2.4565 H   0  0  0  0  0  0  0  0  0  0  0  0
    3.3856    1.2472    1.8498 H   0  0  0  0  0  0  0  0  0  0  0  0
    1.8239    0.8900    1.1398 H   0  0  0  0  0  0  0  0  0  0  0  0
    1.8203    3.1586    2.1775 H   0  0  0  0  0  0  0  0  0  0  0  0
    2.1396    3.4071    4.6311 H   0  0  0  0  0  0  0  0  0  0  0  0
    3.5655    2.7108    3.9147 H   0  0  0  0  0  0  0  0  0  0  0  0
   -0.1909    2.8876    3.6048 H   0  0  0  0  0  0  0  0  0  0  0  0
   -0.3091    1.8774    2.1927 H   0  0  0  0  0  0  0  0  0  0  0  0
   -0.9260    0.5588    4.2235 H   0  0  0  0  0  0  0  0  0  0  0  0
    0.2100   -0.6359    2.3460 H   0  0  0  0  0  0  0  0  0  0  0  0
    0.6181   -1.3607    3.8906 H   0  0  0  0  0  0  0  0  0  0  0  0
   -1.5315    3.9870    6.7350 H   0  0  0  0  0  0  0  0  0  0  0  0
    0.7652    4.2347    7.7407 H   0  0  0  0  0  0  0  0  0  0  0  0
    0.1283    6.0044    9.3504 H   0  0  0  0  0  0  0  0  0  0  0  0
   -0.9150    6.0697    7.9486 H   0  0  0  0  0  0  0  0  0  0  0  0
   -2.2693    6.2421   10.0443 H   0  0  0  0  0  0  0  0  0  0  0  0
   -3.8439    4.3730    9.5739 H   0  0  0  0  0  0  0  0  0  0  0  0
   -3.2976    5.1089    8.0814 H   0  0  0  0  0  0  0  0  0  0  0  0
   -3.2384    2.6166    7.9666 H   0  0  0  0  0  0  0  0  0  0  0  0
   -2.9219    2.1932   10.3959 H   0  0  0  0  0  0  0  0  0  0  0  0
   -1.6756    1.3462    9.5108 H   0  0  0  0  0  0  0  0  0  0  0  0
   -1.3663    2.1443   12.1972 H   0  0  0  0  0  0  0  0  0  0  0  0
   -0.7177    4.9916   11.5462 H   0  0  0  0  0  0  0  0  0  0  0  0
   -2.3438    4.3367   11.6377 H   0  0  0  0  0  0  0  0  0  0  0  0
    0.7096    2.3002    9.3456 H   0  0  0  0  0  0  0  0  0  0  0  0
    1.0700    3.7981   10.1630 H   0  0  0  0  0  0  0  0  0  0  0  0
  1  2  2  0
  2  3  1  0
  2 14  1  0
  3  4  1  0
  3 25  1  0
  4 12  1  0
  4  5  1  0
  4 26  1  1
  5 10  1  0
  5  6  1  0
  5 27  1  1
  6  7  1  0
  6 28  1  0
  6 29  1  0
  7 13  1  0
  7  8  1  0
  7 30  1  6
  8  9  1  0
  8 31  1  0
  8 32  1  0
  9 10  1  0
  9 11  1  0
  9 33  1  6
 10 34  1  0
 10 35  1  0
 11 12  1  0
 11 36  1  0
 11 37  1  0
 12 13  1  0
 12 38  1  1
 13 39  1  0
 13 40  1  0
 14 19  1  0
 14 15  1  0
 14 41  1  6
 15 24  1  0
 15 16  1  0
 15 42  1  6
 16 17  1  0
 16 43  1  0
 16 44  1  0
 17 23  1  0
 17 18  1  0
 17 45  1  1
 18 19  1  0
 18 46  1  0
 18 47  1  0
 19 20  1  0
 19 48  1  6
 20 21  1  0
 20 49  1  0
 20 50  1  0
 21 22  1  1
 21 23  1  0
 21 24  1  0
 22 51  1  0
 23 52  1  0
 23 53  1  0
 24 54  1  0
 24 55  1  0
M  END
>  <i_m_ct_stereo_status>  (101) 
1

>  <s_m_source_file>  (101) 
/var/tmp/pbs.5076255.sched01/tmp7dv9smms/08akalw19.sdf

>  <i_m_source_file_index>  (101) 
38

>  <i_lp_mmshare_version>  (101) 
48012

>  <i_f3d_flags>  (101) 
0

>  <s_epik_input>  (101) 
W0NIMl0xW0NAQEhdKFtDSDJdMilbQ0gyXVtDQEBIXShbQ0gyXTMpW0NASF0oW0NASF0xW0NIMl1bQ0BdMjNbT0hdKUMoPU8pW05IXVtDQEhdKFtDQEBIXTQ1KVtDQEhdNltDSDJdW0NAQEhdKFtDSDJdNSlbQ0gyXVtDQEBIXShbQ0gyXTQpW0NIMl02

>  <s_epik_cmdline>  (101) 
J2VwaWtfcHl0aG9uJywgJy1waHQnLCAnMi4wJywgJy1waCcsICc3LjAnLCAnLXRuJywgJzgnLCAnLW1hJywgJzIwMCcsICctaW1hZScsICc8aW5maWxlLm1hZT4nLCAnLW9tYWUnLCAnPG91dGZpbGUubWFlPic=

>  <r_lp_tautomer_probability>  (101) 
1

>  <r_epik_Ionization_Penalty>  (101) 
2.33129e-06

>  <r_epik_Ionization_Penalty_Charging>  (101) 
0

>  <r_epik_Ionization_Penalty_Neutral>  (101) 
2.33129e-06

>  <r_epik_State_Penalty>  (101) 
-0

>  <r_epik_Charging_Adjusted_Penalty>  (101) 
0

>  <i_epik_Tot_Q>  (101) 
0

>  <i_epik_Tot_abs_Q>  (101) 
0

>  <s_lp_Force_Field>  (101) 
OPLS3e

>  <r_lp_Energy>  (101) 
-7.28839

>  <b_lp_Chiralities_Consistent>  (101) 
1

>  <s_lp_Variant>  (101) 
23:0-1

>  <s_i_glide_gridfile>  (101) 
pfpi4k_grid

>  <i_i_glide_lignum>  (101) 
38

>  <i_i_glide_rotatable_bonds>  (101) 
4

>  <r_i_docking_score>  (101) 
-2.99728

>  <r_i_glide_ligand_efficiency>  (101) 
-0.124887

>  <r_i_glide_ligand_efficiency_sa>  (101) 
-0.360235

>  <r_i_glide_ligand_efficiency_ln>  (101) 
-0.717386

>  <r_i_glide_gscore>  (101) 
-2.99728

>  <r_i_glide_lipo>  (101) 
-0.127072

>  <r_i_glide_hbond>  (101) 
-0.28399

>  <r_i_glide_metal>  (101) 
-0

>  <r_i_glide_rewards>  (101) 
-1.16266

>  <r_i_glide_evdw>  (101) 
-21.9699

>  <r_i_glide_ecoul>  (101) 
-5.56381

>  <r_i_glide_erotb>  (101) 
0.519426

>  <r_i_glide_esite>  (101) 
-0.00991334

>  <r_i_glide_emodel>  (101) 
-33.0906

>  <r_i_glide_energy>  (101) 
-27.5337

>  <r_i_glide_einternal>  (101) 
0.43279

>  <r_i_glide_intrahb_reward>  (101) 
-0

>  <i_i_glide_confnum>  (101) 
1

>  <i_i_glide_posenum>  (101) 
3

>  <r_i_glide_eff_state_penalty>  (101) 
0

>  <ligand_id>  (101) 
23

>  <original_smiles>  (101) 
O=C(NC1C2CC3CC(C2)CC1C3)C1C2CC3CC1CC(O)(C3)C2

>  <smiles>  (101) 
[H]OC12C([H])([H])C3([H])C([H])([H])C([H])(C1([H])[H])C([H])(C(=O)N([H])C1([H])C4([H])C([H])([H])C5([H])C([H])([H])C([H])(C4([H])[H])C([H])([H])C1([H])C5([H])[H])C([H])(C3([H])[H])C2([H])[H]

$$$$
23:0:2
     RDKit          3D

 55 60  0  0  1  0  0  0  0  0999 V2000
    4.8674   -4.2820    2.1622 O   0  0  0  0  0  0  0  0  0  0  0  0
    4.2902   -4.8684    1.2489 C   0  0  0  0  0  0  0  0  0  0  0  0
    3.6315   -6.0115    1.4652 N   0  0  0  0  0  0  0  0  0  0  0  0
    3.4574   -6.6609    2.7615 C   0  0  2  0  0  0  0  0  0  0  0  0
    4.2338   -7.9953    2.8280 C   0  0  1  0  0  0  0  0  0  0  0  0
    4.0648   -8.6044    4.2407 C   0  0  0  0  0  0  0  0  0  0  0  0
    2.5643   -8.8627    4.5100 C   0  0  2  0  0  0  0  0  0  0  0  0
    2.0166   -9.8403    3.4514 C   0  0  0  0  0  0  0  0  0  0  0  0
    2.1851   -9.2231    2.0463 C   0  0  2  0  0  0  0  0  0  0  0  0
    3.6839   -8.9816    1.7736 C   0  0  0  0  0  0  0  0  0  0  0  0
    1.4037   -7.8947    1.9663 C   0  0  0  0  0  0  0  0  0  0  0  0
    1.9584   -6.9176    3.0268 C   0  0  1  0  0  0  0  0  0  0  0  0
    1.7867   -7.5306    4.4354 C   0  0  0  0  0  0  0  0  0  0  0  0
    4.2865   -4.3151   -0.1892 C   0  0  2  0  0  0  0  0  0  0  0  0
    5.6513   -3.7608   -0.6778 C   0  0  1  0  0  0  0  0  0  0  0  0
    5.5461   -3.4301   -2.1924 C   0  0  0  0  0  0  0  0  0  0  0  0
    4.4637   -2.3459   -2.4151 C   0  0  1  0  0  0  0  0  0  0  0  0
    3.1060   -2.8822   -1.9157 C   0  0  0  0  0  0  0  0  0  0  0  0
    3.2039   -3.2206   -0.4061 C   0  0  2  0  0  0  0  0  0  0  0  0
    3.5758   -1.9381    0.3787 C   0  0  0  0  0  0  0  0  0  0  0  0
    4.9399   -1.4095   -0.1250 C   0  0  2  0  0  0  0  0  0  0  0  0
    5.2960   -0.2558    0.5940 O   0  0  0  0  0  0  0  0  0  0  0  0
    4.8405   -1.0696   -1.6289 C   0  0  0  0  0  0  0  0  0  0  0  0
    6.0509   -2.4637    0.0720 C   0  0  0  0  0  0  0  0  0  0  0  0
    3.2063   -6.4633    0.6705 H   0  0  0  0  0  0  0  0  0  0  0  0
    3.8218   -6.0289    3.5695 H   0  0  0  0  0  0  0  0  0  0  0  0
    5.2943   -7.8147    2.6449 H   0  0  0  0  0  0  0  0  0  0  0  0
    4.6302   -9.5353    4.3221 H   0  0  0  0  0  0  0  0  0  0  0  0
    4.4749   -7.9306    4.9973 H   0  0  0  0  0  0  0  0  0  0  0  0
    2.4380   -9.2964    5.5031 H   0  0  0  0  0  0  0  0  0  0  0  0
    2.5501  -10.7889    3.5067 H   0  0  0  0  0  0  0  0  0  0  0  0
    0.9664  -10.0598    3.6497 H   0  0  0  0  0  0  0  0  0  0  0  0
    1.7990   -9.9036    1.2916 H   0  0  0  0  0  0  0  0  0  0  0  0
    3.8278   -8.5980    0.7635 H   0  0  0  0  0  0  0  0  0  0  0  0
    4.2297   -9.9261    1.8138 H   0  0  0  0  0  0  0  0  0  0  0  0
    1.4876   -7.4758    0.9627 H   0  0  0  0  0  0  0  0  0  0  0  0
    0.3386   -8.0680    2.1294 H   0  0  0  0  0  0  0  0  0  0  0  0
    1.4175   -5.9707    2.9854 H   0  0  0  0  0  0  0  0  0  0  0  0
    0.7272   -7.6986    4.6444 H   0  0  0  0  0  0  0  0  0  0  0  0
    2.1507   -6.8366    5.1985 H   0  0  0  0  0  0  0  0  0  0  0  0
    4.0471   -5.1575   -0.8345 H   0  0  0  0  0  0  0  0  0  0  0  0
    6.4153   -4.5210   -0.5243 H   0  0  0  0  0  0  0  0  0  0  0  0
    6.5078   -3.0786   -2.5675 H   0  0  0  0  0  0  0  0  0  0  0  0
    5.2958   -4.3201   -2.7737 H   0  0  0  0  0  0  0  0  0  0  0  0
    4.3916   -2.1013   -3.4801 H   0  0  0  0  0  0  0  0  0  0  0  0
    2.3273   -2.1384   -2.0921 H   0  0  0  0  0  0  0  0  0  0  0  0
    2.8147   -3.7622   -2.4952 H   0  0  0  0  0  0  0  0  0  0  0  0
    2.2378   -3.5868   -0.0706 H   0  0  0  0  0  0  0  0  0  0  0  0
    2.7951   -1.1893    0.2495 H   0  0  0  0  0  0  0  0  0  0  0  0
    3.6137   -2.1363    1.4492 H   0  0  0  0  0  0  0  0  0  0  0  0
    4.7137    0.4461    0.3407 H   0  0  0  0  0  0  0  0  0  0  0  0
    5.7958   -0.6888   -1.9825 H   0  0  0  0  0  0  0  0  0  0  0  0
    4.1016   -0.2894   -1.8114 H   0  0  0  0  0  0  0  0  0  0  0  0
    6.2291   -2.6289    1.1336 H   0  0  0  0  0  0  0  0  0  0  0  0
    6.9966   -2.0965   -0.3273 H   0  0  0  0  0  0  0  0  0  0  0  0
  1  2  2  0
  2  3  1  0
  2 14  1  0
  3  4  1  0
  3 25  1  0
  4 12  1  0
  4  5  1  0
  4 26  1  1
  5 10  1  0
  5  6  1  0
  5 27  1  6
  6  7  1  0
  6 28  1  0
  6 29  1  0
  7 13  1  0
  7  8  1  0
  7 30  1  1
  8  9  1  0
  8 31  1  0
  8 32  1  0
  9 10  1  0
  9 11  1  0
  9 33  1  6
 10 34  1  0
 10 35  1  0
 11 12  1  0
 11 36  1  0
 11 37  1  0
 12 13  1  0
 12 38  1  1
 13 39  1  0
 13 40  1  0
 14 19  1  0
 14 15  1  0
 14 41  1  6
 15 24  1  0
 15 16  1  0
 15 42  1  6
 16 17  1  0
 16 43  1  0
 16 44  1  0
 17 23  1  0
 17 18  1  0
 17 45  1  6
 18 19  1  0
 18 46  1  0
 18 47  1  0
 19 20  1  0
 19 48  1  1
 20 21  1  0
 20 49  1  0
 20 50  1  0
 21 22  1  1
 21 23  1  0
 21 24  1  0
 22 51  1  0
 23 52  1  0
 23 53  1  0
 24 54  1  0
 24 55  1  0
M  END
>  <i_m_ct_stereo_status>  (102) 
1

>  <s_m_source_file>  (102) 
/var/tmp/pbs.5076255.sched01/tmp7dv9smms/08akalw19.sdf

>  <i_m_source_file_index>  (102) 
38

>  <i_lp_mmshare_version>  (102) 
48012

>  <i_f3d_flags>  (102) 
0

>  <s_epik_input>  (102) 
W0NIMl0xW0NAQEhdKFtDSDJdMilbQ0gyXVtDQEBIXShbQ0gyXTMpW0NASF0oW0NASF0xW0NIMl1bQ0BdMjNbT0hdKUMoPU8pW05IXVtDQEhdKFtDQEBIXTQ1KVtDQEhdNltDSDJdW0NAQEhdKFtDSDJdNSlbQ0gyXVtDQEBIXShbQ0gyXTQpW0NIMl02

>  <s_epik_cmdline>  (102) 
J2VwaWtfcHl0aG9uJywgJy1waHQnLCAnMi4wJywgJy1waCcsICc3LjAnLCAnLXRuJywgJzgnLCAnLW1hJywgJzIwMCcsICctaW1hZScsICc8aW5maWxlLm1hZT4nLCAnLW9tYWUnLCAnPG91dGZpbGUubWFlPic=

>  <r_lp_tautomer_probability>  (102) 
1

>  <r_epik_Ionization_Penalty>  (102) 
2.33129e-06

>  <r_epik_Ionization_Penalty_Charging>  (102) 
0

>  <r_epik_Ionization_Penalty_Neutral>  (102) 
2.33129e-06

>  <r_epik_State_Penalty>  (102) 
-0

>  <r_epik_Charging_Adjusted_Penalty>  (102) 
0

>  <i_epik_Tot_Q>  (102) 
0

>  <i_epik_Tot_abs_Q>  (102) 
0

>  <s_lp_Force_Field>  (102) 
OPLS3e

>  <r_lp_Energy>  (102) 
-7.28839

>  <b_lp_Chiralities_Consistent>  (102) 
1

>  <s_lp_Variant>  (102) 
23:0-1

>  <s_i_glide_gridfile>  (102) 
pfpi4k_grid

>  <i_i_glide_lignum>  (102) 
38

>  <i_i_glide_rotatable_bonds>  (102) 
4

>  <r_i_docking_score>  (102) 
-2.85107

>  <r_i_glide_ligand_efficiency>  (102) 
-0.118795

>  <r_i_glide_ligand_efficiency_sa>  (102) 
-0.342663

>  <r_i_glide_ligand_efficiency_ln>  (102) 
-0.682392

>  <r_i_glide_gscore>  (102) 
-2.85107

>  <r_i_glide_lipo>  (102) 
-0.44284

>  <r_i_glide_hbond>  (102) 
-0.0469727

>  <r_i_glide_metal>  (102) 
-0

>  <r_i_glide_rewards>  (102) 
-1.19974

>  <r_i_glide_evdw>  (102) 
-28.5718

>  <r_i_glide_ecoul>  (102) 
-1.68235

>  <r_i_glide_erotb>  (102) 
0.519426

>  <r_i_glide_esite>  (102) 
0

>  <r_i_glide_emodel>  (102) 
-35.0693

>  <r_i_glide_energy>  (102) 
-30.2541

>  <r_i_glide_einternal>  (102) 
1.07476

>  <r_i_glide_intrahb_reward>  (102) 
-0

>  <i_i_glide_confnum>  (102) 
4

>  <i_i_glide_posenum>  (102) 
8

>  <r_i_glide_eff_state_penalty>  (102) 
0

>  <ligand_id>  (102) 
23

>  <original_smiles>  (102) 
O=C(NC1C2CC3CC(C2)CC1C3)C1C2CC3CC1CC(O)(C3)C2

>  <smiles>  (102) 
[H]OC12C([H])([H])C3([H])C([H])([H])C([H])(C1([H])[H])C([H])(C(=O)N([H])C1([H])C4([H])C([H])([H])C5([H])C([H])([H])C([H])(C4([H])[H])C([H])([H])C1([H])C5([H])[H])C([H])(C3([H])[H])C2([H])[H]

$$$$
24:0:0
     RDKit          3D

 13 14  0  0  1  0  0  0  0  0999 V2000
    0.8175    1.0143    1.9457 Cl  0  0  0  0  0  0  0  0  0  0  0  0
   -0.0863    0.9639    3.4090 C   0  0  0  0  0  0  0  0  0  0  0  0
   -0.3122   -0.2646    4.0778 C   0  0  0  0  0  0  0  0  0  0  0  0
   -0.9986   -0.3865    5.2112 N   0  0  0  0  0  0  0  0  0  0  0  0
   -1.4785    0.7542    5.7412 C   0  0  0  0  0  0  0  0  0  0  0  0
   -2.1677    0.9397    6.8648 N   0  0  0  0  0  0  0  0  0  0  0  0
   -2.3594    2.2879    6.8715 C   0  0  0  0  0  0  0  0  0  0  0  0
   -3.2285    3.0240    8.1582 Cl  0  0  0  0  0  0  0  0  0  0  0  0
   -1.8722    2.9835    5.8493 N   0  0  0  0  0  0  0  0  0  0  0  0
   -1.2884    2.0024    5.1163 N   0  0  0  0  0  0  0  0  0  0  0  0
   -0.5983    2.1208    3.9483 C   0  0  0  0  0  0  0  0  0  0  0  0
    0.0836   -1.1824    3.6501 H   0  0  0  0  0  0  0  0  0  0  0  0
   -0.4770    3.1059    3.5077 H   0  0  0  0  0  0  0  0  0  0  0  0
  1  2  1  0
  2 11  2  0
  2  3  1  0
  3  4  2  0
  3 12  1  0
  4  5  1  0
  5 10  1  0
  5  6  2  0
  6  7  1  0
  7  8  1  0
  7  9  2  0
  9 10  1  0
 10 11  1  0
 11 13  1  0
M  END
>  <i_m_ct_stereo_status>  (103) 
1

>  <s_m_source_file>  (103) 
/var/tmp/pbs.5076255.sched01/tmp7dv9smms/08akalw19.sdf

>  <i_m_source_file_index>  (103) 
39

>  <i_lp_mmshare_version>  (103) 
48012

>  <i_f3d_flags>  (103) 
0

>  <s_epik_input>  (103) 
bjFbY0hdYyhDbClbY0hdbihjMTIpbmMobjIpQ2w=

>  <s_epik_cmdline>  (103) 
J2VwaWtfcHl0aG9uJywgJy1waHQnLCAnMi4wJywgJy1waCcsICc3LjAnLCAnLXRuJywgJzgnLCAnLW1hJywgJzIwMCcsICctaW1hZScsICc8aW5maWxlLm1hZT4nLCAnLW9tYWUnLCAnPG91dGZpbGUubWFlPic=

>  <r_lp_tautomer_probability>  (103) 
1

>  <r_epik_Ionization_Penalty>  (103) 
8.73152e-13

>  <r_epik_Ionization_Penalty_Charging>  (103) 
0

>  <r_epik_Ionization_Penalty_Neutral>  (103) 
8.73152e-13

>  <r_epik_State_Penalty>  (103) 
-0

>  <r_epik_Charging_Adjusted_Penalty>  (103) 
0

>  <i_epik_Tot_Q>  (103) 
0

>  <i_epik_Tot_abs_Q>  (103) 
0

>  <s_lp_Force_Field>  (103) 
OPLS3e

>  <r_lp_Energy>  (103) 
12.8524

>  <b_lp_Chiralities_Consistent>  (103) 
1

>  <s_lp_Variant>  (103) 
24:0-1

>  <s_i_glide_gridfile>  (103) 
pfpi4k_grid

>  <i_i_glide_lignum>  (103) 
39

>  <i_i_glide_rotatable_bonds>  (103) 
0

>  <r_i_docking_score>  (103) 
-4.10869

>  <r_i_glide_ligand_efficiency>  (103) 
-0.373518

>  <r_i_glide_ligand_efficiency_sa>  (103) 
-0.830696

>  <r_i_glide_ligand_efficiency_ln>  (103) 
-1.20919

>  <r_i_glide_gscore>  (103) 
-4.10869

>  <r_i_glide_lipo>  (103) 
-0.0722329

>  <r_i_glide_hbond>  (103) 
-0.16

>  <r_i_glide_metal>  (103) 
-0

>  <r_i_glide_rewards>  (103) 
-2.18077

>  <r_i_glide_evdw>  (103) 
-15.5647

>  <r_i_glide_ecoul>  (103) 
-5.73903

>  <r_i_glide_erotb>  (103) 
0

>  <r_i_glide_esite>  (103) 
-0.0566043

>  <r_i_glide_emodel>  (103) 
-27.4534

>  <r_i_glide_energy>  (103) 
-21.3037

>  <r_i_glide_einternal>  (103) 
0

>  <r_i_glide_intrahb_reward>  (103) 
-0

>  <i_i_glide_confnum>  (103) 
1

>  <i_i_glide_posenum>  (103) 
2

>  <r_i_glide_eff_state_penalty>  (103) 
0

>  <ligand_id>  (103) 
24

>  <original_smiles>  (103) 
Clc1cnc2nc(Cl)nn2c1

>  <smiles>  (103) 
[H]c1nc2nc(Cl)nn2c([H])c1Cl

$$$$
24:0:1
     RDKit          3D

 13 14  0  0  1  0  0  0  0  0999 V2000
    3.8127   -1.2367   -4.2001 Cl  0  0  0  0  0  0  0  0  0  0  0  0
    3.9893   -2.3631   -2.9090 C   0  0  0  0  0  0  0  0  0  0  0  0
    5.2513   -2.9350   -2.6099 C   0  0  0  0  0  0  0  0  0  0  0  0
    5.4767   -3.7792   -1.6100 N   0  0  0  0  0  0  0  0  0  0  0  0
    4.4151   -4.1285   -0.8631 C   0  0  0  0  0  0  0  0  0  0  0  0
    4.3361   -4.9594    0.1701 N   0  0  0  0  0  0  0  0  0  0  0  0
    3.0120   -4.9137    0.4787 C   0  0  0  0  0  0  0  0  0  0  0  0
    2.3510   -5.8315    1.7792 Cl  0  0  0  0  0  0  0  0  0  0  0  0
    2.2379   -4.1262   -0.2549 N   0  0  0  0  0  0  0  0  0  0  0  0
    3.1355   -3.5998   -1.1196 N   0  0  0  0  0  0  0  0  0  0  0  0
    2.9084   -2.7160   -2.1327 C   0  0  0  0  0  0  0  0  0  0  0  0
    6.1197   -2.6695   -3.2033 H   0  0  0  0  0  0  0  0  0  0  0  0
    1.8981   -2.3420   -2.2760 H   0  0  0  0  0  0  0  0  0  0  0  0
  1  2  1  0
  2 11  2  0
  2  3  1  0
  3  4  2  0
  3 12  1  0
  4  5  1  0
  5 10  1  0
  5  6  2  0
  6  7  1  0
  7  8  1  0
  7  9  2  0
  9 10  1  0
 10 11  1  0
 11 13  1  0
M  END
>  <i_m_ct_stereo_status>  (104) 
1

>  <s_m_source_file>  (104) 
/var/tmp/pbs.5076255.sched01/tmp7dv9smms/08akalw19.sdf

>  <i_m_source_file_index>  (104) 
39

>  <i_lp_mmshare_version>  (104) 
48012

>  <i_f3d_flags>  (104) 
0

>  <s_epik_input>  (104) 
bjFbY0hdYyhDbClbY0hdbihjMTIpbmMobjIpQ2w=

>  <s_epik_cmdline>  (104) 
J2VwaWtfcHl0aG9uJywgJy1waHQnLCAnMi4wJywgJy1waCcsICc3LjAnLCAnLXRuJywgJzgnLCAnLW1hJywgJzIwMCcsICctaW1hZScsICc8aW5maWxlLm1hZT4nLCAnLW9tYWUnLCAnPG91dGZpbGUubWFlPic=

>  <r_lp_tautomer_probability>  (104) 
1

>  <r_epik_Ionization_Penalty>  (104) 
8.73152e-13

>  <r_epik_Ionization_Penalty_Charging>  (104) 
0

>  <r_epik_Ionization_Penalty_Neutral>  (104) 
8.73152e-13

>  <r_epik_State_Penalty>  (104) 
-0

>  <r_epik_Charging_Adjusted_Penalty>  (104) 
0

>  <i_epik_Tot_Q>  (104) 
0

>  <i_epik_Tot_abs_Q>  (104) 
0

>  <s_lp_Force_Field>  (104) 
OPLS3e

>  <r_lp_Energy>  (104) 
12.8524

>  <b_lp_Chiralities_Consistent>  (104) 
1

>  <s_lp_Variant>  (104) 
24:0-1

>  <s_i_glide_gridfile>  (104) 
pfpi4k_grid

>  <i_i_glide_lignum>  (104) 
39

>  <i_i_glide_rotatable_bonds>  (104) 
0

>  <r_i_docking_score>  (104) 
-3.97933

>  <r_i_glide_ligand_efficiency>  (104) 
-0.361757

>  <r_i_glide_ligand_efficiency_sa>  (104) 
-0.804541

>  <r_i_glide_ligand_efficiency_ln>  (104) 
-1.17112

>  <r_i_glide_gscore>  (104) 
-3.97933

>  <r_i_glide_lipo>  (104) 
-0.315058

>  <r_i_glide_hbond>  (104) 
0

>  <r_i_glide_metal>  (104) 
-0

>  <r_i_glide_rewards>  (104) 
-2.18768

>  <r_i_glide_evdw>  (104) 
-17.7788

>  <r_i_glide_ecoul>  (104) 
-3.6411

>  <r_i_glide_erotb>  (104) 
0

>  <r_i_glide_esite>  (104) 
-0.0414842

>  <r_i_glide_emodel>  (104) 
-27.3773

>  <r_i_glide_energy>  (104) 
-21.4199

>  <r_i_glide_einternal>  (104) 
0

>  <r_i_glide_intrahb_reward>  (104) 
-0

>  <i_i_glide_confnum>  (104) 
1

>  <i_i_glide_posenum>  (104) 
1

>  <r_i_glide_eff_state_penalty>  (104) 
0

>  <ligand_id>  (104) 
24

>  <original_smiles>  (104) 
Clc1cnc2nc(Cl)nn2c1

>  <smiles>  (104) 
[H]c1nc2nc(Cl)nn2c([H])c1Cl

$$$$
24:0:2
     RDKit          3D

 13 14  0  0  1  0  0  0  0  0999 V2000
    3.4158   -0.4028   -4.5923 Cl  0  0  0  0  0  0  0  0  0  0  0  0
    3.6148   -1.2185   -3.0850 C   0  0  0  0  0  0  0  0  0  0  0  0
    4.6116   -0.7943   -2.1755 C   0  0  0  0  0  0  0  0  0  0  0  0
    4.8518   -1.3551   -0.9952 N   0  0  0  0  0  0  0  0  0  0  0  0
    4.0420   -2.3674   -0.6459 C   0  0  0  0  0  0  0  0  0  0  0  0
    4.0400   -3.1118    0.4551 N   0  0  0  0  0  0  0  0  0  0  0  0
    3.0150   -3.9762    0.2252 C   0  0  0  0  0  0  0  0  0  0  0  0
    2.5778   -5.1869    1.3741 Cl  0  0  0  0  0  0  0  0  0  0  0  0
    2.3388   -3.8465   -0.9085 N   0  0  0  0  0  0  0  0  0  0  0  0
    3.0163   -2.8255   -1.4973 N   0  0  0  0  0  0  0  0  0  0  0  0
    2.8018   -2.2689   -2.7233 C   0  0  0  0  0  0  0  0  0  0  0  0
    5.2476    0.0483   -2.4274 H   0  0  0  0  0  0  0  0  0  0  0  0
    1.9927   -2.6658   -3.3292 H   0  0  0  0  0  0  0  0  0  0  0  0
  1  2  1  0
  2 11  2  0
  2  3  1  0
  3  4  2  0
  3 12  1  0
  4  5  1  0
  5 10  1  0
  5  6  2  0
  6  7  1  0
  7  8  1  0
  7  9  2  0
  9 10  1  0
 10 11  1  0
 11 13  1  0
M  END
>  <i_m_ct_stereo_status>  (105) 
1

>  <s_m_source_file>  (105) 
/var/tmp/pbs.5076255.sched01/tmp7dv9smms/08akalw19.sdf

>  <i_m_source_file_index>  (105) 
39

>  <i_lp_mmshare_version>  (105) 
48012

>  <i_f3d_flags>  (105) 
0

>  <s_epik_input>  (105) 
bjFbY0hdYyhDbClbY0hdbihjMTIpbmMobjIpQ2w=

>  <s_epik_cmdline>  (105) 
J2VwaWtfcHl0aG9uJywgJy1waHQnLCAnMi4wJywgJy1waCcsICc3LjAnLCAnLXRuJywgJzgnLCAnLW1hJywgJzIwMCcsICctaW1hZScsICc8aW5maWxlLm1hZT4nLCAnLW9tYWUnLCAnPG91dGZpbGUubWFlPic=

>  <r_lp_tautomer_probability>  (105) 
1

>  <r_epik_Ionization_Penalty>  (105) 
8.73152e-13

>  <r_epik_Ionization_Penalty_Charging>  (105) 
0

>  <r_epik_Ionization_Penalty_Neutral>  (105) 
8.73152e-13

>  <r_epik_State_Penalty>  (105) 
-0

>  <r_epik_Charging_Adjusted_Penalty>  (105) 
0

>  <i_epik_Tot_Q>  (105) 
0

>  <i_epik_Tot_abs_Q>  (105) 
0

>  <s_lp_Force_Field>  (105) 
OPLS3e

>  <r_lp_Energy>  (105) 
12.8524

>  <b_lp_Chiralities_Consistent>  (105) 
1

>  <s_lp_Variant>  (105) 
24:0-1

>  <s_i_glide_gridfile>  (105) 
pfpi4k_grid

>  <i_i_glide_lignum>  (105) 
39

>  <i_i_glide_rotatable_bonds>  (105) 
0

>  <r_i_docking_score>  (105) 
-3.80797

>  <r_i_glide_ligand_efficiency>  (105) 
-0.346179

>  <r_i_glide_ligand_efficiency_sa>  (105) 
-0.769896

>  <r_i_glide_ligand_efficiency_ln>  (105) 
-1.12069

>  <r_i_glide_gscore>  (105) 
-3.80797

>  <r_i_glide_lipo>  (105) 
-0.356442

>  <r_i_glide_hbond>  (105) 
0

>  <r_i_glide_metal>  (105) 
-0

>  <r_i_glide_rewards>  (105) 
-2.12044

>  <r_i_glide_evdw>  (105) 
-19.8643

>  <r_i_glide_ecoul>  (105) 
-1.82109

>  <r_i_glide_erotb>  (105) 
0

>  <r_i_glide_esite>  (105) 
-0.0647076

>  <r_i_glide_emodel>  (105) 
-27.3851

>  <r_i_glide_energy>  (105) 
-21.6854

>  <r_i_glide_einternal>  (105) 
0

>  <r_i_glide_intrahb_reward>  (105) 
-0

>  <i_i_glide_confnum>  (105) 
1

>  <i_i_glide_posenum>  (105) 
9

>  <r_i_glide_eff_state_penalty>  (105) 
0

>  <ligand_id>  (105) 
24

>  <original_smiles>  (105) 
Clc1cnc2nc(Cl)nn2c1

>  <smiles>  (105) 
[H]c1nc2nc(Cl)nn2c([H])c1Cl

$$$$
25:0:0
     RDKit          3D

 61 66  0  0  1  0  0  0  0  0999 V2000
    3.0182   -3.0889   -0.5376 C   0  0  0  0  0  0  0  0  0  0  0  0
    3.2645   -2.8047    0.9265 C   0  0  0  0  0  0  0  0  0  0  0  0
    3.8797   -3.5936    1.8129 C   0  0  0  0  0  0  0  0  0  0  0  0
    3.7764   -3.0002    3.1927 C   0  0  1  0  0  0  0  0  0  0  0  0
    4.9035   -3.2190    4.2029 C   0  0  0  0  0  0  0  0  0  0  0  0
    4.4164   -2.6297    5.5424 C   0  0  1  0  0  0  0  0  0  0  0  0
    5.3781   -2.8389    6.5603 O   0  0  0  0  0  0  0  0  0  0  0  0
    3.9478   -1.1453    5.4660 C   0  0  1  0  0  0  0  0  0  0  0  0
    5.0422   -0.0786    5.2691 C   0  0  0  0  0  0  0  0  0  0  0  0
    6.1907   -0.1664    5.7121 O   0  0  0  0  0  0  0  0  0  0  0  0
    4.5350    0.9274    4.5312 O   0  0  0  0  0  0  0  0  0  0  0  0
    3.1529    0.7055    4.3726 C   0  0  1  0  0  0  0  0  0  0  0  0
    2.2097    1.3144    3.3505 C   0  0  0  0  0  0  0  0  0  0  0  0
    0.9591    0.3832    3.5033 C   0  0  2  0  0  0  0  0  0  0  0  0
   -0.2844    0.9783    4.1987 C   0  0  2  0  0  0  0  0  0  0  0  0
   -1.3841    0.1228    3.9112 O   0  0  0  0  0  0  0  0  0  0  0  0
   -0.7220    2.4289    3.8745 C   0  0  1  0  0  0  0  0  0  0  0  0
   -1.0672    2.5237    2.5058 O   0  0  0  0  0  0  0  0  0  0  0  0
   -1.9283    2.8516    4.7472 C   0  0  0  0  0  0  0  0  0  0  0  0
   -1.7001    2.5903    6.2569 C   0  0  1  0  0  0  0  0  0  0  0  0
   -2.9087    2.7764    6.9637 O   0  0  0  0  0  0  0  0  0  0  0  0
   -1.1770    1.1711    6.5688 C   0  0  0  0  0  0  0  0  0  0  0  0
    0.0466    0.8652    5.6833 C   0  0  1  0  0  0  0  0  0  0  0  0
    0.8233   -0.4525    5.8680 C   0  0  1  0  0  0  0  0  0  0  0  0
   -0.0088   -1.4598    6.4243 O   0  0  0  0  0  0  0  0  0  0  0  0
    1.4132   -0.8057    4.4413 C   0  0  1  0  0  0  0  0  0  0  0  0
    0.8250   -2.0285    4.0242 O   0  0  0  0  0  0  0  0  0  0  0  0
    2.9782   -0.8041    4.2845 C   0  0  2  0  0  0  0  0  0  0  0  0
    3.5130   -1.4995    2.9340 C   0  0  1  0  0  0  0  0  0  0  0  0
    4.7443   -0.9299    2.4892 O   0  0  0  0  0  0  0  0  0  0  0  0
    2.7296   -1.5440    1.5822 C   0  0  0  0  0  0  0  0  0  0  0  0
    3.4911   -2.3213   -1.1497 H   0  0  0  0  0  0  0  0  0  0  0  0
    1.9474   -3.0732   -0.7408 H   0  0  0  0  0  0  0  0  0  0  0  0
    3.4102   -4.0655   -0.8250 H   0  0  0  0  0  0  0  0  0  0  0  0
    4.3140   -4.5606    1.6119 H   0  0  0  0  0  0  0  0  0  0  0  0
    2.8863   -3.4698    3.6096 H   0  0  0  0  0  0  0  0  0  0  0  0
    5.1241   -4.2823    4.3214 H   0  0  0  0  0  0  0  0  0  0  0  0
    5.8227   -2.7379    3.8766 H   0  0  0  0  0  0  0  0  0  0  0  0
    3.5470   -3.2121    5.8530 H   0  0  0  0  0  0  0  0  0  0  0  0
    6.1346   -2.2970    6.3795 H   0  0  0  0  0  0  0  0  0  0  0  0
    3.5044   -0.9053    6.4292 H   0  0  0  0  0  0  0  0  0  0  0  0
    2.7707    1.0527    5.3329 H   0  0  0  0  0  0  0  0  0  0  0  0
    2.0304    2.3689    3.5582 H   0  0  0  0  0  0  0  0  0  0  0  0
    2.6276    1.2496    2.3450 H   0  0  0  0  0  0  0  0  0  0  0  0
    0.6766    0.0537    2.5038 H   0  0  0  0  0  0  0  0  0  0  0  0
   -1.8976    0.5525    3.2352 H   0  0  0  0  0  0  0  0  0  0  0  0
    0.0867    3.1276    4.0806 H   0  0  0  0  0  0  0  0  0  0  0  0
   -0.5500    3.1945    2.0581 H   0  0  0  0  0  0  0  0  0  0  0  0
   -2.1329    3.9104    4.5931 H   0  0  0  0  0  0  0  0  0  0  0  0
   -2.8228    2.3265    4.4140 H   0  0  0  0  0  0  0  0  0  0  0  0
   -0.9689    3.3092    6.6294 H   0  0  0  0  0  0  0  0  0  0  0  0
   -3.1235    3.6966    6.9658 H   0  0  0  0  0  0  0  0  0  0  0  0
   -0.8938    1.1006    7.6202 H   0  0  0  0  0  0  0  0  0  0  0  0
   -1.9670    0.4353    6.4060 H   0  0  0  0  0  0  0  0  0  0  0  0
    0.7655    1.6575    5.8970 H   0  0  0  0  0  0  0  0  0  0  0  0
    1.5927   -0.2678    6.6117 H   0  0  0  0  0  0  0  0  0  0  0  0
   -0.5077   -1.8271    5.7109 H   0  0  0  0  0  0  0  0  0  0  0  0
   -0.0656   -1.8400    3.7639 H   0  0  0  0  0  0  0  0  0  0  0  0
    4.5754   -0.0364    2.2312 H   0  0  0  0  0  0  0  0  0  0  0  0
    2.8871   -0.6710    0.9453 H   0  0  0  0  0  0  0  0  0  0  0  0
    1.6589   -1.6960    1.6916 H   0  0  0  0  0  0  0  0  0  0  0  0
  1  2  1  0
  1 32  1  0
  1 33  1  0
  1 34  1  0
  2 31  1  0
  2  3  2  0
  3  4  1  0
  3 35  1  0
  4 29  1  0
  4  5  1  0
  4 36  1  1
  5  6  1  0
  5 37  1  0
  5 38  1  0
  6  7  1  0
  6  8  1  0
  6 39  1  1
  7 40  1  0
  8 28  1  0
  8  9  1  0
  8 41  1  1
  9 10  2  0
  9 11  1  0
 11 12  1  0
 12 28  1  0
 12 13  1  0
 12 42  1  1
 13 14  1  0
 13 43  1  0
 13 44  1  0
 14 26  1  0
 14 15  1  0
 14 45  1  6
 15 23  1  0
 15 16  1  1
 15 17  1  0
 16 46  1  0
 17 18  1  0
 17 19  1  0
 17 47  1  6
 18 48  1  0
 19 20  1  0
 19 49  1  0
 19 50  1  0
 20 21  1  0
 20 22  1  0
 20 51  1  1
 21 52  1  0
 22 23  1  0
 22 53  1  0
 22 54  1  0
 23 24  1  0
 23 55  1  1
 24 25  1  0
 24 26  1  0
 24 56  1  1
 25 57  1  0
 26 27  1  6
 26 28  1  0
 27 58  1  0
 28 29  1  6
 29 30  1  6
 29 31  1  0
 30 59  1  0
 31 60  1  0
 31 61  1  0
M  END
>  <i_m_ct_stereo_status>  (106) 
1

>  <s_m_source_file>  (106) 
/var/tmp/pbs.5076255.sched01/tmp7dv9smms/08akalw19.sdf

>  <i_m_source_file_index>  (106) 
40

>  <i_lp_mmshare_version>  (106) 
48012

>  <i_f3d_flags>  (106) 
0

>  <s_epik_input>  (106) 
W0NIM11DKD1bQ0hdMSlbQ0gyXVtDQF0yKFtPSF0pW0NAQEhdMVtDSDJdW0NAQEhdKFtPSF0pW0NASF0oW0NAXTIzNClDKD1PKU9bQ0BIXTNbQ0gyXVtDQEBIXTVbQ0BAXTYoW09IXSlbQ0BIXShbQ0BASF0oW09IXSlbQ0BdNDVbT0hdKVtDSDJdW0NASF0oW09IXSlbQ0gyXVtDQEBIXTZbT0hd

>  <s_epik_cmdline>  (106) 
J2VwaWtfcHl0aG9uJywgJy1waHQnLCAnMi4wJywgJy1waCcsICc3LjAnLCAnLXRuJywgJzgnLCAnLW1hJywgJzIwMCcsICctaW1hZScsICc8aW5maWxlLm1hZT4nLCAnLW9tYWUnLCAnPG91dGZpbGUubWFlPic=

>  <r_lp_tautomer_probability>  (106) 
1

>  <r_epik_Ionization_Penalty>  (106) 
9.03983e-07

>  <r_epik_Ionization_Penalty_Charging>  (106) 
0

>  <r_epik_Ionization_Penalty_Neutral>  (106) 
9.03983e-07

>  <r_epik_State_Penalty>  (106) 
-0

>  <r_epik_Charging_Adjusted_Penalty>  (106) 
0

>  <i_epik_Tot_Q>  (106) 
0

>  <i_epik_Tot_abs_Q>  (106) 
0

>  <s_epik_Chemistry_Notes>  (106) 
This compound has an ester and may undergo hydrolysis at high or low pH.

>  <s_lp_Force_Field>  (106) 
OPLS3e

>  <r_lp_Energy>  (106) 
49.8721

>  <b_lp_Chiralities_Consistent>  (106) 
1

>  <s_lp_Variant>  (106) 
25:0-1

>  <s_i_glide_gridfile>  (106) 
pfpi4k_grid

>  <i_i_glide_lignum>  (106) 
40

>  <i_i_glide_rotatable_bonds>  (106) 
7

>  <r_i_docking_score>  (106) 
-3.86674

>  <r_i_glide_ligand_efficiency>  (106) 
-0.124733

>  <r_i_glide_ligand_efficiency_sa>  (106) 
-0.391835

>  <r_i_glide_ligand_efficiency_ln>  (106) 
-0.872068

>  <r_i_glide_gscore>  (106) 
-3.86674

>  <r_i_glide_lipo>  (106) 
-0.0948459

>  <r_i_glide_hbond>  (106) 
0

>  <r_i_glide_metal>  (106) 
-0

>  <r_i_glide_rewards>  (106) 
-1.47649

>  <r_i_glide_evdw>  (106) 
-26.6488

>  <r_i_glide_ecoul>  (106) 
-6.41975

>  <r_i_glide_erotb>  (106) 
0

>  <r_i_glide_esite>  (106) 
0

>  <r_i_glide_emodel>  (106) 
-51.3519

>  <r_i_glide_energy>  (106) 
-33.0686

>  <r_i_glide_einternal>  (106) 
3.16373

>  <r_i_glide_intrahb_reward>  (106) 
-1

>  <i_i_glide_confnum>  (106) 
2

>  <i_i_glide_posenum>  (106) 
9

>  <r_i_glide_eff_state_penalty>  (106) 
0

>  <ligand_id>  (106) 
25

>  <original_smiles>  (106) 
CC1=CC2CC(O)C3C(=O)OC4CC5C6(O)C(O)CC(O)CC6C(O)C5(O)C43C2(O)C1

>  <smiles>  (106) 
[H]OC1([H])C([H])([H])C([H])(O[H])C2(O[H])C([H])(C1([H])[H])C([H])(O[H])C1(O[H])C2([H])C([H])([H])C2([H])OC(=O)C3([H])C([H])(O[H])C([H])([H])C4([H])C([H])=C(C([H])([H])[H])C([H])([H])C4(O[H])C231

$$$$
25:0:1
     RDKit          3D

 61 66  0  0  1  0  0  0  0  0999 V2000
    2.9206   -3.2411   -0.3818 C   0  0  0  0  0  0  0  0  0  0  0  0
    3.1933   -2.9040    1.0678 C   0  0  0  0  0  0  0  0  0  0  0  0
    3.8159   -3.6663    1.9738 C   0  0  0  0  0  0  0  0  0  0  0  0
    3.7439   -3.0169    3.3326 C   0  0  1  0  0  0  0  0  0  0  0  0
    4.8846   -3.2127    4.3349 C   0  0  0  0  0  0  0  0  0  0  0  0
    4.4129   -2.5658    5.6578 C   0  0  1  0  0  0  0  0  0  0  0  0
    5.3808   -2.7505    6.6753 O   0  0  0  0  0  0  0  0  0  0  0  0
    3.9495   -1.0844    5.5379 C   0  0  1  0  0  0  0  0  0  0  0  0
    5.0515   -0.0373    5.2950 C   0  0  0  0  0  0  0  0  0  0  0  0
    6.2077   -0.1300    5.7072 O   0  0  0  0  0  0  0  0  0  0  0  0
    4.5473    0.9443    4.5240 O   0  0  0  0  0  0  0  0  0  0  0  0
    3.1624    0.7338    4.3820 C   0  0  1  0  0  0  0  0  0  0  0  0
    2.2104    1.3134    3.3501 C   0  0  0  0  0  0  0  0  0  0  0  0
    0.9517    0.4026    3.5521 C   0  0  2  0  0  0  0  0  0  0  0  0
   -0.2796    1.0318    4.2414 C   0  0  2  0  0  0  0  0  0  0  0  0
   -1.3852    0.1786    3.9905 O   0  0  0  0  0  0  0  0  0  0  0  0
   -0.7071    2.4771    3.8697 C   0  0  1  0  0  0  0  0  0  0  0  0
   -1.0734    2.5297    2.5017 O   0  0  0  0  0  0  0  0  0  0  0  0
   -1.8980    2.9385    4.7474 C   0  0  0  0  0  0  0  0  0  0  0  0
   -1.6562    2.7279    6.2617 C   0  0  1  0  0  0  0  0  0  0  0  0
   -2.8528    2.9812    6.9688 O   0  0  0  0  0  0  0  0  0  0  0  0
   -1.1375    1.3158    6.6192 C   0  0  0  0  0  0  0  0  0  0  0  0
    0.0689    0.9689    5.7249 C   0  0  1  0  0  0  0  0  0  0  0  0
    0.8358   -0.3472    5.9413 C   0  0  1  0  0  0  0  0  0  0  0  0
    0.0245   -1.3445    6.5431 O   0  0  0  0  0  0  0  0  0  0  0  0
    1.4137   -0.7542    4.5240 C   0  0  1  0  0  0  0  0  0  0  0  0
    0.8235   -1.9890    4.1548 O   0  0  0  0  0  0  0  0  0  0  0  0
    2.9764   -0.7751    4.3513 C   0  0  2  0  0  0  0  0  0  0  0  0
    3.4897   -1.5241    3.0176 C   0  0  1  0  0  0  0  0  0  0  0  0
    4.7138   -0.9771    2.5224 O   0  0  0  0  0  0  0  0  0  0  0  0
    2.6851   -1.6125    1.6820 C   0  0  0  0  0  0  0  0  0  0  0  0
    3.3874   -2.4996   -1.0274 H   0  0  0  0  0  0  0  0  0  0  0  0
    1.8471   -3.2216   -0.5686 H   0  0  0  0  0  0  0  0  0  0  0  0
    3.2985   -4.2297   -0.6398 H   0  0  0  0  0  0  0  0  0  0  0  0
    4.2323   -4.6466    1.8001 H   0  0  0  0  0  0  0  0  0  0  0  0
    2.8540   -3.4663    3.7798 H   0  0  0  0  0  0  0  0  0  0  0  0
    5.0852   -4.2776    4.4940 H   0  0  0  0  0  0  0  0  0  0  0  0
    5.8174   -2.7702    3.9850 H   0  0  0  0  0  0  0  0  0  0  0  0
    3.5411   -3.1322    5.9945 H   0  0  0  0  0  0  0  0  0  0  0  0
    6.1453   -2.2319    6.4692 H   0  0  0  0  0  0  0  0  0  0  0  0
    3.5207   -0.8059    6.4964 H   0  0  0  0  0  0  0  0  0  0  0  0
    2.7899    1.1187    5.3317 H   0  0  0  0  0  0  0  0  0  0  0  0
    2.0436    2.3768    3.5192 H   0  0  0  0  0  0  0  0  0  0  0  0
    2.6156    1.2044    2.3427 H   0  0  0  0  0  0  0  0  0  0  0  0
    0.6544    0.0376    2.5692 H   0  0  0  0  0  0  0  0  0  0  0  0
   -1.8745    0.5575    3.2656 H   0  0  0  0  0  0  0  0  0  0  0  0
    0.1127    3.1727    4.0455 H   0  0  0  0  0  0  0  0  0  0  0  0
   -0.5749    3.1999    2.0260 H   0  0  0  0  0  0  0  0  0  0  0  0
   -2.0928    3.9944    4.5635 H   0  0  0  0  0  0  0  0  0  0  0  0
   -2.8024    2.4138    4.4402 H   0  0  0  0  0  0  0  0  0  0  0  0
   -0.9143    3.4514    6.5969 H   0  0  0  0  0  0  0  0  0  0  0  0
   -3.5336    2.4248    6.6238 H   0  0  0  0  0  0  0  0  0  0  0  0
   -0.8369    1.2849    7.6683 H   0  0  0  0  0  0  0  0  0  0  0  0
   -1.9293    0.5732    6.4945 H   0  0  0  0  0  0  0  0  0  0  0  0
    0.7986    1.7584    5.8998 H   0  0  0  0  0  0  0  0  0  0  0  0
    1.6152   -0.1473    6.6682 H   0  0  0  0  0  0  0  0  0  0  0  0
    0.5657   -2.1150    6.6395 H   0  0  0  0  0  0  0  0  0  0  0  0
   -0.0988   -1.8175    4.0295 H   0  0  0  0  0  0  0  0  0  0  0  0
    5.3541   -0.9841    3.2147 H   0  0  0  0  0  0  0  0  0  0  0  0
    2.8490   -0.7644    1.0160 H   0  0  0  0  0  0  0  0  0  0  0  0
    1.6150   -1.7447    1.8088 H   0  0  0  0  0  0  0  0  0  0  0  0
  1  2  1  0
  1 32  1  0
  1 33  1  0
  1 34  1  0
  2 31  1  0
  2  3  2  0
  3  4  1  0
  3 35  1  0
  4 29  1  0
  4  5  1  0
  4 36  1  1
  5  6  1  0
  5 37  1  0
  5 38  1  0
  6  7  1  0
  6  8  1  0
  6 39  1  1
  7 40  1  0
  8 28  1  0
  8  9  1  0
  8 41  1  1
  9 10  2  0
  9 11  1  0
 11 12  1  0
 12 28  1  0
 12 13  1  0
 12 42  1  1
 13 14  1  0
 13 43  1  0
 13 44  1  0
 14 26  1  0
 14 15  1  0
 14 45  1  6
 15 23  1  0
 15 16  1  1
 15 17  1  0
 16 46  1  0
 17 18  1  0
 17 19  1  0
 17 47  1  6
 18 48  1  0
 19 20  1  0
 19 49  1  0
 19 50  1  0
 20 21  1  0
 20 22  1  0
 20 51  1  1
 21 52  1  0
 22 23  1  0
 22 53  1  0
 22 54  1  0
 23 24  1  0
 23 55  1  6
 24 25  1  0
 24 26  1  0
 24 56  1  1
 25 57  1  0
 26 27  1  6
 26 28  1  0
 27 58  1  0
 28 29  1  6
 29 30  1  6
 29 31  1  0
 30 59  1  0
 31 60  1  0
 31 61  1  0
M  END
>  <i_m_ct_stereo_status>  (107) 
1

>  <s_m_source_file>  (107) 
/var/tmp/pbs.5076255.sched01/tmp7dv9smms/08akalw19.sdf

>  <i_m_source_file_index>  (107) 
40

>  <i_lp_mmshare_version>  (107) 
48012

>  <i_f3d_flags>  (107) 
0

>  <s_epik_input>  (107) 
W0NIM11DKD1bQ0hdMSlbQ0gyXVtDQF0yKFtPSF0pW0NAQEhdMVtDSDJdW0NAQEhdKFtPSF0pW0NASF0oW0NAXTIzNClDKD1PKU9bQ0BIXTNbQ0gyXVtDQEBIXTVbQ0BAXTYoW09IXSlbQ0BIXShbQ0BASF0oW09IXSlbQ0BdNDVbT0hdKVtDSDJdW0NASF0oW09IXSlbQ0gyXVtDQEBIXTZbT0hd

>  <s_epik_cmdline>  (107) 
J2VwaWtfcHl0aG9uJywgJy1waHQnLCAnMi4wJywgJy1waCcsICc3LjAnLCAnLXRuJywgJzgnLCAnLW1hJywgJzIwMCcsICctaW1hZScsICc8aW5maWxlLm1hZT4nLCAnLW9tYWUnLCAnPG91dGZpbGUubWFlPic=

>  <r_lp_tautomer_probability>  (107) 
1

>  <r_epik_Ionization_Penalty>  (107) 
9.03983e-07

>  <r_epik_Ionization_Penalty_Charging>  (107) 
0

>  <r_epik_Ionization_Penalty_Neutral>  (107) 
9.03983e-07

>  <r_epik_State_Penalty>  (107) 
-0

>  <r_epik_Charging_Adjusted_Penalty>  (107) 
0

>  <i_epik_Tot_Q>  (107) 
0

>  <i_epik_Tot_abs_Q>  (107) 
0

>  <s_epik_Chemistry_Notes>  (107) 
This compound has an ester and may undergo hydrolysis at high or low pH.

>  <s_lp_Force_Field>  (107) 
OPLS3e

>  <r_lp_Energy>  (107) 
49.8721

>  <b_lp_Chiralities_Consistent>  (107) 
1

>  <s_lp_Variant>  (107) 
25:0-1

>  <s_i_glide_gridfile>  (107) 
pfpi4k_grid

>  <i_i_glide_lignum>  (107) 
40

>  <i_i_glide_rotatable_bonds>  (107) 
7

>  <r_i_docking_score>  (107) 
-3.7242

>  <r_i_glide_ligand_efficiency>  (107) 
-0.120136

>  <r_i_glide_ligand_efficiency_sa>  (107) 
-0.377392

>  <r_i_glide_ligand_efficiency_ln>  (107) 
-0.839922

>  <r_i_glide_gscore>  (107) 
-3.7242

>  <r_i_glide_lipo>  (107) 
-0.0937329

>  <r_i_glide_hbond>  (107) 
0

>  <r_i_glide_metal>  (107) 
-0

>  <r_i_glide_rewards>  (107) 
-1.47611

>  <r_i_glide_evdw>  (107) 
-26.5552

>  <r_i_glide_ecoul>  (107) 
-5.51067

>  <r_i_glide_erotb>  (107) 
0

>  <r_i_glide_esite>  (107) 
0

>  <r_i_glide_emodel>  (107) 
-50.3797

>  <r_i_glide_energy>  (107) 
-32.0659

>  <r_i_glide_einternal>  (107) 
2.72479

>  <r_i_glide_intrahb_reward>  (107) 
-1

>  <i_i_glide_confnum>  (107) 
1

>  <i_i_glide_posenum>  (107) 
26

>  <r_i_glide_eff_state_penalty>  (107) 
0

>  <ligand_id>  (107) 
25

>  <original_smiles>  (107) 
CC1=CC2CC(O)C3C(=O)OC4CC5C6(O)C(O)CC(O)CC6C(O)C5(O)C43C2(O)C1

>  <smiles>  (107) 
[H]OC1([H])C([H])([H])C([H])(O[H])C2(O[H])C([H])(C1([H])[H])C([H])(O[H])C1(O[H])C2([H])C([H])([H])C2([H])OC(=O)C3([H])C([H])(O[H])C([H])([H])C4([H])C([H])=C(C([H])([H])[H])C([H])([H])C4(O[H])C231

$$$$
25:0:2
     RDKit          3D

 61 66  0  0  1  0  0  0  0  0999 V2000
    2.6358   -5.0235    1.1744 C   0  0  0  0  0  0  0  0  0  0  0  0
    2.9985   -4.1769    2.3754 C   0  0  0  0  0  0  0  0  0  0  0  0
    3.7159   -4.5472    3.4377 C   0  0  0  0  0  0  0  0  0  0  0  0
    3.7117   -3.4542    4.4748 C   0  0  1  0  0  0  0  0  0  0  0  0
    4.9284   -3.2555    5.3861 C   0  0  0  0  0  0  0  0  0  0  0  0
    4.5164   -2.1853    6.4211 C   0  0  1  0  0  0  0  0  0  0  0  0
    5.5549   -1.9685    7.3572 O   0  0  0  0  0  0  0  0  0  0  0  0
    3.9807   -0.8540    5.8107 C   0  0  1  0  0  0  0  0  0  0  0  0
    5.0128    0.0546    5.1187 C   0  0  0  0  0  0  0  0  0  0  0  0
    6.1967    0.1442    5.4503 O   0  0  0  0  0  0  0  0  0  0  0  0
    4.4070    0.6921    4.1016 O   0  0  0  0  0  0  0  0  0  0  0  0
    3.0275    0.4118    4.1548 C   0  0  1  0  0  0  0  0  0  0  0  0
    1.9774    0.5615    3.0677 C   0  0  0  0  0  0  0  0  0  0  0  0
    0.7819   -0.2410    3.6869 C   0  0  2  0  0  0  0  0  0  0  0  0
   -0.4323    0.5654    4.1996 C   0  0  2  0  0  0  0  0  0  0  0  0
   -1.5119   -0.3514    4.3690 O   0  0  0  0  0  0  0  0  0  0  0  0
   -0.9438    1.7703    3.3703 C   0  0  1  0  0  0  0  0  0  0  0  0
   -1.3845    1.3337    2.1016 O   0  0  0  0  0  0  0  0  0  0  0  0
   -2.0816    2.5166    4.1084 C   0  0  0  0  0  0  0  0  0  0  0  0
   -1.7272    2.8704    5.5761 C   0  0  1  0  0  0  0  0  0  0  0  0
   -2.8835    3.3413    6.2373 O   0  0  0  0  0  0  0  0  0  0  0  0
   -1.1298    1.6890    6.3776 C   0  0  0  0  0  0  0  0  0  0  0  0
    0.0219    1.0573    5.5706 C   0  0  1  0  0  0  0  0  0  0  0  0
    0.8655   -0.0779    6.1819 C   0  0  1  0  0  0  0  0  0  0  0  0
    0.1386   -0.8060    7.1603 O   0  0  0  0  0  0  0  0  0  0  0  0
    1.3648   -0.9591    4.9649 C   0  0  1  0  0  0  0  0  0  0  0  0
    0.8046   -2.2522    5.1084 O   0  0  0  0  0  0  0  0  0  0  0  0
    2.9096   -1.0089    4.6818 C   0  0  2  0  0  0  0  0  0  0  0  0
    3.3598   -2.1791    3.6736 C   0  0  1  0  0  0  0  0  0  0  0  0
    4.5281   -1.8312    2.9372 O   0  0  0  0  0  0  0  0  0  0  0  0
    2.4741   -2.7591    2.5231 C   0  0  0  0  0  0  0  0  0  0  0  0
    3.0199   -4.5631    0.2646 H   0  0  0  0  0  0  0  0  0  0  0  0
    1.5535   -5.1077    1.0928 H   0  0  0  0  0  0  0  0  0  0  0  0
    3.0467   -6.0299    1.2611 H   0  0  0  0  0  0  0  0  0  0  0  0
    4.1571   -5.5195    3.6008 H   0  0  0  0  0  0  0  0  0  0  0  0
    2.8783   -3.7261    5.1241 H   0  0  0  0  0  0  0  0  0  0  0  0
    5.1843   -4.1856    5.9007 H   0  0  0  0  0  0  0  0  0  0  0  0
    5.8178   -2.9508    4.8331 H   0  0  0  0  0  0  0  0  0  0  0  0
    3.6958   -2.6039    7.0069 H   0  0  0  0  0  0  0  0  0  0  0  0
    6.2739   -1.5378    6.9139 H   0  0  0  0  0  0  0  0  0  0  0  0
    3.6082   -0.2538    6.6358 H   0  0  0  0  0  0  0  0  0  0  0  0
    2.7035    1.1029    4.9316 H   0  0  0  0  0  0  0  0  0  0  0  0
    1.7710    1.6099    2.8563 H   0  0  0  0  0  0  0  0  0  0  0  0
    2.3096    0.1016    2.1374 H   0  0  0  0  0  0  0  0  0  0  0  0
    0.4312   -0.9411    2.9281 H   0  0  0  0  0  0  0  0  0  0  0  0
   -2.3025    0.0849    4.0802 H   0  0  0  0  0  0  0  0  0  0  0  0
   -0.1450    2.4908    3.2062 H   0  0  0  0  0  0  0  0  0  0  0  0
   -2.2546    0.9678    2.1712 H   0  0  0  0  0  0  0  0  0  0  0  0
   -2.3300    3.4336    3.5696 H   0  0  0  0  0  0  0  0  0  0  0  0
   -2.9800    1.9032    4.0815 H   0  0  0  0  0  0  0  0  0  0  0  0
   -0.9980    3.6798    5.5724 H   0  0  0  0  0  0  0  0  0  0  0  0
   -3.5266    2.6496    6.2605 H   0  0  0  0  0  0  0  0  0  0  0  0
   -0.7529    2.0424    7.3395 H   0  0  0  0  0  0  0  0  0  0  0  0
   -1.8942    0.9424    6.6001 H   0  0  0  0  0  0  0  0  0  0  0  0
    0.7257    1.8697    5.3857 H   0  0  0  0  0  0  0  0  0  0  0  0
    1.6821    0.3888    6.7247 H   0  0  0  0  0  0  0  0  0  0  0  0
    0.7546   -1.4038    7.5621 H   0  0  0  0  0  0  0  0  0  0  0  0
   -0.1355   -2.1419    5.0574 H   0  0  0  0  0  0  0  0  0  0  0  0
    4.7411   -2.5595    2.3767 H   0  0  0  0  0  0  0  0  0  0  0  0
    2.5447   -2.2046    1.5876 H   0  0  0  0  0  0  0  0  0  0  0  0
    1.4245   -2.8587    2.7821 H   0  0  0  0  0  0  0  0  0  0  0  0
  1  2  1  0
  1 32  1  0
  1 33  1  0
  1 34  1  0
  2 31  1  0
  2  3  2  0
  3  4  1  0
  3 35  1  0
  4 29  1  0
  4  5  1  0
  4 36  1  1
  5  6  1  0
  5 37  1  0
  5 38  1  0
  6  7  1  0
  6  8  1  0
  6 39  1  1
  7 40  1  0
  8 28  1  0
  8  9  1  0
  8 41  1  1
  9 10  2  0
  9 11  1  0
 11 12  1  0
 12 28  1  0
 12 13  1  0
 12 42  1  1
 13 14  1  0
 13 43  1  0
 13 44  1  0
 14 26  1  0
 14 15  1  0
 14 45  1  6
 15 23  1  0
 15 16  1  1
 15 17  1  0
 16 46  1  0
 17 18  1  0
 17 19  1  0
 17 47  1  6
 18 48  1  0
 19 20  1  0
 19 49  1  0
 19 50  1  0
 20 21  1  0
 20 22  1  0
 20 51  1  6
 21 52  1  0
 22 23  1  0
 22 53  1  0
 22 54  1  0
 23 24  1  0
 23 55  1  6
 24 25  1  0
 24 26  1  0
 24 56  1  1
 25 57  1  0
 26 27  1  1
 26 28  1  0
 27 58  1  0
 28 29  1  6
 29 30  1  6
 29 31  1  0
 30 59  1  0
 31 60  1  0
 31 61  1  0
M  END
>  <i_m_ct_stereo_status>  (108) 
1

>  <s_m_source_file>  (108) 
/var/tmp/pbs.5076255.sched01/tmp7dv9smms/08akalw19.sdf

>  <i_m_source_file_index>  (108) 
40

>  <i_lp_mmshare_version>  (108) 
48012

>  <i_f3d_flags>  (108) 
0

>  <s_epik_input>  (108) 
W0NIM11DKD1bQ0hdMSlbQ0gyXVtDQF0yKFtPSF0pW0NAQEhdMVtDSDJdW0NAQEhdKFtPSF0pW0NASF0oW0NAXTIzNClDKD1PKU9bQ0BIXTNbQ0gyXVtDQEBIXTVbQ0BAXTYoW09IXSlbQ0BIXShbQ0BASF0oW09IXSlbQ0BdNDVbT0hdKVtDSDJdW0NASF0oW09IXSlbQ0gyXVtDQEBIXTZbT0hd

>  <s_epik_cmdline>  (108) 
J2VwaWtfcHl0aG9uJywgJy1waHQnLCAnMi4wJywgJy1waCcsICc3LjAnLCAnLXRuJywgJzgnLCAnLW1hJywgJzIwMCcsICctaW1hZScsICc8aW5maWxlLm1hZT4nLCAnLW9tYWUnLCAnPG91dGZpbGUubWFlPic=

>  <r_lp_tautomer_probability>  (108) 
1

>  <r_epik_Ionization_Penalty>  (108) 
9.03983e-07

>  <r_epik_Ionization_Penalty_Charging>  (108) 
0

>  <r_epik_Ionization_Penalty_Neutral>  (108) 
9.03983e-07

>  <r_epik_State_Penalty>  (108) 
-0

>  <r_epik_Charging_Adjusted_Penalty>  (108) 
0

>  <i_epik_Tot_Q>  (108) 
0

>  <i_epik_Tot_abs_Q>  (108) 
0

>  <s_epik_Chemistry_Notes>  (108) 
This compound has an ester and may undergo hydrolysis at high or low pH.

>  <s_lp_Force_Field>  (108) 
OPLS3e

>  <r_lp_Energy>  (108) 
49.8721

>  <b_lp_Chiralities_Consistent>  (108) 
1

>  <s_lp_Variant>  (108) 
25:0-1

>  <s_i_glide_gridfile>  (108) 
pfpi4k_grid

>  <i_i_glide_lignum>  (108) 
40

>  <i_i_glide_rotatable_bonds>  (108) 
7

>  <r_i_docking_score>  (108) 
-3.66483

>  <r_i_glide_ligand_efficiency>  (108) 
-0.11822

>  <r_i_glide_ligand_efficiency_sa>  (108) 
-0.371375

>  <r_i_glide_ligand_efficiency_ln>  (108) 
-0.826532

>  <r_i_glide_gscore>  (108) 
-3.66483

>  <r_i_glide_lipo>  (108) 
-0.0419075

>  <r_i_glide_hbond>  (108) 
0

>  <r_i_glide_metal>  (108) 
-0

>  <r_i_glide_rewards>  (108) 
-1.48723

>  <r_i_glide_evdw>  (108) 
-25.5354

>  <r_i_glide_ecoul>  (108) 
-5.72617

>  <r_i_glide_erotb>  (108) 
0

>  <r_i_glide_esite>  (108) 
0

>  <r_i_glide_emodel>  (108) 
-50.0074

>  <r_i_glide_energy>  (108) 
-31.2616

>  <r_i_glide_einternal>  (108) 
1.88606

>  <r_i_glide_intrahb_reward>  (108) 
-1

>  <i_i_glide_confnum>  (108) 
1

>  <i_i_glide_posenum>  (108) 
36

>  <r_i_glide_eff_state_penalty>  (108) 
0

>  <ligand_id>  (108) 
25

>  <original_smiles>  (108) 
CC1=CC2CC(O)C3C(=O)OC4CC5C6(O)C(O)CC(O)CC6C(O)C5(O)C43C2(O)C1

>  <smiles>  (108) 
[H]OC1([H])C([H])([H])C([H])(O[H])C2(O[H])C([H])(C1([H])[H])C([H])(O[H])C1(O[H])C2([H])C([H])([H])C2([H])OC(=O)C3([H])C([H])(O[H])C([H])([H])C4([H])C([H])=C(C([H])([H])[H])C([H])([H])C4(O[H])C231

$$$$
26:0:0
     RDKit          3D

 34 36  0  0  1  0  0  0  0  0999 V2000
   -7.9627  -10.5118   -9.4106 C   0  0  0  0  0  0  0  0  0  0  0  0
   -8.2342   -9.0999   -9.0846 N   0  0  0  0  0  0  0  0  0  0  0  0
   -9.2228   -8.4463   -9.9733 C   0  0  0  0  0  0  0  0  0  0  0  0
   -7.7312   -8.4432   -7.9926 C   0  0  0  0  0  0  0  0  0  0  0  0
   -8.2455   -7.2165   -7.7384 N   0  0  0  0  0  0  0  0  0  0  0  0
   -7.7613   -6.3663   -6.6922 C   0  0  0  0  0  0  0  0  0  0  0  0
   -8.2502   -5.0555   -6.5882 C   0  0  0  0  0  0  0  0  0  0  0  0
   -7.8162   -4.2523   -5.5180 C   0  0  0  0  0  0  0  0  0  0  0  0
   -6.8933   -4.7545   -4.5768 C   0  0  0  0  0  0  0  0  0  0  0  0
   -6.4061   -6.0669   -4.6959 C   0  0  0  0  0  0  0  0  0  0  0  0
   -6.8390   -6.8779   -5.7675 C   0  0  0  0  0  0  0  0  0  0  0  0
   -6.4030   -8.3165   -5.8898 C   0  0  2  0  0  0  0  0  0  0  0  0
   -4.8949   -8.5631   -5.7771 C   0  0  0  0  0  0  0  0  0  0  0  0
   -4.7946  -10.0100   -6.2694 C   0  0  0  0  0  0  0  0  0  0  0  0
   -5.8654  -10.1044   -7.3664 C   0  0  0  0  0  0  0  0  0  0  0  0
   -6.7682   -8.9499   -7.1642 N   0  0  0  0  0  0  0  0  0  0  0  0
   -8.0227  -11.1371   -8.5198 H   0  0  0  0  0  0  0  0  0  0  0  0
   -6.9872  -10.6265   -9.8829 H   0  0  0  0  0  0  0  0  0  0  0  0
   -8.7139  -10.9034  -10.0968 H   0  0  0  0  0  0  0  0  0  0  0  0
   -8.9671   -7.4042  -10.1894 H   0  0  0  0  0  0  0  0  0  0  0  0
  -10.2105   -8.4769   -9.5097 H   0  0  0  0  0  0  0  0  0  0  0  0
   -9.2823   -8.9628  -10.9321 H   0  0  0  0  0  0  0  0  0  0  0  0
   -8.9660   -4.6698   -7.3041 H   0  0  0  0  0  0  0  0  0  0  0  0
   -8.2008   -3.2518   -5.4095 H   0  0  0  0  0  0  0  0  0  0  0  0
   -6.5828   -4.1305   -3.7516 H   0  0  0  0  0  0  0  0  0  0  0  0
   -5.7319   -6.4633   -3.9515 H   0  0  0  0  0  0  0  0  0  0  0  0
   -6.9173   -8.8834   -5.1179 H   0  0  0  0  0  0  0  0  0  0  0  0
   -4.3587   -7.8920   -6.4461 H   0  0  0  0  0  0  0  0  0  0  0  0
   -4.4973   -8.4422   -4.7670 H   0  0  0  0  0  0  0  0  0  0  0  0
   -3.7926  -10.2690   -6.6216 H   0  0  0  0  0  0  0  0  0  0  0  0
   -5.0432  -10.7060   -5.4643 H   0  0  0  0  0  0  0  0  0  0  0  0
   -5.3949  -10.0213   -8.3417 H   0  0  0  0  0  0  0  0  0  0  0  0
   -6.3587  -11.0707   -7.2880 H   0  0  0  0  0  0  0  0  0  0  0  0
   -8.9369   -6.8688   -8.3859 H   0  0  0  0  0  0  0  0  0  0  0  0
  1  2  1  0
  1 17  1  0
  1 18  1  0
  1 19  1  0
  2  3  1  0
  2  4  1  0
  3 20  1  0
  3 21  1  0
  3 22  1  0
  4 16  1  0
  4  5  2  0
  5  6  1  0
  5 34  1  0
  6 11  2  0
  6  7  1  0
  7  8  2  0
  7 23  1  0
  8  9  1  0
  8 24  1  0
  9 10  2  0
  9 25  1  0
 10 11  1  0
 10 26  1  0
 11 12  1  0
 12 16  1  0
 12 13  1  0
 12 27  1  1
 13 14  1  0
 13 28  1  0
 13 29  1  0
 14 15  1  0
 14 30  1  0
 14 31  1  0
 15 16  1  0
 15 32  1  0
 15 33  1  0
M  CHG  1   5   1
M  END
>  <i_m_ct_stereo_status>  (109) 
1

>  <s_m_source_file>  (109) 
/var/tmp/pbs.5076255.sched01/tmp7dv9smms/08akalw19.sdf

>  <i_m_source_file_index>  (109) 
41

>  <i_lp_mmshare_version>  (109) 
48012

>  <i_f3d_flags>  (109) 
0

>  <s_epik_input>  (109) 
W0NIM11OKFtDSDNdKUMoPU4xKU4oW0NIMl1bQ0gyXVtDSDJdMilbQ0BASF0yYyhjMTMpW2NIXVtjSF1bY0hdW2NIXTM=

>  <s_epik_cmdline>  (109) 
J2VwaWtfcHl0aG9uJywgJy1waHQnLCAnMi4wJywgJy1waCcsICc3LjAnLCAnLXRuJywgJzgnLCAnLW1hJywgJzIwMCcsICctaW1hZScsICc8aW5maWxlLm1hZT4nLCAnLW9tYWUnLCAnPG91dGZpbGUubWFlPic=

>  <r_lp_tautomer_probability>  (109) 
1

>  <r_epik_Ionization_Penalty>  (109) 
9.43371e-07

>  <r_epik_Ionization_Penalty_Charging>  (109) 
9.4337e-07

>  <r_epik_Ionization_Penalty_Neutral>  (109) 
1.42214e-13

>  <r_epik_State_Penalty>  (109) 
-0

>  <r_epik_Charging_Adjusted_Penalty>  (109) 
9.4337e-07

>  <i_epik_Tot_Q>  (109) 
1

>  <i_epik_Tot_abs_Q>  (109) 
1

>  <s_epik_Chemistry_Notes>  (109) 
This compound has an imine and may undergo hydrolysis.

>  <s_lp_Force_Field>  (109) 
OPLS3e

>  <r_lp_Energy>  (109) 
39.239

>  <b_lp_Chiralities_Consistent>  (109) 
1

>  <s_lp_Variant>  (109) 
26:0-1

>  <s_i_glide_gridfile>  (109) 
pfpi4k_grid

>  <i_i_glide_lignum>  (109) 
41

>  <i_i_glide_rotatable_bonds>  (109) 
1

>  <r_i_docking_score>  (109) 
-6.6672

>  <r_i_glide_ligand_efficiency>  (109) 
-0.4167

>  <r_i_glide_ligand_efficiency_sa>  (109) 
-1.05002

>  <r_i_glide_ligand_efficiency_ln>  (109) 
-1.76727

>  <r_i_glide_gscore>  (109) 
-6.6672

>  <r_i_glide_lipo>  (109) 
-2.9064

>  <r_i_glide_hbond>  (109) 
0

>  <r_i_glide_metal>  (109) 
-0

>  <r_i_glide_rewards>  (109) 
-2.7864

>  <r_i_glide_evdw>  (109) 
-20.0479

>  <r_i_glide_ecoul>  (109) 
0.186702

>  <r_i_glide_erotb>  (109) 
0

>  <r_i_glide_esite>  (109) 
0

>  <r_i_glide_emodel>  (109) 
-28.1305

>  <r_i_glide_energy>  (109) 
-19.8612

>  <r_i_glide_einternal>  (109) 
0.0263076

>  <r_i_glide_intrahb_reward>  (109) 
-0

>  <i_i_glide_confnum>  (109) 
2

>  <i_i_glide_posenum>  (109) 
16

>  <r_i_glide_eff_state_penalty>  (109) 
0

>  <ligand_id>  (109) 
26

>  <original_smiles>  (109) 
CN(C)C1=Nc2ccccc2C2CCCN12

>  <smiles>  (109) 
[H]c1c([H])c([H])c2c(c1[H])[N+]([H])=C(N(C([H])([H])[H])C([H])([H])[H])N1C([H])([H])C([H])([H])C([H])([H])C21[H]

$$$$
26:0:1
     RDKit          3D

 34 36  0  0  1  0  0  0  0  0999 V2000
   -6.1643  -10.3769   -8.0818 C   0  0  0  0  0  0  0  0  0  0  0  0
   -7.0387   -9.2207   -8.3529 N   0  0  0  0  0  0  0  0  0  0  0  0
   -7.8513   -9.3483   -9.5894 C   0  0  0  0  0  0  0  0  0  0  0  0
   -7.2050   -8.1508   -7.5152 C   0  0  0  0  0  0  0  0  0  0  0  0
   -8.1709   -7.2623   -7.8499 N   0  0  0  0  0  0  0  0  0  0  0  0
   -8.3956   -6.0455   -7.1384 C   0  0  0  0  0  0  0  0  0  0  0  0
   -9.3177   -5.1094   -7.6462 C   0  0  0  0  0  0  0  0  0  0  0  0
   -9.5953   -3.9521   -6.8987 C   0  0  0  0  0  0  0  0  0  0  0  0
   -8.9503   -3.7332   -5.6671 C   0  0  0  0  0  0  0  0  0  0  0  0
   -8.0246   -4.6712   -5.1728 C   0  0  0  0  0  0  0  0  0  0  0  0
   -7.7420   -5.8319   -5.9189 C   0  0  0  0  0  0  0  0  0  0  0  0
   -6.8171   -6.9051   -5.3894 C   0  0  2  0  0  0  0  0  0  0  0  0
   -5.4572   -6.4254   -4.8717 C   0  0  0  0  0  0  0  0  0  0  0  0
   -4.6929   -7.7466   -4.7748 C   0  0  0  0  0  0  0  0  0  0  0  0
   -5.2134   -8.5823   -5.9454 C   0  0  0  0  0  0  0  0  0  0  0  0
   -6.4731   -7.9398   -6.3775 N   0  0  0  0  0  0  0  0  0  0  0  0
   -6.2754  -10.7210   -7.0528 H   0  0  0  0  0  0  0  0  0  0  0  0
   -5.1200  -10.1374   -8.2817 H   0  0  0  0  0  0  0  0  0  0  0  0
   -6.4375  -11.2255   -8.7128 H   0  0  0  0  0  0  0  0  0  0  0  0
   -7.9423   -8.3987  -10.1338 H   0  0  0  0  0  0  0  0  0  0  0  0
   -8.8503   -9.7055   -9.3338 H   0  0  0  0  0  0  0  0  0  0  0  0
   -7.3968  -10.0641  -10.2755 H   0  0  0  0  0  0  0  0  0  0  0  0
   -9.8340   -5.2917   -8.5821 H   0  0  0  0  0  0  0  0  0  0  0  0
  -10.3170   -3.2253   -7.2424 H   0  0  0  0  0  0  0  0  0  0  0  0
   -9.1930   -2.8439   -5.1122 H   0  0  0  0  0  0  0  0  0  0  0  0
   -7.5580   -4.5120   -4.2119 H   0  0  0  0  0  0  0  0  0  0  0  0
   -7.3406   -7.4094   -4.5770 H   0  0  0  0  0  0  0  0  0  0  0  0
   -4.9750   -5.7691   -5.5912 H   0  0  0  0  0  0  0  0  0  0  0  0
   -5.5129   -5.8923   -3.9214 H   0  0  0  0  0  0  0  0  0  0  0  0
   -3.6076   -7.6181   -4.7939 H   0  0  0  0  0  0  0  0  0  0  0  0
   -4.9565   -8.2714   -3.8556 H   0  0  0  0  0  0  0  0  0  0  0  0
   -4.4969   -8.5565   -6.7606 H   0  0  0  0  0  0  0  0  0  0  0  0
   -5.3352   -9.6096   -5.6045 H   0  0  0  0  0  0  0  0  0  0  0  0
   -8.6737   -7.4404   -8.7071 H   0  0  0  0  0  0  0  0  0  0  0  0
  1  2  1  0
  1 17  1  0
  1 18  1  0
  1 19  1  0
  2  3  1  0
  2  4  1  0
  3 20  1  0
  3 21  1  0
  3 22  1  0
  4 16  1  0
  4  5  2  0
  5  6  1  0
  5 34  1  0
  6 11  2  0
  6  7  1  0
  7  8  2  0
  7 23  1  0
  8  9  1  0
  8 24  1  0
  9 10  2  0
  9 25  1  0
 10 11  1  0
 10 26  1  0
 11 12  1  0
 12 16  1  0
 12 13  1  0
 12 27  1  1
 13 14  1  0
 13 28  1  0
 13 29  1  0
 14 15  1  0
 14 30  1  0
 14 31  1  0
 15 16  1  0
 15 32  1  0
 15 33  1  0
M  CHG  1   5   1
M  END
>  <i_m_ct_stereo_status>  (110) 
1

>  <s_m_source_file>  (110) 
/var/tmp/pbs.5076255.sched01/tmp7dv9smms/08akalw19.sdf

>  <i_m_source_file_index>  (110) 
41

>  <i_lp_mmshare_version>  (110) 
48012

>  <i_f3d_flags>  (110) 
0

>  <s_epik_input>  (110) 
W0NIM11OKFtDSDNdKUMoPU4xKU4oW0NIMl1bQ0gyXVtDSDJdMilbQ0BASF0yYyhjMTMpW2NIXVtjSF1bY0hdW2NIXTM=

>  <s_epik_cmdline>  (110) 
J2VwaWtfcHl0aG9uJywgJy1waHQnLCAnMi4wJywgJy1waCcsICc3LjAnLCAnLXRuJywgJzgnLCAnLW1hJywgJzIwMCcsICctaW1hZScsICc8aW5maWxlLm1hZT4nLCAnLW9tYWUnLCAnPG91dGZpbGUubWFlPic=

>  <r_lp_tautomer_probability>  (110) 
1

>  <r_epik_Ionization_Penalty>  (110) 
9.43371e-07

>  <r_epik_Ionization_Penalty_Charging>  (110) 
9.4337e-07

>  <r_epik_Ionization_Penalty_Neutral>  (110) 
1.42214e-13

>  <r_epik_State_Penalty>  (110) 
-0

>  <r_epik_Charging_Adjusted_Penalty>  (110) 
9.4337e-07

>  <i_epik_Tot_Q>  (110) 
1

>  <i_epik_Tot_abs_Q>  (110) 
1

>  <s_epik_Chemistry_Notes>  (110) 
This compound has an imine and may undergo hydrolysis.

>  <s_lp_Force_Field>  (110) 
OPLS3e

>  <r_lp_Energy>  (110) 
39.239

>  <b_lp_Chiralities_Consistent>  (110) 
1

>  <s_lp_Variant>  (110) 
26:0-1

>  <s_i_glide_gridfile>  (110) 
pfpi4k_grid

>  <i_i_glide_lignum>  (110) 
41

>  <i_i_glide_rotatable_bonds>  (110) 
1

>  <r_i_docking_score>  (110) 
-6.57034

>  <r_i_glide_ligand_efficiency>  (110) 
-0.410646

>  <r_i_glide_ligand_efficiency_sa>  (110) 
-1.03476

>  <r_i_glide_ligand_efficiency_ln>  (110) 
-1.7416

>  <r_i_glide_gscore>  (110) 
-6.57034

>  <r_i_glide_lipo>  (110) 
-2.78474

>  <r_i_glide_hbond>  (110) 
0

>  <r_i_glide_metal>  (110) 
-0

>  <r_i_glide_rewards>  (110) 
-2.80165

>  <r_i_glide_evdw>  (110) 
-21.441

>  <r_i_glide_ecoul>  (110) 
0.587327

>  <r_i_glide_erotb>  (110) 
0

>  <r_i_glide_esite>  (110) 
0

>  <r_i_glide_emodel>  (110) 
-28.9644

>  <r_i_glide_energy>  (110) 
-20.8537

>  <r_i_glide_einternal>  (110) 
0.000371488

>  <r_i_glide_intrahb_reward>  (110) 
-0

>  <i_i_glide_confnum>  (110) 
2

>  <i_i_glide_posenum>  (110) 
1

>  <r_i_glide_eff_state_penalty>  (110) 
0

>  <ligand_id>  (110) 
26

>  <original_smiles>  (110) 
CN(C)C1=Nc2ccccc2C2CCCN12

>  <smiles>  (110) 
[H]c1c([H])c([H])c2c(c1[H])[N+]([H])=C(N(C([H])([H])[H])C([H])([H])[H])N1C([H])([H])C([H])([H])C([H])([H])C21[H]

$$$$
26:0:2
     RDKit          3D

 34 36  0  0  1  0  0  0  0  0999 V2000
   -7.1028  -11.6229   -8.7313 C   0  0  0  0  0  0  0  0  0  0  0  0
   -7.5294  -10.2147   -8.6251 N   0  0  0  0  0  0  0  0  0  0  0  0
   -8.5919   -9.8266   -9.5835 C   0  0  0  0  0  0  0  0  0  0  0  0
   -7.0922   -9.3364   -7.6687 C   0  0  0  0  0  0  0  0  0  0  0  0
   -7.7227   -8.1366   -7.6144 N   0  0  0  0  0  0  0  0  0  0  0  0
   -7.3219   -7.0837   -6.7323 C   0  0  0  0  0  0  0  0  0  0  0  0
   -7.9167   -5.8112   -6.8590 C   0  0  0  0  0  0  0  0  0  0  0  0
   -7.5594   -4.7940   -5.9543 C   0  0  0  0  0  0  0  0  0  0  0  0
   -6.6103   -5.0474   -4.9401 C   0  0  0  0  0  0  0  0  0  0  0  0
   -6.0204   -6.3232   -4.8297 C   0  0  0  0  0  0  0  0  0  0  0  0
   -6.3707   -7.3434   -5.7386 C   0  0  0  0  0  0  0  0  0  0  0  0
   -5.7915   -8.7382   -5.6332 C   0  0  2  0  0  0  0  0  0  0  0  0
   -4.2749   -8.8223   -5.4878 C   0  0  0  0  0  0  0  0  0  0  0  0
   -4.0484  -10.3210   -5.7186 C   0  0  0  0  0  0  0  0  0  0  0  0
   -5.0900  -10.6985   -6.7811 C   0  0  0  0  0  0  0  0  0  0  0  0
   -6.0862   -9.6044   -6.7794 N   0  0  0  0  0  0  0  0  0  0  0  0
   -7.0898  -12.1013   -7.7518 H   0  0  0  0  0  0  0  0  0  0  0  0
   -6.1210  -11.7026   -9.2000 H   0  0  0  0  0  0  0  0  0  0  0  0
   -7.8087  -12.1991   -9.3315 H   0  0  0  0  0  0  0  0  0  0  0  0
   -8.4534   -8.8110   -9.9711 H   0  0  0  0  0  0  0  0  0  0  0  0
   -9.5659   -9.8873   -9.0934 H   0  0  0  0  0  0  0  0  0  0  0  0
   -8.6013  -10.4970  -10.4454 H   0  0  0  0  0  0  0  0  0  0  0  0
   -8.6536   -5.6204   -7.6303 H   0  0  0  0  0  0  0  0  0  0  0  0
   -8.0205   -3.8190   -6.0306 H   0  0  0  0  0  0  0  0  0  0  0  0
   -6.3543   -4.2662   -4.2411 H   0  0  0  0  0  0  0  0  0  0  0  0
   -5.3196   -6.5199   -4.0361 H   0  0  0  0  0  0  0  0  0  0  0  0
   -6.2223   -9.2459   -4.7754 H   0  0  0  0  0  0  0  0  0  0  0  0
   -3.7956   -8.2219   -6.2557 H   0  0  0  0  0  0  0  0  0  0  0  0
   -3.9113   -8.4947   -4.5142 H   0  0  0  0  0  0  0  0  0  0  0  0
   -3.0243  -10.5559   -6.0124 H   0  0  0  0  0  0  0  0  0  0  0  0
   -4.2560  -10.8874   -4.8061 H   0  0  0  0  0  0  0  0  0  0  0  0
   -4.6182  -10.7546   -7.7592 H   0  0  0  0  0  0  0  0  0  0  0  0
   -5.5067  -11.6713   -6.5246 H   0  0  0  0  0  0  0  0  0  0  0  0
   -8.4287   -7.9619   -8.3133 H   0  0  0  0  0  0  0  0  0  0  0  0
  1  2  1  0
  1 17  1  0
  1 18  1  0
  1 19  1  0
  2  3  1  0
  2  4  1  0
  3 20  1  0
  3 21  1  0
  3 22  1  0
  4 16  1  0
  4  5  2  0
  5  6  1  0
  5 34  1  0
  6 11  2  0
  6  7  1  0
  7  8  2  0
  7 23  1  0
  8  9  1  0
  8 24  1  0
  9 10  2  0
  9 25  1  0
 10 11  1  0
 10 26  1  0
 11 12  1  0
 12 16  1  0
 12 13  1  0
 12 27  1  1
 13 14  1  0
 13 28  1  0
 13 29  1  0
 14 15  1  0
 14 30  1  0
 14 31  1  0
 15 16  1  0
 15 32  1  0
 15 33  1  0
M  CHG  1   5   1
M  END
>  <i_m_ct_stereo_status>  (111) 
1

>  <s_m_source_file>  (111) 
/var/tmp/pbs.5076255.sched01/tmp7dv9smms/08akalw19.sdf

>  <i_m_source_file_index>  (111) 
41

>  <i_lp_mmshare_version>  (111) 
48012

>  <i_f3d_flags>  (111) 
0

>  <s_epik_input>  (111) 
W0NIM11OKFtDSDNdKUMoPU4xKU4oW0NIMl1bQ0gyXVtDSDJdMilbQ0BASF0yYyhjMTMpW2NIXVtjSF1bY0hdW2NIXTM=

>  <s_epik_cmdline>  (111) 
J2VwaWtfcHl0aG9uJywgJy1waHQnLCAnMi4wJywgJy1waCcsICc3LjAnLCAnLXRuJywgJzgnLCAnLW1hJywgJzIwMCcsICctaW1hZScsICc8aW5maWxlLm1hZT4nLCAnLW9tYWUnLCAnPG91dGZpbGUubWFlPic=

>  <r_lp_tautomer_probability>  (111) 
1

>  <r_epik_Ionization_Penalty>  (111) 
9.43371e-07

>  <r_epik_Ionization_Penalty_Charging>  (111) 
9.4337e-07

>  <r_epik_Ionization_Penalty_Neutral>  (111) 
1.42214e-13

>  <r_epik_State_Penalty>  (111) 
-0

>  <r_epik_Charging_Adjusted_Penalty>  (111) 
9.4337e-07

>  <i_epik_Tot_Q>  (111) 
1

>  <i_epik_Tot_abs_Q>  (111) 
1

>  <s_epik_Chemistry_Notes>  (111) 
This compound has an imine and may undergo hydrolysis.

>  <s_lp_Force_Field>  (111) 
OPLS3e

>  <r_lp_Energy>  (111) 
39.239

>  <b_lp_Chiralities_Consistent>  (111) 
1

>  <s_lp_Variant>  (111) 
26:0-1

>  <s_i_glide_gridfile>  (111) 
pfpi4k_grid

>  <i_i_glide_lignum>  (111) 
41

>  <i_i_glide_rotatable_bonds>  (111) 
1

>  <r_i_docking_score>  (111) 
-6.09417

>  <r_i_glide_ligand_efficiency>  (111) 
-0.380886

>  <r_i_glide_ligand_efficiency_sa>  (111) 
-0.959772

>  <r_i_glide_ligand_efficiency_ln>  (111) 
-1.61538

>  <r_i_glide_gscore>  (111) 
-6.09417

>  <r_i_glide_lipo>  (111) 
-2.56588

>  <r_i_glide_hbond>  (111) 
0

>  <r_i_glide_metal>  (111) 
-0

>  <r_i_glide_rewards>  (111) 
-2.56782

>  <r_i_glide_evdw>  (111) 
-17.6784

>  <r_i_glide_ecoul>  (111) 
-0.510339

>  <r_i_glide_erotb>  (111) 
0

>  <r_i_glide_esite>  (111) 
0

>  <r_i_glide_emodel>  (111) 
-25.6759

>  <r_i_glide_energy>  (111) 
-18.1887

>  <r_i_glide_einternal>  (111) 
0.000424471

>  <r_i_glide_intrahb_reward>  (111) 
-0

>  <i_i_glide_confnum>  (111) 
2

>  <i_i_glide_posenum>  (111) 
28

>  <r_i_glide_eff_state_penalty>  (111) 
0

>  <ligand_id>  (111) 
26

>  <original_smiles>  (111) 
CN(C)C1=Nc2ccccc2C2CCCN12

>  <smiles>  (111) 
[H]c1c([H])c([H])c2c(c1[H])[N+]([H])=C(N(C([H])([H])[H])C([H])([H])[H])N1C([H])([H])C([H])([H])C([H])([H])C21[H]

$$$$
27:0:0
     RDKit          3D

 29 32  0  0  1  0  0  0  0  0999 V2000
    2.9485   -2.3964    3.8414 C   0  0  0  0  0  0  0  0  0  0  0  0
    4.0673   -1.9629    3.0921 C   0  0  0  0  0  0  0  0  0  0  0  0
    4.4918   -2.5675    1.9601 N   0  0  0  0  0  0  0  0  0  0  0  0
    3.7445   -3.6384    1.5713 C   0  0  0  0  0  0  0  0  0  0  0  0
    2.6281   -4.1860    2.2272 C   0  0  0  0  0  0  0  0  0  0  0  0
    2.2221   -3.5273    3.4092 C   0  0  0  0  0  0  0  0  0  0  0  0
    2.1636   -5.2932    1.5330 N   0  0  0  0  0  0  0  0  0  0  0  0
    2.9083   -5.4472    0.4754 N   0  0  0  0  0  0  0  0  0  0  0  0
    3.8468   -4.4558    0.4618 N   0  0  0  0  0  0  0  0  0  0  0  0
    4.8047   -4.3971   -0.6171 C   0  0  0  0  0  0  0  0  0  0  0  0
    4.8082   -3.0631   -1.2857 C   0  0  0  0  0  0  0  0  0  0  0  0
    5.7926   -2.1561   -1.1437 N   0  0  0  0  0  0  0  0  0  0  0  0
    5.4152   -1.0606   -1.9132 N   0  0  0  0  0  0  0  0  0  0  0  0
    4.2754   -1.4432   -2.4722 C   0  0  0  0  0  0  0  0  0  0  0  0
    3.8458   -2.6345   -2.1212 N   0  0  0  0  0  0  0  0  0  0  0  0
    2.6036   -3.0473   -2.7111 C   0  0  0  0  0  0  0  0  0  0  0  0
    2.5612   -2.0938   -3.9159 C   0  0  0  0  0  0  0  0  0  0  0  0
    3.3667   -0.8487   -3.4788 C   0  0  0  0  0  0  0  0  0  0  0  0
    2.6575   -1.8650    4.7379 H   0  0  0  0  0  0  0  0  0  0  0  0
    4.6321   -1.0953    3.4110 H   0  0  0  0  0  0  0  0  0  0  0  0
    1.3669   -3.8757    3.9635 H   0  0  0  0  0  0  0  0  0  0  0  0
    5.7919   -4.5916   -0.2047 H   0  0  0  0  0  0  0  0  0  0  0  0
    4.6090   -5.1857   -1.3482 H   0  0  0  0  0  0  0  0  0  0  0  0
    2.5861   -4.0889   -3.0033 H   0  0  0  0  0  0  0  0  0  0  0  0
    1.8052   -2.8179   -2.0093 H   0  0  0  0  0  0  0  0  0  0  0  0
    3.1314   -2.5697   -4.7163 H   0  0  0  0  0  0  0  0  0  0  0  0
    1.5632   -1.8950   -4.3093 H   0  0  0  0  0  0  0  0  0  0  0  0
    2.7073   -0.1418   -2.9842 H   0  0  0  0  0  0  0  0  0  0  0  0
    3.9069   -0.3571   -4.2862 H   0  0  0  0  0  0  0  0  0  0  0  0
  1  6  2  0
  1  2  1  0
  1 19  1  0
  2  3  2  0
  2 20  1  0
  3  4  1  0
  4  9  1  0
  4  5  2  0
  5  6  1  0
  5  7  1  0
  6 21  1  0
  7  8  2  0
  8  9  1  0
  9 10  1  0
 10 11  1  0
 10 22  1  0
 10 23  1  0
 11 15  1  0
 11 12  2  0
 12 13  1  0
 13 14  2  0
 14 18  1  0
 14 15  1  0
 15 16  1  0
 16 17  1  0
 16 24  1  0
 16 25  1  0
 17 18  1  0
 17 26  1  0
 17 27  1  0
 18 28  1  0
 18 29  1  0
M  END
>  <i_m_ct_stereo_status>  (112) 
1

>  <s_m_source_file>  (112) 
/var/tmp/pbs.5076255.sched01/tmp7dv9smms/08akalw19.sdf

>  <i_m_source_file_index>  (112) 
42

>  <i_lp_mmshare_version>  (112) 
48012

>  <i_f3d_flags>  (112) 
0

>  <s_epik_input>  (112) 
bjFbY0hdW2NIXVtjSF1jKGMxMilubm4yW0NIMl1jKG5uMyluKGMzNClbQ0gyXVtDSDJdW0NIMl00

>  <s_epik_cmdline>  (112) 
J2VwaWtfcHl0aG9uJywgJy1waHQnLCAnMi4wJywgJy1waCcsICc3LjAnLCAnLXRuJywgJzgnLCAnLW1hJywgJzIwMCcsICctaW1hZScsICc8aW5maWxlLm1hZT4nLCAnLW9tYWUnLCAnPG91dGZpbGUubWFlPic=

>  <r_lp_tautomer_probability>  (112) 
1

>  <r_epik_Ionization_Penalty>  (112) 
4.75948e-07

>  <r_epik_Ionization_Penalty_Charging>  (112) 
0

>  <r_epik_Ionization_Penalty_Neutral>  (112) 
4.75948e-07

>  <r_epik_State_Penalty>  (112) 
-0

>  <r_epik_Charging_Adjusted_Penalty>  (112) 
0

>  <i_epik_Tot_Q>  (112) 
0

>  <i_epik_Tot_abs_Q>  (112) 
0

>  <s_lp_Force_Field>  (112) 
OPLS3e

>  <r_lp_Energy>  (112) 
24.0395

>  <b_lp_Chiralities_Consistent>  (112) 
1

>  <s_lp_Variant>  (112) 
27:0-1

>  <s_i_glide_gridfile>  (112) 
pfpi4k_grid

>  <i_i_glide_lignum>  (112) 
42

>  <i_i_glide_rotatable_bonds>  (112) 
2

>  <r_i_docking_score>  (112) 
-3.45037

>  <r_i_glide_ligand_efficiency>  (112) 
-0.191687

>  <r_i_glide_ligand_efficiency_sa>  (112) 
-0.502362

>  <r_i_glide_ligand_efficiency_ln>  (112) 
-0.886899

>  <r_i_glide_gscore>  (112) 
-3.45037

>  <r_i_glide_lipo>  (112) 
-0.371459

>  <r_i_glide_hbond>  (112) 
0

>  <r_i_glide_metal>  (112) 
-0

>  <r_i_glide_rewards>  (112) 
-1.80447

>  <r_i_glide_evdw>  (112) 
-20.1634

>  <r_i_glide_ecoul>  (112) 
-4.35412

>  <r_i_glide_erotb>  (112) 
0.595182

>  <r_i_glide_esite>  (112) 
-0.208337

>  <r_i_glide_emodel>  (112) 
-30.258

>  <r_i_glide_energy>  (112) 
-24.5175

>  <r_i_glide_einternal>  (112) 
0.300787

>  <r_i_glide_intrahb_reward>  (112) 
-0

>  <i_i_glide_confnum>  (112) 
5

>  <i_i_glide_posenum>  (112) 
3

>  <r_i_glide_eff_state_penalty>  (112) 
0

>  <ligand_id>  (112) 
27

>  <original_smiles>  (112) 
c1cnc2c(c1)nnn2Cc1nnc2n1CCC2

>  <smiles>  (112) 
[H]c1nc2c(nnn2C([H])([H])c2nnc3n2C([H])([H])C([H])([H])C3([H])[H])c([H])c1[H]

$$$$
27:0:1
     RDKit          3D

 29 32  0  0  1  0  0  0  0  0999 V2000
   -1.9486    3.8050    9.0562 C   0  0  0  0  0  0  0  0  0  0  0  0
   -2.6777    2.7202    8.5182 C   0  0  0  0  0  0  0  0  0  0  0  0
   -2.5955    2.3099    7.2309 N   0  0  0  0  0  0  0  0  0  0  0  0
   -1.7516    3.0536    6.4560 C   0  0  0  0  0  0  0  0  0  0  0  0
   -0.9880    4.1619    6.8563 C   0  0  0  0  0  0  0  0  0  0  0  0
   -1.0934    4.5391    8.2131 C   0  0  0  0  0  0  0  0  0  0  0  0
   -0.2838    4.6670    5.7755 N   0  0  0  0  0  0  0  0  0  0  0  0
   -0.5335    3.9171    4.7447 N   0  0  0  0  0  0  0  0  0  0  0  0
   -1.3997    2.9383    5.1241 N   0  0  0  0  0  0  0  0  0  0  0  0
   -1.8259    1.9576    4.1443 C   0  0  0  0  0  0  0  0  0  0  0  0
   -1.3239    0.5848    4.4765 C   0  0  0  0  0  0  0  0  0  0  0  0
   -1.9281   -0.2715    5.3210 N   0  0  0  0  0  0  0  0  0  0  0  0
   -1.1738   -1.4390    5.3046 N   0  0  0  0  0  0  0  0  0  0  0  0
   -0.1802   -1.1451    4.4663 C   0  0  0  0  0  0  0  0  0  0  0  0
   -0.2080    0.0582    3.9333 N   0  0  0  0  0  0  0  0  0  0  0  0
    0.8417    0.3691    3.0011 C   0  0  0  0  0  0  0  0  0  0  0  0
    1.3395   -1.0582    2.6616 C   0  0  0  0  0  0  0  0  0  0  0  0
    0.9599   -1.9070    3.9066 C   0  0  0  0  0  0  0  0  0  0  0  0
   -2.0504    4.0589   10.1021 H   0  0  0  0  0  0  0  0  0  0  0  0
   -3.3379    2.1603    9.1687 H   0  0  0  0  0  0  0  0  0  0  0  0
   -0.5263    5.3718    8.5942 H   0  0  0  0  0  0  0  0  0  0  0  0
   -2.9102    1.9492    4.1212 H   0  0  0  0  0  0  0  0  0  0  0  0
   -1.5028    2.2574    3.1442 H   0  0  0  0  0  0  0  0  0  0  0  0
    0.4827    0.9416    2.1485 H   0  0  0  0  0  0  0  0  0  0  0  0
    1.6123    0.9231    3.5354 H   0  0  0  0  0  0  0  0  0  0  0  0
    0.7447   -1.4307    1.8260 H   0  0  0  0  0  0  0  0  0  0  0  0
    2.3811   -1.1390    2.3553 H   0  0  0  0  0  0  0  0  0  0  0  0
    1.7679   -1.8838    4.6372 H   0  0  0  0  0  0  0  0  0  0  0  0
    0.6846   -2.9383    3.6816 H   0  0  0  0  0  0  0  0  0  0  0  0
  1  6  2  0
  1  2  1  0
  1 19  1  0
  2  3  2  0
  2 20  1  0
  3  4  1  0
  4  9  1  0
  4  5  2  0
  5  6  1  0
  5  7  1  0
  6 21  1  0
  7  8  2  0
  8  9  1  0
  9 10  1  0
 10 11  1  0
 10 22  1  0
 10 23  1  0
 11 15  1  0
 11 12  2  0
 12 13  1  0
 13 14  2  0
 14 18  1  0
 14 15  1  0
 15 16  1  0
 16 17  1  0
 16 24  1  0
 16 25  1  0
 17 18  1  0
 17 26  1  0
 17 27  1  0
 18 28  1  0
 18 29  1  0
M  END
>  <i_m_ct_stereo_status>  (113) 
1

>  <s_m_source_file>  (113) 
/var/tmp/pbs.5076255.sched01/tmp7dv9smms/08akalw19.sdf

>  <i_m_source_file_index>  (113) 
42

>  <i_lp_mmshare_version>  (113) 
48012

>  <i_f3d_flags>  (113) 
0

>  <s_epik_input>  (113) 
bjFbY0hdW2NIXVtjSF1jKGMxMilubm4yW0NIMl1jKG5uMyluKGMzNClbQ0gyXVtDSDJdW0NIMl00

>  <s_epik_cmdline>  (113) 
J2VwaWtfcHl0aG9uJywgJy1waHQnLCAnMi4wJywgJy1waCcsICc3LjAnLCAnLXRuJywgJzgnLCAnLW1hJywgJzIwMCcsICctaW1hZScsICc8aW5maWxlLm1hZT4nLCAnLW9tYWUnLCAnPG91dGZpbGUubWFlPic=

>  <r_lp_tautomer_probability>  (113) 
1

>  <r_epik_Ionization_Penalty>  (113) 
4.75948e-07

>  <r_epik_Ionization_Penalty_Charging>  (113) 
0

>  <r_epik_Ionization_Penalty_Neutral>  (113) 
4.75948e-07

>  <r_epik_State_Penalty>  (113) 
-0

>  <r_epik_Charging_Adjusted_Penalty>  (113) 
0

>  <i_epik_Tot_Q>  (113) 
0

>  <i_epik_Tot_abs_Q>  (113) 
0

>  <s_lp_Force_Field>  (113) 
OPLS3e

>  <r_lp_Energy>  (113) 
24.0395

>  <b_lp_Chiralities_Consistent>  (113) 
1

>  <s_lp_Variant>  (113) 
27:0-1

>  <s_i_glide_gridfile>  (113) 
pfpi4k_grid

>  <i_i_glide_lignum>  (113) 
42

>  <i_i_glide_rotatable_bonds>  (113) 
2

>  <r_i_docking_score>  (113) 
-3.44369

>  <r_i_glide_ligand_efficiency>  (113) 
-0.191316

>  <r_i_glide_ligand_efficiency_sa>  (113) 
-0.50139

>  <r_i_glide_ligand_efficiency_ln>  (113) 
-0.885182

>  <r_i_glide_gscore>  (113) 
-3.44369

>  <r_i_glide_lipo>  (113) 
-0.0545983

>  <r_i_glide_hbond>  (113) 
0

>  <r_i_glide_metal>  (113) 
-0

>  <r_i_glide_rewards>  (113) 
-1.84491

>  <r_i_glide_evdw>  (113) 
-20.4214

>  <r_i_glide_ecoul>  (113) 
-5.94009

>  <r_i_glide_erotb>  (113) 
0.595182

>  <r_i_glide_esite>  (113) 
-0.227283

>  <r_i_glide_emodel>  (113) 
-32.2495

>  <r_i_glide_energy>  (113) 
-26.3614

>  <r_i_glide_einternal>  (113) 
0.164272

>  <r_i_glide_intrahb_reward>  (113) 
-0

>  <i_i_glide_confnum>  (113) 
5

>  <i_i_glide_posenum>  (113) 
1

>  <r_i_glide_eff_state_penalty>  (113) 
0

>  <ligand_id>  (113) 
27

>  <original_smiles>  (113) 
c1cnc2c(c1)nnn2Cc1nnc2n1CCC2

>  <smiles>  (113) 
[H]c1nc2c(nnn2C([H])([H])c2nnc3n2C([H])([H])C([H])([H])C3([H])[H])c([H])c1[H]

$$$$
27:0:2
     RDKit          3D

 29 32  0  0  1  0  0  0  0  0999 V2000
    3.2108   -2.0844   -3.5304 C   0  0  0  0  0  0  0  0  0  0  0  0
    4.1641   -1.1756   -3.0148 C   0  0  0  0  0  0  0  0  0  0  0  0
    4.5887   -1.1641   -1.7312 N   0  0  0  0  0  0  0  0  0  0  0  0
    3.9867   -2.0995   -0.9360 C   0  0  0  0  0  0  0  0  0  0  0  0
    3.0328   -3.0568   -1.3189 C   0  0  0  0  0  0  0  0  0  0  0  0
    2.6328   -3.0398   -2.6720 C   0  0  0  0  0  0  0  0  0  0  0  0
    2.6837   -3.8420   -0.2310 N   0  0  0  0  0  0  0  0  0  0  0  0
    3.3696   -3.4345    0.7917 N   0  0  0  0  0  0  0  0  0  0  0  0
    4.1365   -2.3756    0.4083 N   0  0  0  0  0  0  0  0  0  0  0  0
    5.0121   -1.7426    1.3776 C   0  0  0  0  0  0  0  0  0  0  0  0
    4.2865   -1.2464    2.5933 C   0  0  0  0  0  0  0  0  0  0  0  0
    4.5214   -1.6909    3.8406 N   0  0  0  0  0  0  0  0  0  0  0  0
    3.7027   -0.9442    4.6800 N   0  0  0  0  0  0  0  0  0  0  0  0
    3.0481   -0.1420    3.8411 C   0  0  0  0  0  0  0  0  0  0  0  0
    3.3494   -0.2802    2.5698 N   0  0  0  0  0  0  0  0  0  0  0  0
    2.6747    0.5928    1.6581 C   0  0  0  0  0  0  0  0  0  0  0  0
    2.1719    1.6836    2.6378 C   0  0  0  0  0  0  0  0  0  0  0  0
    2.0636    0.9518    4.0033 C   0  0  0  0  0  0  0  0  0  0  0  0
    2.9155   -2.0468   -4.5669 H   0  0  0  0  0  0  0  0  0  0  0  0
    4.6062   -0.4418   -3.6719 H   0  0  0  0  0  0  0  0  0  0  0  0
    1.9024   -3.7494   -3.0314 H   0  0  0  0  0  0  0  0  0  0  0  0
    5.7638   -2.4719    1.6870 H   0  0  0  0  0  0  0  0  0  0  0  0
    5.5355   -0.9160    0.8995 H   0  0  0  0  0  0  0  0  0  0  0  0
    3.3548    0.9454    0.8869 H   0  0  0  0  0  0  0  0  0  0  0  0
    1.8368    0.0456    1.2221 H   0  0  0  0  0  0  0  0  0  0  0  0
    2.9621    2.4308    2.7398 H   0  0  0  0  0  0  0  0  0  0  0  0
    1.2743    2.2191    2.3282 H   0  0  0  0  0  0  0  0  0  0  0  0
    1.0763    0.5022    4.1071 H   0  0  0  0  0  0  0  0  0  0  0  0
    2.2884    1.5772    4.8690 H   0  0  0  0  0  0  0  0  0  0  0  0
  1  6  2  0
  1  2  1  0
  1 19  1  0
  2  3  2  0
  2 20  1  0
  3  4  1  0
  4  9  1  0
  4  5  2  0
  5  6  1  0
  5  7  1  0
  6 21  1  0
  7  8  2  0
  8  9  1  0
  9 10  1  0
 10 11  1  0
 10 22  1  0
 10 23  1  0
 11 15  1  0
 11 12  2  0
 12 13  1  0
 13 14  2  0
 14 18  1  0
 14 15  1  0
 15 16  1  0
 16 17  1  0
 16 24  1  0
 16 25  1  0
 17 18  1  0
 17 26  1  0
 17 27  1  0
 18 28  1  0
 18 29  1  0
M  END
>  <i_m_ct_stereo_status>  (114) 
1

>  <s_m_source_file>  (114) 
/var/tmp/pbs.5076255.sched01/tmp7dv9smms/08akalw19.sdf

>  <i_m_source_file_index>  (114) 
42

>  <i_lp_mmshare_version>  (114) 
48012

>  <i_f3d_flags>  (114) 
0

>  <s_epik_input>  (114) 
bjFbY0hdW2NIXVtjSF1jKGMxMilubm4yW0NIMl1jKG5uMyluKGMzNClbQ0gyXVtDSDJdW0NIMl00

>  <s_epik_cmdline>  (114) 
J2VwaWtfcHl0aG9uJywgJy1waHQnLCAnMi4wJywgJy1waCcsICc3LjAnLCAnLXRuJywgJzgnLCAnLW1hJywgJzIwMCcsICctaW1hZScsICc8aW5maWxlLm1hZT4nLCAnLW9tYWUnLCAnPG91dGZpbGUubWFlPic=

>  <r_lp_tautomer_probability>  (114) 
1

>  <r_epik_Ionization_Penalty>  (114) 
4.75948e-07

>  <r_epik_Ionization_Penalty_Charging>  (114) 
0

>  <r_epik_Ionization_Penalty_Neutral>  (114) 
4.75948e-07

>  <r_epik_State_Penalty>  (114) 
-0

>  <r_epik_Charging_Adjusted_Penalty>  (114) 
0

>  <i_epik_Tot_Q>  (114) 
0

>  <i_epik_Tot_abs_Q>  (114) 
0

>  <s_lp_Force_Field>  (114) 
OPLS3e

>  <r_lp_Energy>  (114) 
24.0395

>  <b_lp_Chiralities_Consistent>  (114) 
1

>  <s_lp_Variant>  (114) 
27:0-1

>  <s_i_glide_gridfile>  (114) 
pfpi4k_grid

>  <i_i_glide_lignum>  (114) 
42

>  <i_i_glide_rotatable_bonds>  (114) 
2

>  <r_i_docking_score>  (114) 
-3.13093

>  <r_i_glide_ligand_efficiency>  (114) 
-0.173941

>  <r_i_glide_ligand_efficiency_sa>  (114) 
-0.455853

>  <r_i_glide_ligand_efficiency_ln>  (114) 
-0.80479

>  <r_i_glide_gscore>  (114) 
-3.13093

>  <r_i_glide_lipo>  (114) 
-0.40622

>  <r_i_glide_hbond>  (114) 
0

>  <r_i_glide_metal>  (114) 
-0

>  <r_i_glide_rewards>  (114) 
-1.8016

>  <r_i_glide_evdw>  (114) 
-23.4739

>  <r_i_glide_ecoul>  (114) 
-1.73479

>  <r_i_glide_erotb>  (114) 
0.595182

>  <r_i_glide_esite>  (114) 
-0.0843809

>  <r_i_glide_emodel>  (114) 
-30.5056

>  <r_i_glide_energy>  (114) 
-25.2087

>  <r_i_glide_einternal>  (114) 
0.295658

>  <r_i_glide_intrahb_reward>  (114) 
-0

>  <i_i_glide_confnum>  (114) 
2

>  <i_i_glide_posenum>  (114) 
4

>  <r_i_glide_eff_state_penalty>  (114) 
0

>  <ligand_id>  (114) 
27

>  <original_smiles>  (114) 
c1cnc2c(c1)nnn2Cc1nnc2n1CCC2

>  <smiles>  (114) 
[H]c1nc2c(nnn2C([H])([H])c2nnc3n2C([H])([H])C([H])([H])C3([H])[H])c([H])c1[H]

$$$$
29:0:0
     RDKit          3D

 24 28  0  0  1  0  0  0  0  0999 V2000
    1.2056   -8.3409    2.2683 C   0  0  0  0  0  0  0  0  0  0  0  0
    0.2556   -7.4745    1.6962 C   0  0  0  0  0  0  0  0  0  0  0  0
    0.5953   -6.3489    1.0408 N   0  0  0  0  0  0  0  0  0  0  0  0
    1.8989   -6.0136    0.8860 C   0  0  0  0  0  0  0  0  0  0  0  0
    2.2326   -4.8977    0.2059 N   0  0  0  0  0  0  0  0  0  0  0  0
    3.5350   -4.5685    0.0407 C   0  0  0  0  0  0  0  0  0  0  0  0
    3.9684   -3.3945   -0.5533 C   0  0  0  0  0  0  0  0  0  0  0  0
    5.3690   -3.0339   -0.7091 C   0  0  0  0  0  0  0  0  0  0  0  0
    6.3989   -3.8427   -0.2668 C   0  0  0  0  0  0  0  0  0  0  0  0
    5.9550   -5.0145    0.4169 C   0  0  0  0  0  0  0  0  0  0  0  0
    4.5786   -5.3841    0.5700 C   0  0  0  0  0  0  0  0  0  0  0  0
    4.2442   -6.4939    1.2694 N   0  0  0  0  0  0  0  0  0  0  0  0
    2.9392   -6.8236    1.4300 C   0  0  0  0  0  0  0  0  0  0  0  0
    2.5698   -7.9989    2.1241 C   0  0  0  0  0  0  0  0  0  0  0  0
    5.0136   -1.7483   -1.3608 C   0  0  1  0  0  0  0  0  0  0  0  0
    4.0731   -0.9169   -0.6922 O   0  0  0  0  0  0  0  0  0  0  0  0
    3.5102   -2.1371   -1.1848 C   0  0  2  0  0  0  0  0  0  0  0  0
    0.9067   -9.2412    2.7905 H   0  0  0  0  0  0  0  0  0  0  0  0
   -0.8024   -7.6953    1.7588 H   0  0  0  0  0  0  0  0  0  0  0  0
    7.4531   -3.5683   -0.3202 H   0  0  0  0  0  0  0  0  0  0  0  0
    6.6916   -5.6411    0.8992 H   0  0  0  0  0  0  0  0  0  0  0  0
    3.3349   -8.6534    2.5494 H   0  0  0  0  0  0  0  0  0  0  0  0
    5.3630   -1.5904   -2.3841 H   0  0  0  0  0  0  0  0  0  0  0  0
    2.9070   -2.2310   -2.0948 H   0  0  0  0  0  0  0  0  0  0  0  0
  1 14  2  0
  1  2  1  0
  1 18  1  0
  2  3  2  0
  2 19  1  0
  3  4  1  0
  4 13  2  0
  4  5  1  0
  5  6  2  0
  6 11  1  0
  6  7  1  0
  7 17  1  0
  7  8  2  0
  8  9  1  0
  8 15  1  0
  9 10  2  0
  9 20  1  0
 10 11  1  0
 10 21  1  0
 11 12  2  0
 12 13  1  0
 13 14  1  0
 14 22  1  0
 15 17  1  0
 15 16  1  0
 15 23  1  6
 16 17  1  0
 17 24  1  6
M  END
>  <i_m_ct_stereo_status>  (115) 
1

>  <s_m_source_file>  (115) 
/var/tmp/pbs.5076255.sched01/tmp7dv9smms/08akalw19.sdf

>  <i_m_source_file_index>  (115) 
44

>  <i_lp_mmshare_version>  (115) 
48012

>  <i_f3d_flags>  (115) 
0

>  <s_epik_input>  (115) 
bjFbY0hdW2NIXVtjSF1jKGMxMiluYzNjKG4yKWM0YyhbY0hdW2NIXTMpW0NIXTVbQ0hdNE81

>  <s_epik_cmdline>  (115) 
J2VwaWtfcHl0aG9uJywgJy1waHQnLCAnMi4wJywgJy1waCcsICc3LjAnLCAnLXRuJywgJzgnLCAnLW1hJywgJzIwMCcsICctaW1hZScsICc8aW5maWxlLm1hZT4nLCAnLW9tYWUnLCAnPG91dGZpbGUubWFlPic=

>  <r_lp_tautomer_probability>  (115) 
1

>  <r_epik_Ionization_Penalty>  (115) 
5.11992e-05

>  <r_epik_Ionization_Penalty_Charging>  (115) 
0

>  <r_epik_Ionization_Penalty_Neutral>  (115) 
5.11992e-05

>  <r_epik_State_Penalty>  (115) 
-0

>  <r_epik_Charging_Adjusted_Penalty>  (115) 
0

>  <i_epik_Tot_Q>  (115) 
0

>  <i_epik_Tot_abs_Q>  (115) 
0

>  <s_lp_Force_Field>  (115) 
OPLS3e

>  <r_lp_Energy>  (115) 
44.0279

>  <b_lp_Chiralities_Consistent>  (115) 
1

>  <s_lp_Variant>  (115) 
29:0-1

>  <s_i_glide_gridfile>  (115) 
pfpi4k_grid

>  <i_i_glide_lignum>  (115) 
44

>  <i_i_glide_rotatable_bonds>  (115) 
0

>  <r_i_docking_score>  (115) 
-4.00733

>  <r_i_glide_ligand_efficiency>  (115) 
-0.235725

>  <r_i_glide_ligand_efficiency_sa>  (115) 
-0.606116

>  <r_i_glide_ligand_efficiency_ln>  (115) 
-1.04542

>  <r_i_glide_gscore>  (115) 
-4.00733

>  <r_i_glide_lipo>  (115) 
-0.368414

>  <r_i_glide_hbond>  (115) 
-0.170667

>  <r_i_glide_metal>  (115) 
-0

>  <r_i_glide_rewards>  (115) 
-1.90081

>  <r_i_glide_evdw>  (115) 
-19.1638

>  <r_i_glide_ecoul>  (115) 
-3.70383

>  <r_i_glide_erotb>  (115) 
0

>  <r_i_glide_esite>  (115) 
-0.0536733

>  <r_i_glide_emodel>  (115) 
-29.2615

>  <r_i_glide_energy>  (115) 
-22.8677

>  <r_i_glide_einternal>  (115) 
0

>  <r_i_glide_intrahb_reward>  (115) 
-0

>  <i_i_glide_confnum>  (115) 
1

>  <i_i_glide_posenum>  (115) 
4

>  <r_i_glide_eff_state_penalty>  (115) 
0

>  <ligand_id>  (115) 
29

>  <original_smiles>  (115) 
c1cnc2nc3c4c(ccc3nc2c1)C1OC41

>  <smiles>  (115) 
[H]c1nc2nc3c4c(c([H])c([H])c3nc2c([H])c1[H])C1([H])OC41[H]

$$$$
29:0:1
     RDKit          3D

 24 28  0  0  1  0  0  0  0  0999 V2000
    4.9709   -4.1746   -0.4590 C   0  0  0  0  0  0  0  0  0  0  0  0
    3.7339   -3.5057   -0.4009 C   0  0  0  0  0  0  0  0  0  0  0  0
    2.6339   -4.0611    0.1352 N   0  0  0  0  0  0  0  0  0  0  0  0
    2.6723   -5.3074    0.6504 C   0  0  0  0  0  0  0  0  0  0  0  0
    1.5555   -5.8534    1.2012 N   0  0  0  0  0  0  0  0  0  0  0  0
    1.6223   -7.0935    1.7355 C   0  0  0  0  0  0  0  0  0  0  0  0
    0.5124   -7.7565    2.2620 C   0  0  0  0  0  0  0  0  0  0  0  0
    0.5675   -9.1118    2.8133 C   0  0  0  0  0  0  0  0  0  0  0  0
    1.7423   -9.8419    2.8730 C   0  0  0  0  0  0  0  0  0  0  0  0
    2.8708   -9.1818    2.2788 C   0  0  0  0  0  0  0  0  0  0  0  0
    2.8236   -7.8645    1.7365 C   0  0  0  0  0  0  0  0  0  0  0  0
    3.9324   -7.3208    1.1621 N   0  0  0  0  0  0  0  0  0  0  0  0
    3.8752   -6.0728    0.6443 C   0  0  0  0  0  0  0  0  0  0  0  0
    5.0333   -5.4776    0.0783 C   0  0  0  0  0  0  0  0  0  0  0  0
   -0.8894   -9.1082    3.0890 C   0  0  1  0  0  0  0  0  0  0  0  0
   -1.7945   -8.7148    2.0478 O   0  0  0  0  0  0  0  0  0  0  0  0
   -0.9396   -7.6588    2.5066 C   0  0  2  0  0  0  0  0  0  0  0  0
    5.8429   -3.7088   -0.9124 H   0  0  0  0  0  0  0  0  0  0  0  0
    3.6205   -2.5015   -0.7895 H   0  0  0  0  0  0  0  0  0  0  0  0
    1.7967  -10.8685    3.2291 H   0  0  0  0  0  0  0  0  0  0  0  0
    3.7871   -9.7431    2.1778 H   0  0  0  0  0  0  0  0  0  0  0  0
    5.9635   -6.0228    0.0458 H   0  0  0  0  0  0  0  0  0  0  0  0
   -1.1978   -9.2313    4.1260 H   0  0  0  0  0  0  0  0  0  0  0  0
   -1.2888   -6.8530    3.1647 H   0  0  0  0  0  0  0  0  0  0  0  0
  1 14  2  0
  1  2  1  0
  1 18  1  0
  2  3  2  0
  2 19  1  0
  3  4  1  0
  4 13  2  0
  4  5  1  0
  5  6  2  0
  6 11  1  0
  6  7  1  0
  7 17  1  0
  7  8  2  0
  8  9  1  0
  8 15  1  0
  9 10  2  0
  9 20  1  0
 10 11  1  0
 10 21  1  0
 11 12  2  0
 12 13  1  0
 13 14  1  0
 14 22  1  0
 15 17  1  0
 15 16  1  0
 15 23  1  1
 16 17  1  0
 17 24  1  1
M  END
>  <i_m_ct_stereo_status>  (116) 
1

>  <s_m_source_file>  (116) 
/var/tmp/pbs.5076255.sched01/tmp7dv9smms/08akalw19.sdf

>  <i_m_source_file_index>  (116) 
44

>  <i_lp_mmshare_version>  (116) 
48012

>  <i_f3d_flags>  (116) 
0

>  <s_epik_input>  (116) 
bjFbY0hdW2NIXVtjSF1jKGMxMiluYzNjKG4yKWM0YyhbY0hdW2NIXTMpW0NIXTVbQ0hdNE81

>  <s_epik_cmdline>  (116) 
J2VwaWtfcHl0aG9uJywgJy1waHQnLCAnMi4wJywgJy1waCcsICc3LjAnLCAnLXRuJywgJzgnLCAnLW1hJywgJzIwMCcsICctaW1hZScsICc8aW5maWxlLm1hZT4nLCAnLW9tYWUnLCAnPG91dGZpbGUubWFlPic=

>  <r_lp_tautomer_probability>  (116) 
1

>  <r_epik_Ionization_Penalty>  (116) 
5.11992e-05

>  <r_epik_Ionization_Penalty_Charging>  (116) 
0

>  <r_epik_Ionization_Penalty_Neutral>  (116) 
5.11992e-05

>  <r_epik_State_Penalty>  (116) 
-0

>  <r_epik_Charging_Adjusted_Penalty>  (116) 
0

>  <i_epik_Tot_Q>  (116) 
0

>  <i_epik_Tot_abs_Q>  (116) 
0

>  <s_lp_Force_Field>  (116) 
OPLS3e

>  <r_lp_Energy>  (116) 
44.0279

>  <b_lp_Chiralities_Consistent>  (116) 
1

>  <s_lp_Variant>  (116) 
29:0-1

>  <s_i_glide_gridfile>  (116) 
pfpi4k_grid

>  <i_i_glide_lignum>  (116) 
44

>  <i_i_glide_rotatable_bonds>  (116) 
0

>  <r_i_docking_score>  (116) 
-3.56571

>  <r_i_glide_ligand_efficiency>  (116) 
-0.209748

>  <r_i_glide_ligand_efficiency_sa>  (116) 
-0.539321

>  <r_i_glide_ligand_efficiency_ln>  (116) 
-0.930215

>  <r_i_glide_gscore>  (116) 
-3.56571

>  <r_i_glide_lipo>  (116) 
-0.248399

>  <r_i_glide_hbond>  (116) 
-0.122906

>  <r_i_glide_metal>  (116) 
-0

>  <r_i_glide_rewards>  (116) 
-1.90081

>  <r_i_glide_evdw>  (116) 
-22.3707

>  <r_i_glide_ecoul>  (116) 
-0.915626

>  <r_i_glide_erotb>  (116) 
0

>  <r_i_glide_esite>  (116) 
-0.0377206

>  <r_i_glide_emodel>  (116) 
-28.9947

>  <r_i_glide_energy>  (116) 
-23.2863

>  <r_i_glide_einternal>  (116) 
0

>  <r_i_glide_intrahb_reward>  (116) 
-0

>  <i_i_glide_confnum>  (116) 
1

>  <i_i_glide_posenum>  (116) 
2

>  <r_i_glide_eff_state_penalty>  (116) 
0

>  <ligand_id>  (116) 
29

>  <original_smiles>  (116) 
c1cnc2nc3c4c(ccc3nc2c1)C1OC41

>  <smiles>  (116) 
[H]c1nc2nc3c4c(c([H])c([H])c3nc2c([H])c1[H])C1([H])OC41[H]

$$$$
29:0:2
     RDKit          3D

 24 28  0  0  1  0  0  0  0  0999 V2000
    0.4267   -4.6987    6.0510 C   0  0  0  0  0  0  0  0  0  0  0  0
   -0.6420   -4.1290    6.7690 C   0  0  0  0  0  0  0  0  0  0  0  0
   -1.1228   -2.9051    6.4905 N   0  0  0  0  0  0  0  0  0  0  0  0
   -0.5881   -2.1512    5.5103 C   0  0  0  0  0  0  0  0  0  0  0  0
   -1.0931   -0.9255    5.2413 N   0  0  0  0  0  0  0  0  0  0  0  0
   -0.5438   -0.1880    4.2447 C   0  0  0  0  0  0  0  0  0  0  0  0
   -0.9350    1.1167    3.9446 C   0  0  0  0  0  0  0  0  0  0  0  0
   -0.3412    1.9109    2.8837 C   0  0  0  0  0  0  0  0  0  0  0  0
    0.6688    1.4266    2.0638 C   0  0  0  0  0  0  0  0  0  0  0  0
    1.1167    0.1103    2.4093 C   0  0  0  0  0  0  0  0  0  0  0  0
    0.5481   -0.6723    3.4646 C   0  0  0  0  0  0  0  0  0  0  0  0
    1.0548   -1.8901    3.7449 N   0  0  0  0  0  0  0  0  0  0  0  0
    0.5118   -2.6313    4.7368 C   0  0  0  0  0  0  0  0  0  0  0  0
    1.0098   -3.9271    5.0212 C   0  0  0  0  0  0  0  0  0  0  0  0
   -1.1747    3.0866    3.2123 C   0  0  1  0  0  0  0  0  0  0  0  0
   -1.2402    3.5458    4.5859 O   0  0  0  0  0  0  0  0  0  0  0  0
   -1.8274    2.2331    4.3498 C   0  0  2  0  0  0  0  0  0  0  0  0
    0.7906   -5.6999    6.2941 H   0  0  0  0  0  0  0  0  0  0  0  0
   -1.1404   -4.6626    7.5696 H   0  0  0  0  0  0  0  0  0  0  0  0
    1.1448    2.0224    1.2792 H   0  0  0  0  0  0  0  0  0  0  0  0
    1.9647   -0.2861    1.8694 H   0  0  0  0  0  0  0  0  0  0  0  0
    1.8309   -4.3395    4.4601 H   0  0  0  0  0  0  0  0  0  0  0  0
   -1.8485    3.4447    2.4324 H   0  0  0  0  0  0  0  0  0  0  0  0
   -2.9075    2.0940    4.2655 H   0  0  0  0  0  0  0  0  0  0  0  0
  1 14  2  0
  1  2  1  0
  1 18  1  0
  2  3  2  0
  2 19  1  0
  3  4  1  0
  4 13  2  0
  4  5  1  0
  5  6  2  0
  6 11  1  0
  6  7  1  0
  7 17  1  0
  7  8  2  0
  8  9  1  0
  8 15  1  0
  9 10  2  0
  9 20  1  0
 10 11  1  0
 10 21  1  0
 11 12  2  0
 12 13  1  0
 13 14  1  0
 14 22  1  0
 15 17  1  0
 15 16  1  0
 15 23  1  6
 16 17  1  0
 17 24  1  6
M  END
>  <i_m_ct_stereo_status>  (117) 
1

>  <s_m_source_file>  (117) 
/var/tmp/pbs.5076255.sched01/tmp7dv9smms/08akalw19.sdf

>  <i_m_source_file_index>  (117) 
44

>  <i_lp_mmshare_version>  (117) 
48012

>  <i_f3d_flags>  (117) 
0

>  <s_epik_input>  (117) 
bjFbY0hdW2NIXVtjSF1jKGMxMiluYzNjKG4yKWM0YyhbY0hdW2NIXTMpW0NIXTVbQ0hdNE81

>  <s_epik_cmdline>  (117) 
J2VwaWtfcHl0aG9uJywgJy1waHQnLCAnMi4wJywgJy1waCcsICc3LjAnLCAnLXRuJywgJzgnLCAnLW1hJywgJzIwMCcsICctaW1hZScsICc8aW5maWxlLm1hZT4nLCAnLW9tYWUnLCAnPG91dGZpbGUubWFlPic=

>  <r_lp_tautomer_probability>  (117) 
1

>  <r_epik_Ionization_Penalty>  (117) 
5.11992e-05

>  <r_epik_Ionization_Penalty_Charging>  (117) 
0

>  <r_epik_Ionization_Penalty_Neutral>  (117) 
5.11992e-05

>  <r_epik_State_Penalty>  (117) 
-0

>  <r_epik_Charging_Adjusted_Penalty>  (117) 
0

>  <i_epik_Tot_Q>  (117) 
0

>  <i_epik_Tot_abs_Q>  (117) 
0

>  <s_lp_Force_Field>  (117) 
OPLS3e

>  <r_lp_Energy>  (117) 
44.0279

>  <b_lp_Chiralities_Consistent>  (117) 
1

>  <s_lp_Variant>  (117) 
29:0-1

>  <s_i_glide_gridfile>  (117) 
pfpi4k_grid

>  <i_i_glide_lignum>  (117) 
44

>  <i_i_glide_rotatable_bonds>  (117) 
0

>  <r_i_docking_score>  (117) 
-3.2914

>  <r_i_glide_ligand_efficiency>  (117) 
-0.193612

>  <r_i_glide_ligand_efficiency_sa>  (117) 
-0.49783

>  <r_i_glide_ligand_efficiency_ln>  (117) 
-0.858653

>  <r_i_glide_gscore>  (117) 
-3.2914

>  <r_i_glide_lipo>  (117) 
-0.0258575

>  <r_i_glide_hbond>  (117) 
0

>  <r_i_glide_metal>  (117) 
-0

>  <r_i_glide_rewards>  (117) 
-1.90081

>  <r_i_glide_evdw>  (117) 
-18.1442

>  <r_i_glide_ecoul>  (117) 
-2.86247

>  <r_i_glide_erotb>  (117) 
0

>  <r_i_glide_esite>  (117) 
-0.0281492

>  <r_i_glide_emodel>  (117) 
-26.2514

>  <r_i_glide_energy>  (117) 
-21.0067

>  <r_i_glide_einternal>  (117) 
0

>  <r_i_glide_intrahb_reward>  (117) 
-0

>  <i_i_glide_confnum>  (117) 
2

>  <i_i_glide_posenum>  (117) 
39

>  <r_i_glide_eff_state_penalty>  (117) 
0

>  <ligand_id>  (117) 
29

>  <original_smiles>  (117) 
c1cnc2nc3c4c(ccc3nc2c1)C1OC41

>  <smiles>  (117) 
[H]c1nc2nc3c4c(c([H])c([H])c3nc2c([H])c1[H])C1([H])OC41[H]

$$$$
29:1:0
     RDKit          3D

 24 28  0  0  1  0  0  0  0  0999 V2000
   -0.4021   -9.3540    2.8820 C   0  0  0  0  0  0  0  0  0  0  0  0
   -1.1486   -8.2006    2.5982 C   0  0  0  0  0  0  0  0  0  0  0  0
   -0.5984   -7.0781    2.0838 N   0  0  0  0  0  0  0  0  0  0  0  0
    0.7259   -7.0351    1.8114 C   0  0  0  0  0  0  0  0  0  0  0  0
    1.2714   -5.9117    1.2805 N   0  0  0  0  0  0  0  0  0  0  0  0
    2.5986   -5.8472    1.0452 C   0  0  0  0  0  0  0  0  0  0  0  0
    3.2269   -4.7611    0.4325 C   0  0  0  0  0  0  0  0  0  0  0  0
    4.6460   -4.7106    0.1588 C   0  0  0  0  0  0  0  0  0  0  0  0
    5.5064   -5.7409    0.5053 C   0  0  0  0  0  0  0  0  0  0  0  0
    4.8584   -6.8817    1.0653 C   0  0  0  0  0  0  0  0  0  0  0  0
    3.4522   -6.9481    1.3309 C   0  0  0  0  0  0  0  0  0  0  0  0
    2.9020   -8.0927    1.8114 N   0  0  0  0  0  0  0  0  0  0  0  0
    1.5729   -8.1478    2.0700 C   0  0  0  0  0  0  0  0  0  0  0  0
    0.9856   -9.3187    2.6162 C   0  0  0  0  0  0  0  0  0  0  0  0
    4.5362   -3.3629   -0.4578 C   0  0  2  0  0  0  0  0  0  0  0  0
    3.5357   -3.1870   -1.4638 O   0  0  0  0  0  0  0  0  0  0  0  0
    2.9994   -3.4213   -0.1562 C   0  0  1  0  0  0  0  0  0  0  0  0
   -0.8671  -10.2392    3.3037 H   0  0  0  0  0  0  0  0  0  0  0  0
   -2.2158   -8.1712    2.7694 H   0  0  0  0  0  0  0  0  0  0  0  0
    6.5654   -5.7536    0.2618 H   0  0  0  0  0  0  0  0  0  0  0  0
    5.4380   -7.7807    1.2291 H   0  0  0  0  0  0  0  0  0  0  0  0
    1.6002  -10.1929    2.8364 H   0  0  0  0  0  0  0  0  0  0  0  0
    5.0883   -2.5440    0.0098 H   0  0  0  0  0  0  0  0  0  0  0  0
    2.5803   -2.6439    0.4944 H   0  0  0  0  0  0  0  0  0  0  0  0
  1 14  2  0
  1  2  1  0
  1 18  1  0
  2  3  2  0
  2 19  1  0
  3  4  1  0
  4 13  2  0
  4  5  1  0
  5  6  2  0
  6 11  1  0
  6  7  1  0
  7 17  1  0
  7  8  2  0
  8  9  1  0
  8 15  1  0
  9 10  2  0
  9 20  1  0
 10 11  1  0
 10 21  1  0
 11 12  2  0
 12 13  1  0
 13 14  1  0
 14 22  1  0
 15 17  1  0
 15 16  1  0
 15 23  1  1
 16 17  1  0
 17 24  1  1
M  END
>  <i_m_ct_stereo_status>  (118) 
1

>  <s_m_source_file>  (118) 
/var/tmp/pbs.5076255.sched01/tmp7dv9smms/08akalw19.sdf

>  <i_m_source_file_index>  (118) 
45

>  <i_lp_mmshare_version>  (118) 
48012

>  <i_f3d_flags>  (118) 
0

>  <s_epik_input>  (118) 
bjFbY0hdW2NIXVtjSF1jKGMxMiluYzNjKG4yKWM0YyhbY0hdW2NIXTMpW0NIXTVbQ0hdNE81

>  <s_epik_cmdline>  (118) 
J2VwaWtfcHl0aG9uJywgJy1waHQnLCAnMi4wJywgJy1waCcsICc3LjAnLCAnLXRuJywgJzgnLCAnLW1hJywgJzIwMCcsICctaW1hZScsICc8aW5maWxlLm1hZT4nLCAnLW9tYWUnLCAnPG91dGZpbGUubWFlPic=

>  <r_lp_tautomer_probability>  (118) 
1

>  <r_epik_Ionization_Penalty>  (118) 
5.11992e-05

>  <r_epik_Ionization_Penalty_Charging>  (118) 
0

>  <r_epik_Ionization_Penalty_Neutral>  (118) 
5.11992e-05

>  <r_epik_State_Penalty>  (118) 
-0

>  <r_epik_Charging_Adjusted_Penalty>  (118) 
0

>  <i_epik_Tot_Q>  (118) 
0

>  <i_epik_Tot_abs_Q>  (118) 
0

>  <s_lp_Force_Field>  (118) 
OPLS3e

>  <r_lp_Energy>  (118) 
44.0279

>  <b_lp_Chiralities_Consistent>  (118) 
1

>  <s_lp_Variant>  (118) 
29:0-2

>  <s_i_glide_gridfile>  (118) 
pfpi4k_grid

>  <i_i_glide_lignum>  (118) 
45

>  <i_i_glide_rotatable_bonds>  (118) 
0

>  <r_i_docking_score>  (118) 
-4.32048

>  <r_i_glide_ligand_efficiency>  (118) 
-0.254146

>  <r_i_glide_ligand_efficiency_sa>  (118) 
-0.65348

>  <r_i_glide_ligand_efficiency_ln>  (118) 
-1.12712

>  <r_i_glide_gscore>  (118) 
-4.32048

>  <r_i_glide_lipo>  (118) 
-0.369589

>  <r_i_glide_hbond>  (118) 
-0.283751

>  <r_i_glide_metal>  (118) 
-0

>  <r_i_glide_rewards>  (118) 
-1.90081

>  <r_i_glide_evdw>  (118) 
-21.4364

>  <r_i_glide_ecoul>  (118) 
-4.16833

>  <r_i_glide_erotb>  (118) 
0

>  <r_i_glide_esite>  (118) 
-0.0692512

>  <r_i_glide_emodel>  (118) 
-33.3497

>  <r_i_glide_energy>  (118) 
-25.6048

>  <r_i_glide_einternal>  (118) 
0

>  <r_i_glide_intrahb_reward>  (118) 
-0

>  <i_i_glide_confnum>  (118) 
2

>  <i_i_glide_posenum>  (118) 
1

>  <r_i_glide_eff_state_penalty>  (118) 
0

>  <ligand_id>  (118) 
29

>  <original_smiles>  (118) 
c1cnc2nc3c4c(ccc3nc2c1)C1OC41

>  <smiles>  (118) 
[H]c1nc2nc3c4c(c([H])c([H])c3nc2c([H])c1[H])C1([H])OC41[H]

$$$$
29:1:1
     RDKit          3D

 24 28  0  0  1  0  0  0  0  0999 V2000
    1.8319   -7.8854    2.2231 C   0  0  0  0  0  0  0  0  0  0  0  0
    0.7843   -7.3343    1.4672 C   0  0  0  0  0  0  0  0  0  0  0  0
    0.9433   -6.2616    0.6543 N   0  0  0  0  0  0  0  0  0  0  0  0
    2.1662   -5.6903    0.5283 C   0  0  0  0  0  0  0  0  0  0  0  0
    2.3309   -4.6083   -0.2741 N   0  0  0  0  0  0  0  0  0  0  0  0
    3.5473   -4.0296   -0.4101 C   0  0  0  0  0  0  0  0  0  0  0  0
    3.8332   -3.0184   -1.3314 C   0  0  0  0  0  0  0  0  0  0  0  0
    5.1409   -2.4118   -1.4638 C   0  0  0  0  0  0  0  0  0  0  0  0
    6.2262   -2.7996   -0.6883 C   0  0  0  0  0  0  0  0  0  0  0  0
    5.9633   -3.8988    0.1764 C   0  0  0  0  0  0  0  0  0  0  0  0
    4.6748   -4.5111    0.3139 C   0  0  0  0  0  0  0  0  0  0  0  0
    4.5198   -5.6083    1.0997 N   0  0  0  0  0  0  0  0  0  0  0  0
    3.3015   -6.1909    1.2327 C   0  0  0  0  0  0  0  0  0  0  0  0
    3.1114   -7.3044    2.0911 C   0  0  0  0  0  0  0  0  0  0  0  0
    4.6575   -1.4955   -2.5273 C   0  0  2  0  0  0  0  0  0  0  0  0
    3.9944   -2.1043   -3.6376 O   0  0  0  0  0  0  0  0  0  0  0  0
    3.2553   -2.1765   -2.4099 C   0  0  1  0  0  0  0  0  0  0  0  0
    1.6647   -8.7350    2.8754 H   0  0  0  0  0  0  0  0  0  0  0  0
   -0.2161   -7.7411    1.5057 H   0  0  0  0  0  0  0  0  0  0  0  0
    7.2312   -2.4119   -0.7997 H   0  0  0  0  0  0  0  0  0  0  0  0
    6.7848   -4.3610    0.7050 H   0  0  0  0  0  0  0  0  0  0  0  0
    3.9412   -7.6959    2.6752 H   0  0  0  0  0  0  0  0  0  0  0  0
    4.6946   -0.4188   -2.3259 H   0  0  0  0  0  0  0  0  0  0  0  0
    2.4011   -1.5394   -2.1701 H   0  0  0  0  0  0  0  0  0  0  0  0
  1 14  2  0
  1  2  1  0
  1 18  1  0
  2  3  2  0
  2 19  1  0
  3  4  1  0
  4 13  2  0
  4  5  1  0
  5  6  2  0
  6 11  1  0
  6  7  1  0
  7 17  1  0
  7  8  2  0
  8  9  1  0
  8 15  1  0
  9 10  2  0
  9 20  1  0
 10 11  1  0
 10 21  1  0
 11 12  2  0
 12 13  1  0
 13 14  1  0
 14 22  1  0
 15 17  1  0
 15 16  1  0
 15 23  1  6
 16 17  1  0
 17 24  1  6
M  END
>  <i_m_ct_stereo_status>  (119) 
1

>  <s_m_source_file>  (119) 
/var/tmp/pbs.5076255.sched01/tmp7dv9smms/08akalw19.sdf

>  <i_m_source_file_index>  (119) 
45

>  <i_lp_mmshare_version>  (119) 
48012

>  <i_f3d_flags>  (119) 
0

>  <s_epik_input>  (119) 
bjFbY0hdW2NIXVtjSF1jKGMxMiluYzNjKG4yKWM0YyhbY0hdW2NIXTMpW0NIXTVbQ0hdNE81

>  <s_epik_cmdline>  (119) 
J2VwaWtfcHl0aG9uJywgJy1waHQnLCAnMi4wJywgJy1waCcsICc3LjAnLCAnLXRuJywgJzgnLCAnLW1hJywgJzIwMCcsICctaW1hZScsICc8aW5maWxlLm1hZT4nLCAnLW9tYWUnLCAnPG91dGZpbGUubWFlPic=

>  <r_lp_tautomer_probability>  (119) 
1

>  <r_epik_Ionization_Penalty>  (119) 
5.11992e-05

>  <r_epik_Ionization_Penalty_Charging>  (119) 
0

>  <r_epik_Ionization_Penalty_Neutral>  (119) 
5.11992e-05

>  <r_epik_State_Penalty>  (119) 
-0

>  <r_epik_Charging_Adjusted_Penalty>  (119) 
0

>  <i_epik_Tot_Q>  (119) 
0

>  <i_epik_Tot_abs_Q>  (119) 
0

>  <s_lp_Force_Field>  (119) 
OPLS3e

>  <r_lp_Energy>  (119) 
44.0279

>  <b_lp_Chiralities_Consistent>  (119) 
1

>  <s_lp_Variant>  (119) 
29:0-2

>  <s_i_glide_gridfile>  (119) 
pfpi4k_grid

>  <i_i_glide_lignum>  (119) 
45

>  <i_i_glide_rotatable_bonds>  (119) 
0

>  <r_i_docking_score>  (119) 
-4.0366

>  <r_i_glide_ligand_efficiency>  (119) 
-0.237447

>  <r_i_glide_ligand_efficiency_sa>  (119) 
-0.610543

>  <r_i_glide_ligand_efficiency_ln>  (119) 
-1.05306

>  <r_i_glide_gscore>  (119) 
-4.0366

>  <r_i_glide_lipo>  (119) 
-0.172884

>  <r_i_glide_hbond>  (119) 
-0.16

>  <r_i_glide_metal>  (119) 
-0

>  <r_i_glide_rewards>  (119) 
-1.90081

>  <r_i_glide_evdw>  (119) 
-20.7918

>  <r_i_glide_ecoul>  (119) 
-4.74917

>  <r_i_glide_erotb>  (119) 
0

>  <r_i_glide_esite>  (119) 
-0.0509353

>  <r_i_glide_emodel>  (119) 
-32.6635

>  <r_i_glide_energy>  (119) 
-25.541

>  <r_i_glide_einternal>  (119) 
0

>  <r_i_glide_intrahb_reward>  (119) 
-0

>  <i_i_glide_confnum>  (119) 
2

>  <i_i_glide_posenum>  (119) 
2

>  <r_i_glide_eff_state_penalty>  (119) 
0

>  <ligand_id>  (119) 
29

>  <original_smiles>  (119) 
c1cnc2nc3c4c(ccc3nc2c1)C1OC41

>  <smiles>  (119) 
[H]c1nc2nc3c4c(c([H])c([H])c3nc2c([H])c1[H])C1([H])OC41[H]

$$$$
29:1:2
     RDKit          3D

 24 28  0  0  1  0  0  0  0  0999 V2000
    3.9598   -4.3877   -0.1485 C   0  0  0  0  0  0  0  0  0  0  0  0
    4.9720   -5.2197    0.3509 C   0  0  0  0  0  0  0  0  0  0  0  0
    4.7077   -6.3296    1.0590 N   0  0  0  0  0  0  0  0  0  0  0  0
    3.4380   -6.6966    1.3305 C   0  0  0  0  0  0  0  0  0  0  0  0
    3.1882   -7.8108    2.0580 N   0  0  0  0  0  0  0  0  0  0  0  0
    1.9145   -8.1557    2.3352 C   0  0  0  0  0  0  0  0  0  0  0  0
    1.5616   -9.3130    3.0317 C   0  0  0  0  0  0  0  0  0  0  0  0
    0.1832   -9.7030    3.3155 C   0  0  0  0  0  0  0  0  0  0  0  0
   -0.9064   -8.9468    2.9210 C   0  0  0  0  0  0  0  0  0  0  0  0
   -0.5440   -7.7853    2.1573 C   0  0  0  0  0  0  0  0  0  0  0  0
    0.8011   -7.3905    1.8699 C   0  0  0  0  0  0  0  0  0  0  0  0
    1.0453   -6.2804    1.1195 N   0  0  0  0  0  0  0  0  0  0  0  0
    2.3284   -5.9247    0.8654 C   0  0  0  0  0  0  0  0  0  0  0  0
    2.6233   -4.7631    0.1077 C   0  0  0  0  0  0  0  0  0  0  0  0
    0.6230  -10.9747    3.9596 C   0  0  2  0  0  0  0  0  0  0  0  0
    1.5504  -11.8250    3.2770 O   0  0  0  0  0  0  0  0  0  0  0  0
    2.1004  -10.5523    3.6504 C   0  0  1  0  0  0  0  0  0  0  0  0
    4.1968   -3.5100   -0.7406 H   0  0  0  0  0  0  0  0  0  0  0  0
    6.0191   -5.0080    0.1862 H   0  0  0  0  0  0  0  0  0  0  0  0
   -1.9468   -9.2564    3.0801 H   0  0  0  0  0  0  0  0  0  0  0  0
   -1.3432   -7.2088    1.7295 H   0  0  0  0  0  0  0  0  0  0  0  0
    1.8290   -4.1533   -0.3005 H   0  0  0  0  0  0  0  0  0  0  0  0
    0.3235  -11.1325    4.9958 H   0  0  0  0  0  0  0  0  0  0  0  0
    2.7907  -10.4266    4.4884 H   0  0  0  0  0  0  0  0  0  0  0  0
  1 14  2  0
  1  2  1  0
  1 18  1  0
  2  3  2  0
  2 19  1  0
  3  4  1  0
  4 13  2  0
  4  5  1  0
  5  6  2  0
  6 11  1  0
  6  7  1  0
  7 17  1  0
  7  8  2  0
  8  9  1  0
  8 15  1  0
  9 10  2  0
  9 20  1  0
 10 11  1  0
 10 21  1  0
 11 12  2  0
 12 13  1  0
 13 14  1  0
 14 22  1  0
 15 17  1  0
 15 16  1  0
 15 23  1  1
 16 17  1  0
 17 24  1  1
M  END
>  <i_m_ct_stereo_status>  (120) 
1

>  <s_m_source_file>  (120) 
/var/tmp/pbs.5076255.sched01/tmp7dv9smms/08akalw19.sdf

>  <i_m_source_file_index>  (120) 
45

>  <i_lp_mmshare_version>  (120) 
48012

>  <i_f3d_flags>  (120) 
0

>  <s_epik_input>  (120) 
bjFbY0hdW2NIXVtjSF1jKGMxMiluYzNjKG4yKWM0YyhbY0hdW2NIXTMpW0NIXTVbQ0hdNE81

>  <s_epik_cmdline>  (120) 
J2VwaWtfcHl0aG9uJywgJy1waHQnLCAnMi4wJywgJy1waCcsICc3LjAnLCAnLXRuJywgJzgnLCAnLW1hJywgJzIwMCcsICctaW1hZScsICc8aW5maWxlLm1hZT4nLCAnLW9tYWUnLCAnPG91dGZpbGUubWFlPic=

>  <r_lp_tautomer_probability>  (120) 
1

>  <r_epik_Ionization_Penalty>  (120) 
5.11992e-05

>  <r_epik_Ionization_Penalty_Charging>  (120) 
0

>  <r_epik_Ionization_Penalty_Neutral>  (120) 
5.11992e-05

>  <r_epik_State_Penalty>  (120) 
-0

>  <r_epik_Charging_Adjusted_Penalty>  (120) 
0

>  <i_epik_Tot_Q>  (120) 
0

>  <i_epik_Tot_abs_Q>  (120) 
0

>  <s_lp_Force_Field>  (120) 
OPLS3e

>  <r_lp_Energy>  (120) 
44.0279

>  <b_lp_Chiralities_Consistent>  (120) 
1

>  <s_lp_Variant>  (120) 
29:0-2

>  <s_i_glide_gridfile>  (120) 
pfpi4k_grid

>  <i_i_glide_lignum>  (120) 
45

>  <i_i_glide_rotatable_bonds>  (120) 
0

>  <r_i_docking_score>  (120) 
-3.64213

>  <r_i_glide_ligand_efficiency>  (120) 
-0.214243

>  <r_i_glide_ligand_efficiency_sa>  (120) 
-0.550878

>  <r_i_glide_ligand_efficiency_ln>  (120) 
-0.95015

>  <r_i_glide_gscore>  (120) 
-3.64213

>  <r_i_glide_lipo>  (120) 
-0.104165

>  <r_i_glide_hbond>  (120) 
-0.16

>  <r_i_glide_metal>  (120) 
-0

>  <r_i_glide_rewards>  (120) 
-1.98636

>  <r_i_glide_evdw>  (120) 
-22.2162

>  <r_i_glide_ecoul>  (120) 
-1.87191

>  <r_i_glide_erotb>  (120) 
0

>  <r_i_glide_esite>  (120) 
0

>  <r_i_glide_emodel>  (120) 
-30.5449

>  <r_i_glide_energy>  (120) 
-24.0882

>  <r_i_glide_einternal>  (120) 
0

>  <r_i_glide_intrahb_reward>  (120) 
-0

>  <i_i_glide_confnum>  (120) 
1

>  <i_i_glide_posenum>  (120) 
29

>  <r_i_glide_eff_state_penalty>  (120) 
0

>  <ligand_id>  (120) 
29

>  <original_smiles>  (120) 
c1cnc2nc3c4c(ccc3nc2c1)C1OC41

>  <smiles>  (120) 
[H]c1nc2nc3c4c(c([H])c([H])c3nc2c([H])c1[H])C1([H])OC41[H]

$$$$
30:0:0
     RDKit          3D

 59 64  0  0  1  0  0  0  0  0999 V2000
    2.1053   -5.6161    7.9162 C   0  0  0  0  0  0  0  0  0  0  0  0
    1.6483   -4.6500    6.8087 C   0  0  2  0  0  0  0  0  0  0  0  0
    0.2455   -4.9406    6.2971 C   0  0  0  0  0  0  0  0  0  0  0  0
    0.2142   -4.2598    5.0576 O   0  0  0  0  0  0  0  0  0  0  0  0
    1.4738   -4.4258    4.4021 C   0  0  1  0  0  0  0  0  0  0  0  0
    1.6841   -3.1903    3.5015 C   0  0  0  0  0  0  0  0  0  0  0  0
    2.8886   -3.2482    2.5334 C   0  0  1  0  0  0  0  0  0  0  0  0
    2.6123   -2.3339    1.3127 C   0  0  0  0  0  0  0  0  0  0  0  0
    3.7873   -2.2005    0.3298 C   0  0  2  0  0  0  0  0  0  0  0  0
    3.9549   -3.4843   -0.2816 O   0  0  0  0  0  0  0  0  0  0  0  0
    5.2148   -3.7958   -0.8796 C   0  0  1  0  0  0  0  0  0  0  0  0
    5.6180   -2.7241   -1.9186 C   0  0  1  0  0  0  0  0  0  0  0  0
    4.6056   -2.5771   -3.0668 C   0  0  0  0  0  0  0  0  0  0  0  0
    5.8125   -1.4453   -1.3213 O   0  0  0  0  0  0  0  0  0  0  0  0
    6.2190   -1.3858    0.0242 C   0  0  2  0  0  0  0  0  0  0  0  0
    7.4626   -1.9807    0.2696 O   0  0  0  0  0  0  0  0  0  0  0  0
    7.5951   -3.3204    0.1363 C   0  0  0  0  0  0  0  0  0  0  0  0
    8.6886   -3.8812    0.0716 O   0  0  0  0  0  0  0  0  0  0  0  0
    6.3053   -4.1484    0.1803 C   0  0  1  0  0  0  0  0  0  0  0  0
    5.7774   -4.1385    1.6147 C   0  0  0  0  0  0  0  0  0  0  0  0
    5.3972   -2.7356    2.1677 C   0  0  2  0  0  0  0  0  0  0  0  0
    4.2394   -2.8810    3.2133 C   0  0  2  0  0  0  0  0  0  0  0  0
    4.6370   -3.8239    4.3722 C   0  0  0  0  0  0  0  0  0  0  0  0
    3.7185   -3.7623    5.6040 C   0  0  0  0  0  0  0  0  0  0  0  0
    2.4920   -4.6929    5.5324 C   0  0  1  0  0  0  0  0  0  0  0  0
    5.0485   -1.6863    1.0558 C   0  0  2  0  0  0  0  0  0  0  0  0
    4.7857   -0.2854    1.6699 C   0  0  0  0  0  0  0  0  0  0  0  0
    2.1190   -6.6508    7.5689 H   0  0  0  0  0  0  0  0  0  0  0  0
    1.4402   -5.5673    8.7785 H   0  0  0  0  0  0  0  0  0  0  0  0
    3.1094   -5.3682    8.2598 H   0  0  0  0  0  0  0  0  0  0  0  0
    1.6518   -3.6312    7.1984 H   0  0  0  0  0  0  0  0  0  0  0  0
    0.0844   -6.0081    6.1416 H   0  0  0  0  0  0  0  0  0  0  0  0
   -0.5302   -4.5681    6.9683 H   0  0  0  0  0  0  0  0  0  0  0  0
    1.4026   -5.3214    3.7838 H   0  0  0  0  0  0  0  0  0  0  0  0
    0.7812   -3.1142    2.8960 H   0  0  0  0  0  0  0  0  0  0  0  0
    1.7067   -2.2765    4.0974 H   0  0  0  0  0  0  0  0  0  0  0  0
    2.9398   -4.2679    2.1552 H   0  0  0  0  0  0  0  0  0  0  0  0
    1.7817   -2.7217    0.7403 H   0  0  0  0  0  0  0  0  0  0  0  0
    2.2976   -1.3456    1.6505 H   0  0  0  0  0  0  0  0  0  0  0  0
    3.4911   -1.4937   -0.4474 H   0  0  0  0  0  0  0  0  0  0  0  0
    5.0400   -4.7190   -1.4357 H   0  0  0  0  0  0  0  0  0  0  0  0
    6.5643   -3.0190   -2.3736 H   0  0  0  0  0  0  0  0  0  0  0  0
    4.4358   -3.5281   -3.5735 H   0  0  0  0  0  0  0  0  0  0  0  0
    4.9632   -1.8632   -3.8097 H   0  0  0  0  0  0  0  0  0  0  0  0
    3.6417   -2.2181   -2.7041 H   0  0  0  0  0  0  0  0  0  0  0  0
    6.4786   -0.3299    0.1109 H   0  0  0  0  0  0  0  0  0  0  0  0
    6.6170   -5.1706   -0.0280 H   0  0  0  0  0  0  0  0  0  0  0  0
    4.9467   -4.8383    1.6493 H   0  0  0  0  0  0  0  0  0  0  0  0
    6.5302   -4.5738    2.2732 H   0  0  0  0  0  0  0  0  0  0  0  0
    6.2518   -2.3261    2.6993 H   0  0  0  0  0  0  0  0  0  0  0  0
    4.1077   -1.9106    3.6909 H   0  0  0  0  0  0  0  0  0  0  0  0
    4.7360   -4.8555    4.0341 H   0  0  0  0  0  0  0  0  0  0  0  0
    5.6322   -3.5267    4.7058 H   0  0  0  0  0  0  0  0  0  0  0  0
    4.3074   -4.0762    6.4653 H   0  0  0  0  0  0  0  0  0  0  0  0
    3.4201   -2.7342    5.8148 H   0  0  0  0  0  0  0  0  0  0  0  0
    2.8535   -5.7153    5.3997 H   0  0  0  0  0  0  0  0  0  0  0  0
    5.6782    0.0811    2.1770 H   0  0  0  0  0  0  0  0  0  0  0  0
    3.9821   -0.2450    2.3972 H   0  0  0  0  0  0  0  0  0  0  0  0
    4.5239    0.4358    0.8911 H   0  0  0  0  0  0  0  0  0  0  0  0
  1  2  1  0
  1 28  1  0
  1 29  1  0
  1 30  1  0
  2 25  1  0
  2  3  1  0
  2 31  1  1
  3  4  1  0
  3 32  1  0
  3 33  1  0
  4  5  1  0
  5 25  1  0
  5  6  1  0
  5 34  1  6
  6  7  1  0
  6 35  1  0
  6 36  1  0
  7 22  1  0
  7  8  1  0
  7 37  1  6
  8  9  1  0
  8 38  1  0
  8 39  1  0
  9 26  1  0
  9 10  1  0
  9 40  1  6
 10 11  1  0
 11 19  1  0
 11 12  1  0
 11 41  1  6
 12 13  1  0
 12 14  1  0
 12 42  1  6
 13 43  1  0
 13 44  1  0
 13 45  1  0
 14 15  1  0
 15 26  1  0
 15 16  1  0
 15 46  1  1
 16 17  1  0
 17 18  2  0
 17 19  1  0
 19 20  1  0
 19 47  1  6
 20 21  1  0
 20 48  1  0
 20 49  1  0
 21 22  1  0
 21 26  1  0
 21 50  1  1
 22 23  1  0
 22 51  1  1
 23 24  1  0
 23 52  1  0
 23 53  1  0
 24 25  1  0
 24 54  1  0
 24 55  1  0
 25 56  1  6
 26 27  1  1
 27 57  1  0
 27 58  1  0
 27 59  1  0
M  END
>  <i_m_ct_stereo_status>  (121) 
1

>  <s_m_source_file>  (121) 
/var/tmp/pbs.5076255.sched01/tmp7dv9smms/08akalw19.sdf

>  <i_m_source_file_index>  (121) 
46

>  <i_lp_mmshare_version>  (121) 
48012

>  <i_f3d_flags>  (121) 
0

>  <s_epik_input>  (121) 
W0NIM11bQ0BASF0xW0NIMl1PW0NAQEhdKFtDSDJdMilbQ0BIXTFbQ0gyXVtDSDJdW0NASF0oW0NAQEhdMltDSDJdW0NASF0zW0NAXTQ1W0NIM10pW0NASF01W0NIMl1bQ0BIXTZbQ0BASF0oTzMpW0NAQEhdKFtDSDNdKU9bQ0BASF00T0M2PU8=

>  <s_epik_cmdline>  (121) 
J2VwaWtfcHl0aG9uJywgJy1waHQnLCAnMi4wJywgJy1waCcsICc3LjAnLCAnLXRuJywgJzgnLCAnLW1hJywgJzIwMCcsICctaW1hZScsICc8aW5maWxlLm1hZT4nLCAnLW9tYWUnLCAnPG91dGZpbGUubWFlPic=

>  <r_lp_tautomer_probability>  (121) 
1

>  <r_epik_Ionization_Penalty>  (121) 
8.41985e-11

>  <r_epik_Ionization_Penalty_Charging>  (121) 
0

>  <r_epik_Ionization_Penalty_Neutral>  (121) 
8.41985e-11

>  <r_epik_State_Penalty>  (121) 
-0

>  <r_epik_Charging_Adjusted_Penalty>  (121) 
0

>  <i_epik_Tot_Q>  (121) 
0

>  <i_epik_Tot_abs_Q>  (121) 
0

>  <s_epik_Chemistry_Notes>  (121) 
This compound has an ester and may undergo hydrolysis at high or low pH. This compound contains an acetal/aminal-like group ( X-CH(R)-Y where X, Y are N, S, or O) that may be acid/base labile, releasing an aldehyde.

>  <s_lp_Force_Field>  (121) 
OPLS3e

>  <r_lp_Energy>  (121) 
53.407

>  <b_lp_Chiralities_Consistent>  (121) 
1

>  <s_lp_Variant>  (121) 
30:0-1

>  <s_i_glide_gridfile>  (121) 
pfpi4k_grid

>  <i_i_glide_lignum>  (121) 
46

>  <i_i_glide_rotatable_bonds>  (121) 
0

>  <r_i_docking_score>  (121) 
-3.44308

>  <r_i_glide_ligand_efficiency>  (121) 
-0.127522

>  <r_i_glide_ligand_efficiency_sa>  (121) 
-0.382565

>  <r_i_glide_ligand_efficiency_ln>  (121) 
-0.801493

>  <r_i_glide_gscore>  (121) 
-3.44308

>  <r_i_glide_lipo>  (121) 
-0.617944

>  <r_i_glide_hbond>  (121) 
-0.0870897

>  <r_i_glide_metal>  (121) 
-0

>  <r_i_glide_rewards>  (121) 
-1.10277

>  <r_i_glide_evdw>  (121) 
-28.5549

>  <r_i_glide_ecoul>  (121) 
-1.29645

>  <r_i_glide_erotb>  (121) 
0

>  <r_i_glide_esite>  (121) 
-0.0130608

>  <r_i_glide_emodel>  (121) 
-36.4038

>  <r_i_glide_energy>  (121) 
-29.8514

>  <r_i_glide_einternal>  (121) 
0

>  <r_i_glide_intrahb_reward>  (121) 
-0

>  <i_i_glide_confnum>  (121) 
1

>  <i_i_glide_posenum>  (121) 
29

>  <r_i_glide_eff_state_penalty>  (121) 
0

>  <ligand_id>  (121) 
30

>  <original_smiles>  (121) 
CC1COC2CC3CC4OC5C(C)OC6OC(=O)C5CC(C3CCC12)C46C

>  <smiles>  (121) 
[H]C([H])([H])C1([H])OC2([H])OC(=O)C3([H])C([H])([H])C4([H])C5([H])C([H])([H])C([H])([H])C6([H])C([H])(OC([H])([H])C6([H])C([H])([H])[H])C([H])([H])C5([H])C([H])([H])C([H])(OC13[H])C24C([H])([H])[H]

$$$$
30:0:1
     RDKit          3D

 59 64  0  0  1  0  0  0  0  0999 V2000
   -1.7549   -9.0278    2.2806 C   0  0  0  0  0  0  0  0  0  0  0  0
   -0.6243   -8.5094    3.1767 C   0  0  2  0  0  0  0  0  0  0  0  0
   -1.1032   -8.1595    4.5699 C   0  0  0  0  0  0  0  0  0  0  0  0
   -0.0958   -7.3000    5.0626 O   0  0  0  0  0  0  0  0  0  0  0  0
    0.3464   -6.4546    4.0085 C   0  0  1  0  0  0  0  0  0  0  0  0
    1.8215   -6.1087    4.2817 C   0  0  0  0  0  0  0  0  0  0  0  0
    2.4381   -5.0189    3.3749 C   0  0  1  0  0  0  0  0  0  0  0  0
    3.5913   -4.3255    4.1367 C   0  0  0  0  0  0  0  0  0  0  0  0
    4.3907   -3.3174    3.2868 C   0  0  2  0  0  0  0  0  0  0  0  0
    3.5060   -2.2189    3.0356 O   0  0  0  0  0  0  0  0  0  0  0  0
    3.7874   -1.3569    1.9284 C   0  0  1  0  0  0  0  0  0  0  0  0
    5.2194   -0.7906    2.0315 C   0  0  1  0  0  0  0  0  0  0  0  0
    5.4518    0.0041    3.3245 C   0  0  0  0  0  0  0  0  0  0  0  0
    6.2107   -1.8071    1.9453 O   0  0  0  0  0  0  0  0  0  0  0  0
    5.9195   -2.9730    1.2176 C   0  0  2  0  0  0  0  0  0  0  0  0
    5.6467   -2.7559   -0.1367 O   0  0  0  0  0  0  0  0  0  0  0  0
    4.5337   -2.0771   -0.4855 C   0  0  0  0  0  0  0  0  0  0  0  0
    4.3771   -1.5938   -1.6062 O   0  0  0  0  0  0  0  0  0  0  0  0
    3.4150   -1.9956    0.5557 C   0  0  1  0  0  0  0  0  0  0  0  0
    2.7758   -3.3747    0.6926 C   0  0  0  0  0  0  0  0  0  0  0  0
    3.7309   -4.4983    1.1756 C   0  0  2  0  0  0  0  0  0  0  0  0
    2.9171   -5.5650    1.9946 C   0  0  2  0  0  0  0  0  0  0  0  0
    1.7933   -6.1820    1.1449 C   0  0  0  0  0  0  0  0  0  0  0  0
    1.1628   -7.4570    1.7161 C   0  0  0  0  0  0  0  0  0  0  0  0
    0.0095   -7.2090    2.7024 C   0  0  1  0  0  0  0  0  0  0  0  0
    4.9534   -3.9722    1.9995 C   0  0  2  0  0  0  0  0  0  0  0  0
    5.9092   -5.1418    2.3537 C   0  0  0  0  0  0  0  0  0  0  0  0
   -2.5629   -8.3016    2.1631 H   0  0  0  0  0  0  0  0  0  0  0  0
   -2.1872   -9.9201    2.7199 H   0  0  0  0  0  0  0  0  0  0  0  0
   -1.3906   -9.2762    1.2883 H   0  0  0  0  0  0  0  0  0  0  0  0
    0.1442   -9.2773    3.2703 H   0  0  0  0  0  0  0  0  0  0  0  0
   -2.0533   -7.6270    4.5332 H   0  0  0  0  0  0  0  0  0  0  0  0
   -1.2163   -9.0385    5.2056 H   0  0  0  0  0  0  0  0  0  0  0  0
   -0.2567   -5.5465    4.0599 H   0  0  0  0  0  0  0  0  0  0  0  0
    1.8451   -5.7387    5.3068 H   0  0  0  0  0  0  0  0  0  0  0  0
    2.4353   -7.0109    4.2836 H   0  0  0  0  0  0  0  0  0  0  0  0
    1.6690   -4.2643    3.2230 H   0  0  0  0  0  0  0  0  0  0  0  0
    3.1874   -3.8041    5.0036 H   0  0  0  0  0  0  0  0  0  0  0  0
    4.2689   -5.0751    4.5417 H   0  0  0  0  0  0  0  0  0  0  0  0
    5.2129   -2.9460    3.9004 H   0  0  0  0  0  0  0  0  0  0  0  0
    3.1075   -0.5127    2.0460 H   0  0  0  0  0  0  0  0  0  0  0  0
    5.3797   -0.1069    1.1990 H   0  0  0  0  0  0  0  0  0  0  0  0
    4.7294    0.8154    3.4317 H   0  0  0  0  0  0  0  0  0  0  0  0
    6.4482    0.4481    3.3217 H   0  0  0  0  0  0  0  0  0  0  0  0
    5.3795   -0.6240    4.2123 H   0  0  0  0  0  0  0  0  0  0  0  0
    6.9098   -3.4241    1.1627 H   0  0  0  0  0  0  0  0  0  0  0  0
    2.6653   -1.3410    0.1151 H   0  0  0  0  0  0  0  0  0  0  0  0
    1.9186   -3.2537    1.3468 H   0  0  0  0  0  0  0  0  0  0  0  0
    2.3634   -3.6667   -0.2723 H   0  0  0  0  0  0  0  0  0  0  0  0
    4.1411   -4.9900    0.2903 H   0  0  0  0  0  0  0  0  0  0  0  0
    3.5790   -6.4062    2.1894 H   0  0  0  0  0  0  0  0  0  0  0  0
    1.0118   -5.4599    0.9398 H   0  0  0  0  0  0  0  0  0  0  0  0
    2.2229   -6.4213    0.1767 H   0  0  0  0  0  0  0  0  0  0  0  0
    0.7369   -8.0029    0.8786 H   0  0  0  0  0  0  0  0  0  0  0  0
    1.9192   -8.1122    2.1466 H   0  0  0  0  0  0  0  0  0  0  0  0
   -0.7673   -6.6518    2.1845 H   0  0  0  0  0  0  0  0  0  0  0  0
    6.3113   -5.5983    1.4488 H   0  0  0  0  0  0  0  0  0  0  0  0
    5.4619   -5.9366    2.9464 H   0  0  0  0  0  0  0  0  0  0  0  0
    6.7508   -4.7747    2.9385 H   0  0  0  0  0  0  0  0  0  0  0  0
  1  2  1  0
  1 28  1  0
  1 29  1  0
  1 30  1  0
  2 25  1  0
  2  3  1  0
  2 31  1  1
  3  4  1  0
  3 32  1  0
  3 33  1  0
  4  5  1  0
  5 25  1  0
  5  6  1  0
  5 34  1  6
  6  7  1  0
  6 35  1  0
  6 36  1  0
  7 22  1  0
  7  8  1  0
  7 37  1  6
  8  9  1  0
  8 38  1  0
  8 39  1  0
  9 26  1  0
  9 10  1  0
  9 40  1  1
 10 11  1  0
 11 19  1  0
 11 12  1  0
 11 41  1  1
 12 13  1  0
 12 14  1  0
 12 42  1  6
 13 43  1  0
 13 44  1  0
 13 45  1  0
 14 15  1  0
 15 26  1  0
 15 16  1  0
 15 46  1  6
 16 17  1  0
 17 18  2  0
 17 19  1  0
 19 20  1  0
 19 47  1  6
 20 21  1  0
 20 48  1  0
 20 49  1  0
 21 22  1  0
 21 26  1  0
 21 50  1  6
 22 23  1  0
 22 51  1  1
 23 24  1  0
 23 52  1  0
 23 53  1  0
 24 25  1  0
 24 54  1  0
 24 55  1  0
 25 56  1  6
 26 27  1  1
 27 57  1  0
 27 58  1  0
 27 59  1  0
M  END
>  <i_m_ct_stereo_status>  (122) 
1

>  <s_m_source_file>  (122) 
/var/tmp/pbs.5076255.sched01/tmp7dv9smms/08akalw19.sdf

>  <i_m_source_file_index>  (122) 
46

>  <i_lp_mmshare_version>  (122) 
48012

>  <i_f3d_flags>  (122) 
0

>  <s_epik_input>  (122) 
W0NIM11bQ0BASF0xW0NIMl1PW0NAQEhdKFtDSDJdMilbQ0BIXTFbQ0gyXVtDSDJdW0NASF0oW0NAQEhdMltDSDJdW0NASF0zW0NAXTQ1W0NIM10pW0NASF01W0NIMl1bQ0BIXTZbQ0BASF0oTzMpW0NAQEhdKFtDSDNdKU9bQ0BASF00T0M2PU8=

>  <s_epik_cmdline>  (122) 
J2VwaWtfcHl0aG9uJywgJy1waHQnLCAnMi4wJywgJy1waCcsICc3LjAnLCAnLXRuJywgJzgnLCAnLW1hJywgJzIwMCcsICctaW1hZScsICc8aW5maWxlLm1hZT4nLCAnLW9tYWUnLCAnPG91dGZpbGUubWFlPic=

>  <r_lp_tautomer_probability>  (122) 
1

>  <r_epik_Ionization_Penalty>  (122) 
8.41985e-11

>  <r_epik_Ionization_Penalty_Charging>  (122) 
0

>  <r_epik_Ionization_Penalty_Neutral>  (122) 
8.41985e-11

>  <r_epik_State_Penalty>  (122) 
-0

>  <r_epik_Charging_Adjusted_Penalty>  (122) 
0

>  <i_epik_Tot_Q>  (122) 
0

>  <i_epik_Tot_abs_Q>  (122) 
0

>  <s_epik_Chemistry_Notes>  (122) 
This compound has an ester and may undergo hydrolysis at high or low pH. This compound contains an acetal/aminal-like group ( X-CH(R)-Y where X, Y are N, S, or O) that may be acid/base labile, releasing an aldehyde.

>  <s_lp_Force_Field>  (122) 
OPLS3e

>  <r_lp_Energy>  (122) 
53.407

>  <b_lp_Chiralities_Consistent>  (122) 
1

>  <s_lp_Variant>  (122) 
30:0-1

>  <s_i_glide_gridfile>  (122) 
pfpi4k_grid

>  <i_i_glide_lignum>  (122) 
46

>  <i_i_glide_rotatable_bonds>  (122) 
0

>  <r_i_docking_score>  (122) 
-2.95438

>  <r_i_glide_ligand_efficiency>  (122) 
-0.109421

>  <r_i_glide_ligand_efficiency_sa>  (122) 
-0.328264

>  <r_i_glide_ligand_efficiency_ln>  (122) 
-0.68773

>  <r_i_glide_gscore>  (122) 
-2.95438

>  <r_i_glide_lipo>  (122) 
-0.562918

>  <r_i_glide_hbond>  (122) 
0

>  <r_i_glide_metal>  (122) 
-0

>  <r_i_glide_rewards>  (122) 
-0.961085

>  <r_i_glide_evdw>  (122) 
-26.9454

>  <r_i_glide_ecoul>  (122) 
-0.41451

>  <r_i_glide_erotb>  (122) 
0

>  <r_i_glide_esite>  (122) 
-0.020926

>  <r_i_glide_emodel>  (122) 
-32.9536

>  <r_i_glide_energy>  (122) 
-27.3599

>  <r_i_glide_einternal>  (122) 
0

>  <r_i_glide_intrahb_reward>  (122) 
-0

>  <i_i_glide_confnum>  (122) 
2

>  <i_i_glide_posenum>  (122) 
16

>  <r_i_glide_eff_state_penalty>  (122) 
0

>  <ligand_id>  (122) 
30

>  <original_smiles>  (122) 
CC1COC2CC3CC4OC5C(C)OC6OC(=O)C5CC(C3CCC12)C46C

>  <smiles>  (122) 
[H]C([H])([H])C1([H])OC2([H])OC(=O)C3([H])C([H])([H])C4([H])C5([H])C([H])([H])C([H])([H])C6([H])C([H])(OC([H])([H])C6([H])C([H])([H])[H])C([H])([H])C5([H])C([H])([H])C([H])(OC13[H])C24C([H])([H])[H]

$$$$
30:0:2
     RDKit          3D

 59 64  0  0  1  0  0  0  0  0999 V2000
    4.7334  -10.7110    4.1908 C   0  0  0  0  0  0  0  0  0  0  0  0
    3.6965   -9.7019    3.6670 C   0  0  2  0  0  0  0  0  0  0  0  0
    2.6325  -10.3354    2.7837 C   0  0  0  0  0  0  0  0  0  0  0  0
    2.0982   -9.2230    2.0916 O   0  0  0  0  0  0  0  0  0  0  0  0
    3.1568   -8.3376    1.7400 C   0  0  1  0  0  0  0  0  0  0  0  0
    2.5499   -6.9210    1.6649 C   0  0  0  0  0  0  0  0  0  0  0  0
    3.4734   -5.8135    1.1015 C   0  0  1  0  0  0  0  0  0  0  0  0
    2.6031   -4.6976    0.4796 C   0  0  0  0  0  0  0  0  0  0  0  0
    3.3810   -3.4526    0.0112 C   0  0  2  0  0  0  0  0  0  0  0  0
    4.1563   -3.8672   -1.1161 O   0  0  0  0  0  0  0  0  0  0  0  0
    5.3010   -3.1000   -1.4814 C   0  0  1  0  0  0  0  0  0  0  0  0
    4.9195   -1.6201   -1.7048 C   0  0  1  0  0  0  0  0  0  0  0  0
    3.8720   -1.4173   -2.8130 C   0  0  0  0  0  0  0  0  0  0  0  0
    4.4376   -1.0081   -0.5152 O   0  0  0  0  0  0  0  0  0  0  0  0
    4.8996   -1.4795    0.7248 C   0  0  2  0  0  0  0  0  0  0  0  0
    6.2808   -1.3734    0.9071 O   0  0  0  0  0  0  0  0  0  0  0  0
    7.1080   -2.1262    0.1566 C   0  0  0  0  0  0  0  0  0  0  0  0
    8.3097   -1.8921    0.0649 O   0  0  0  0  0  0  0  0  0  0  0  0
    6.5111   -3.3545   -0.5315 C   0  0  1  0  0  0  0  0  0  0  0  0
    6.2357   -4.4066    0.5412 C   0  0  0  0  0  0  0  0  0  0  0  0
    5.2228   -3.9706    1.6352 C   0  0  2  0  0  0  0  0  0  0  0  0
    4.4596   -5.2372    2.1624 C   0  0  2  0  0  0  0  0  0  0  0  0
    5.4384   -6.2883    2.7332 C   0  0  0  0  0  0  0  0  0  0  0  0
    4.7839   -7.3934    3.5789 C   0  0  0  0  0  0  0  0  0  0  0  0
    4.2744   -8.6027    2.7718 C   0  0  1  0  0  0  0  0  0  0  0  0
    4.2215   -2.8536    1.1648 C   0  0  2  0  0  0  0  0  0  0  0  0
    3.3000   -2.3978    2.3304 C   0  0  0  0  0  0  0  0  0  0  0  0
    5.2716  -11.1992    3.3758 H   0  0  0  0  0  0  0  0  0  0  0  0
    4.2535  -11.4927    4.7806 H   0  0  0  0  0  0  0  0  0  0  0  0
    5.4689  -10.2208    4.8292 H   0  0  0  0  0  0  0  0  0  0  0  0
    3.1871   -9.2395    4.5128 H   0  0  0  0  0  0  0  0  0  0  0  0
    3.0663  -11.0393    2.0797 H   0  0  0  0  0  0  0  0  0  0  0  0
    1.8633  -10.8535    3.3577 H   0  0  0  0  0  0  0  0  0  0  0  0
    3.5222   -8.6361    0.7564 H   0  0  0  0  0  0  0  0  0  0  0  0
    1.6937   -7.0130    0.9954 H   0  0  0  0  0  0  0  0  0  0  0  0
    2.1313   -6.6300    2.6290 H   0  0  0  0  0  0  0  0  0  0  0  0
    4.0323   -6.2584    0.2800 H   0  0  0  0  0  0  0  0  0  0  0  0
    2.0495   -5.0966   -0.3694 H   0  0  0  0  0  0  0  0  0  0  0  0
    1.8461   -4.3923    1.2000 H   0  0  0  0  0  0  0  0  0  0  0  0
    2.6563   -2.7138   -0.3375 H   0  0  0  0  0  0  0  0  0  0  0  0
    5.6065   -3.4979   -2.4523 H   0  0  0  0  0  0  0  0  0  0  0  0
    5.8118   -1.0750   -2.0120 H   0  0  0  0  0  0  0  0  0  0  0  0
    4.1958   -1.8556   -3.7573 H   0  0  0  0  0  0  0  0  0  0  0  0
    3.6915   -0.3549   -2.9842 H   0  0  0  0  0  0  0  0  0  0  0  0
    2.9170   -1.8711   -2.5451 H   0  0  0  0  0  0  0  0  0  0  0  0
    4.5443   -0.6878    1.3850 H   0  0  0  0  0  0  0  0  0  0  0  0
    7.3136   -3.7425   -1.1576 H   0  0  0  0  0  0  0  0  0  0  0  0
    5.9344   -5.3160    0.0297 H   0  0  0  0  0  0  0  0  0  0  0  0
    7.1738   -4.6678    1.0333 H   0  0  0  0  0  0  0  0  0  0  0  0
    5.7893   -3.5487    2.4677 H   0  0  0  0  0  0  0  0  0  0  0  0
    3.8678   -4.9262    3.0223 H   0  0  0  0  0  0  0  0  0  0  0  0
    6.0481   -6.7348    1.9479 H   0  0  0  0  0  0  0  0  0  0  0  0
    6.1353   -5.7613    3.3857 H   0  0  0  0  0  0  0  0  0  0  0  0
    5.5416   -7.7672    4.2666 H   0  0  0  0  0  0  0  0  0  0  0  0
    3.9948   -6.9840    4.2107 H   0  0  0  0  0  0  0  0  0  0  0  0
    5.1188   -9.0213    2.2205 H   0  0  0  0  0  0  0  0  0  0  0  0
    3.8903   -1.9652    3.1392 H   0  0  0  0  0  0  0  0  0  0  0  0
    2.6985   -3.1871    2.7710 H   0  0  0  0  0  0  0  0  0  0  0  0
    2.5962   -1.6338    1.9887 H   0  0  0  0  0  0  0  0  0  0  0  0
  1  2  1  0
  1 28  1  0
  1 29  1  0
  1 30  1  0
  2 25  1  0
  2  3  1  0
  2 31  1  1
  3  4  1  0
  3 32  1  0
  3 33  1  0
  4  5  1  0
  5 25  1  0
  5  6  1  0
  5 34  1  6
  6  7  1  0
  6 35  1  0
  6 36  1  0
  7 22  1  0
  7  8  1  0
  7 37  1  6
  8  9  1  0
  8 38  1  0
  8 39  1  0
  9 26  1  0
  9 10  1  0
  9 40  1  6
 10 11  1  0
 11 19  1  0
 11 12  1  0
 11 41  1  6
 12 13  1  0
 12 14  1  0
 12 42  1  6
 13 43  1  0
 13 44  1  0
 13 45  1  0
 14 15  1  0
 15 26  1  0
 15 16  1  0
 15 46  1  1
 16 17  1  0
 17 18  2  0
 17 19  1  0
 19 20  1  0
 19 47  1  6
 20 21  1  0
 20 48  1  0
 20 49  1  0
 21 22  1  0
 21 26  1  0
 21 50  1  1
 22 23  1  0
 22 51  1  1
 23 24  1  0
 23 52  1  0
 23 53  1  0
 24 25  1  0
 24 54  1  0
 24 55  1  0
 25 56  1  6
 26 27  1  1
 27 57  1  0
 27 58  1  0
 27 59  1  0
M  END
>  <i_m_ct_stereo_status>  (123) 
1

>  <s_m_source_file>  (123) 
/var/tmp/pbs.5076255.sched01/tmp7dv9smms/08akalw19.sdf

>  <i_m_source_file_index>  (123) 
46

>  <i_lp_mmshare_version>  (123) 
48012

>  <i_f3d_flags>  (123) 
0

>  <s_epik_input>  (123) 
W0NIM11bQ0BASF0xW0NIMl1PW0NAQEhdKFtDSDJdMilbQ0BIXTFbQ0gyXVtDSDJdW0NASF0oW0NAQEhdMltDSDJdW0NASF0zW0NAXTQ1W0NIM10pW0NASF01W0NIMl1bQ0BIXTZbQ0BASF0oTzMpW0NAQEhdKFtDSDNdKU9bQ0BASF00T0M2PU8=

>  <s_epik_cmdline>  (123) 
J2VwaWtfcHl0aG9uJywgJy1waHQnLCAnMi4wJywgJy1waCcsICc3LjAnLCAnLXRuJywgJzgnLCAnLW1hJywgJzIwMCcsICctaW1hZScsICc8aW5maWxlLm1hZT4nLCAnLW9tYWUnLCAnPG91dGZpbGUubWFlPic=

>  <r_lp_tautomer_probability>  (123) 
1

>  <r_epik_Ionization_Penalty>  (123) 
8.41985e-11

>  <r_epik_Ionization_Penalty_Charging>  (123) 
0

>  <r_epik_Ionization_Penalty_Neutral>  (123) 
8.41985e-11

>  <r_epik_State_Penalty>  (123) 
-0

>  <r_epik_Charging_Adjusted_Penalty>  (123) 
0

>  <i_epik_Tot_Q>  (123) 
0

>  <i_epik_Tot_abs_Q>  (123) 
0

>  <s_epik_Chemistry_Notes>  (123) 
This compound has an ester and may undergo hydrolysis at high or low pH. This compound contains an acetal/aminal-like group ( X-CH(R)-Y where X, Y are N, S, or O) that may be acid/base labile, releasing an aldehyde.

>  <s_lp_Force_Field>  (123) 
OPLS3e

>  <r_lp_Energy>  (123) 
53.407

>  <b_lp_Chiralities_Consistent>  (123) 
1

>  <s_lp_Variant>  (123) 
30:0-1

>  <s_i_glide_gridfile>  (123) 
pfpi4k_grid

>  <i_i_glide_lignum>  (123) 
46

>  <i_i_glide_rotatable_bonds>  (123) 
0

>  <r_i_docking_score>  (123) 
-2.69532

>  <r_i_glide_ligand_efficiency>  (123) 
-0.0998266

>  <r_i_glide_ligand_efficiency_sa>  (123) 
-0.29948

>  <r_i_glide_ligand_efficiency_ln>  (123) 
-0.627426

>  <r_i_glide_gscore>  (123) 
-2.69532

>  <r_i_glide_lipo>  (123) 
-0.360817

>  <r_i_glide_hbond>  (123) 
-0.0550562

>  <r_i_glide_metal>  (123) 
-0

>  <r_i_glide_rewards>  (123) 
-0.898305

>  <r_i_glide_evdw>  (123) 
-32.7998

>  <r_i_glide_ecoul>  (123) 
1.73411

>  <r_i_glide_erotb>  (123) 
0

>  <r_i_glide_esite>  (123) 
-0.00126644

>  <r_i_glide_emodel>  (123) 
-36.175

>  <r_i_glide_energy>  (123) 
-31.0657

>  <r_i_glide_einternal>  (123) 
0

>  <r_i_glide_intrahb_reward>  (123) 
-0

>  <i_i_glide_confnum>  (123) 
1

>  <i_i_glide_posenum>  (123) 
17

>  <r_i_glide_eff_state_penalty>  (123) 
0

>  <ligand_id>  (123) 
30

>  <original_smiles>  (123) 
CC1COC2CC3CC4OC5C(C)OC6OC(=O)C5CC(C3CCC12)C46C

>  <smiles>  (123) 
[H]C([H])([H])C1([H])OC2([H])OC(=O)C3([H])C([H])([H])C4([H])C5([H])C([H])([H])C([H])([H])C6([H])C([H])(OC([H])([H])C6([H])C([H])([H])[H])C([H])([H])C5([H])C([H])([H])C([H])(OC13[H])C24C([H])([H])[H]

$$$$
31:0:0
     RDKit          3D

 60 64  0  0  1  0  0  0  0  0999 V2000
    0.2579   -2.6030    4.9623 C   0  0  0  0  0  0  0  0  0  0  0  0
    1.4556   -3.4120    5.5354 C   0  0  1  0  0  0  0  0  0  0  0  0
    0.8368   -4.7218    6.0737 C   0  0  0  0  0  0  0  0  0  0  0  0
    0.7384   -5.6420    4.8471 C   0  0  0  0  0  0  0  0  0  0  0  0
    1.6943   -5.0549    3.8163 C   0  0  0  0  0  0  0  0  0  0  0  0
    1.6935   -5.4345    2.5386 C   0  0  0  0  0  0  0  0  0  0  0  0
    2.5952   -4.9780    1.4185 C   0  0  0  0  0  0  0  0  0  0  0  0
    2.8562   -3.4568    1.2450 C   0  0  2  0  0  0  0  0  0  0  0  0
    3.9695   -3.2500    0.2159 C   0  0  1  0  0  0  0  0  0  0  0  0
    3.9466   -3.5611   -1.2869 C   0  0  1  0  0  0  0  0  0  0  0  0
    2.6092   -3.2781   -2.0107 C   0  0  0  0  0  0  0  0  0  0  0  0
    2.6293   -2.6090   -3.0742 O   0  0  0  0  0  0  0  0  0  0  0  0
    1.5857   -3.8188   -1.5303 O   0  0  0  0  0  0  0  0  0  0  0  0
    5.0727   -2.5951   -1.6902 C   0  0  0  0  0  0  0  0  0  0  0  0
    5.7500   -2.7095   -2.7120 O   0  0  0  0  0  0  0  0  0  0  0  0
    5.2524   -1.6870   -0.7054 O   0  0  0  0  0  0  0  0  0  0  0  0
    4.2130   -1.7768    0.2549 C   0  0  2  0  0  0  0  0  0  0  0  0
    4.4004   -1.5803    1.7578 C   0  0  1  0  0  0  0  0  0  0  0  0
    4.3248   -0.1955    2.0378 O   0  0  0  0  0  0  0  0  0  0  0  0
    3.2368   -2.4442    2.4287 C   0  0  1  0  0  0  0  0  0  0  0  0
    2.0072   -1.5107    2.5361 C   0  0  0  0  0  0  0  0  0  0  0  0
    3.6443   -3.1056    3.8545 C   0  0  2  0  0  0  0  0  0  0  0  0
    4.8694   -4.0454    3.5608 C   0  0  0  0  0  0  0  0  0  0  0  0
    2.5038   -3.9940    4.5340 C   0  0  1  0  0  0  0  0  0  0  0  0
    4.1502   -2.1172    5.0432 C   0  0  1  0  0  0  0  0  0  0  0  0
    5.1881   -2.7489    6.0154 C   0  0  0  0  0  0  0  0  0  0  0  0
    4.8780   -1.0036    4.5884 O   0  0  0  0  0  0  0  0  0  0  0  0
    3.0425   -1.5147    5.9517 C   0  0  0  0  0  0  0  0  0  0  0  0
    2.1596   -2.5871    6.6085 C   0  0  0  0  0  0  0  0  0  0  0  0
   -0.5351   -2.5168    5.7070 H   0  0  0  0  0  0  0  0  0  0  0  0
   -0.1861   -3.0831    4.0913 H   0  0  0  0  0  0  0  0  0  0  0  0
    0.5113   -1.5799    4.7012 H   0  0  0  0  0  0  0  0  0  0  0  0
    1.5050   -5.1758    6.8062 H   0  0  0  0  0  0  0  0  0  0  0  0
   -0.1231   -4.5863    6.5712 H   0  0  0  0  0  0  0  0  0  0  0  0
    1.0221   -6.6647    5.1039 H   0  0  0  0  0  0  0  0  0  0  0  0
   -0.2728   -5.6600    4.4460 H   0  0  0  0  0  0  0  0  0  0  0  0
    1.0078   -6.2181    2.2573 H   0  0  0  0  0  0  0  0  0  0  0  0
    3.4910   -5.5924    1.4266 H   0  0  0  0  0  0  0  0  0  0  0  0
    2.0927   -5.3096    0.5125 H   0  0  0  0  0  0  0  0  0  0  0  0
    1.9464   -3.0652    0.7894 H   0  0  0  0  0  0  0  0  0  0  0  0
    4.8405   -3.7865    0.5979 H   0  0  0  0  0  0  0  0  0  0  0  0
    4.2469   -4.5852   -1.4997 H   0  0  0  0  0  0  0  0  0  0  0  0
    3.3395   -1.2288   -0.1105 H   0  0  0  0  0  0  0  0  0  0  0  0
    5.3942   -1.9292    2.0291 H   0  0  0  0  0  0  0  0  0  0  0  0
    3.5482    0.1461    1.6107 H   0  0  0  0  0  0  0  0  0  0  0  0
    2.0932   -0.7929    3.3432 H   0  0  0  0  0  0  0  0  0  0  0  0
    1.0916   -2.0814    2.6341 H   0  0  0  0  0  0  0  0  0  0  0  0
    1.8583   -0.9262    1.6281 H   0  0  0  0  0  0  0  0  0  0  0  0
    5.0830   -4.7443    4.3698 H   0  0  0  0  0  0  0  0  0  0  0  0
    5.7858   -3.4815    3.4075 H   0  0  0  0  0  0  0  0  0  0  0  0
    4.7784   -4.6679    2.6862 H   0  0  0  0  0  0  0  0  0  0  0  0
    3.1045   -4.6282    5.1843 H   0  0  0  0  0  0  0  0  0  0  0  0
    4.8415   -3.6857    6.4473 H   0  0  0  0  0  0  0  0  0  0  0  0
    5.4096   -2.0800    6.8450 H   0  0  0  0  0  0  0  0  0  0  0  0
    6.1502   -2.9389    5.5425 H   0  0  0  0  0  0  0  0  0  0  0  0
    4.3704   -0.5388    3.9244 H   0  0  0  0  0  0  0  0  0  0  0  0
    3.5004   -0.9255    6.7472 H   0  0  0  0  0  0  0  0  0  0  0  0
    2.4304   -0.7895    5.4240 H   0  0  0  0  0  0  0  0  0  0  0  0
    1.4266   -2.1225    7.2681 H   0  0  0  0  0  0  0  0  0  0  0  0
    2.7664   -3.2383    7.2427 H   0  0  0  0  0  0  0  0  0  0  0  0
  2  1  1  6
  1 30  1  0
  1 31  1  0
  1 32  1  0
  2 24  1  0
  2 29  1  0
  2  3  1  0
  3  4  1  0
  3 33  1  0
  3 34  1  0
  4  5  1  0
  4 35  1  0
  4 36  1  0
  5 24  1  0
  5  6  2  0
  6  7  1  0
  6 37  1  0
  7  8  1  0
  7 38  1  0
  7 39  1  0
  8 20  1  0
  8  9  1  0
  8 40  1  6
  9 17  1  0
  9 10  1  0
  9 41  1  1
 10 11  1  0
 10 14  1  0
 10 42  1  1
 11 12  2  0
 11 13  1  0
 14 15  2  0
 14 16  1  0
 16 17  1  0
 17 18  1  0
 17 43  1  6
 18 19  1  0
 18 20  1  0
 18 44  1  1
 19 45  1  0
 20 21  1  1
 20 22  1  0
 21 46  1  0
 21 47  1  0
 21 48  1  0
 22 23  1  6
 22 24  1  0
 22 25  1  0
 23 49  1  0
 23 50  1  0
 23 51  1  0
 24 52  1  1
 25 26  1  0
 25 27  1  6
 25 28  1  0
 26 53  1  0
 26 54  1  0
 26 55  1  0
 27 56  1  0
 28 29  1  0
 28 57  1  0
 28 58  1  0
 29 59  1  0
 29 60  1  0
M  CHG  1  13  -1
M  END
>  <i_m_ct_stereo_status>  (124) 
1

>  <s_m_source_file>  (124) 
/var/tmp/pbs.5076255.sched01/tmpqwfmwtcs/46j3o47u_k.sdf

>  <i_m_source_file_index>  (124) 
1

>  <i_lp_mmshare_version>  (124) 
48012

>  <i_f3d_flags>  (124) 
0

>  <s_epik_input>  (124) 
W0NIM11bQ0BdMTJbQ0BIXTNDKFtDSDJdW0NIMl0xKT1bQ0hdW0NIMl1bQ0BASF00W0NAQEhdNVtDQEhdKE9DKD1PKVtDQEBIXTVDKD1PKVtPSF0pW0NAQEhdKFtPSF0pW0NAXTQoW0NIM10pW0NAQF0zKFtDSDNdKVtDQEBdKFtDSDNdKShbT0hdKVtDSDJdW0NIMl0y

>  <s_epik_cmdline>  (124) 
J2VwaWtfcHl0aG9uJywgJy1waHQnLCAnMi4wJywgJy1waCcsICc3LjAnLCAnLXRuJywgJzgnLCAnLW1hJywgJzIwMCcsICctaW1hZScsICc8aW5maWxlLm1hZT4nLCAnLW9tYWUnLCAnPG91dGZpbGUubWFlPic=

>  <r_lp_tautomer_probability>  (124) 
1

>  <r_epik_Ionization_Penalty>  (124) 
0.000180663

>  <r_epik_Ionization_Penalty_Charging>  (124) 
0.000179281

>  <r_epik_Ionization_Penalty_Neutral>  (124) 
1.38194e-06

>  <r_epik_State_Penalty>  (124) 
-0

>  <r_epik_Charging_Adjusted_Penalty>  (124) 
0.000179281

>  <i_epik_Tot_Q>  (124) 
-1

>  <i_epik_Tot_abs_Q>  (124) 
1

>  <s_epik_Chemistry_Notes>  (124) 
This compound has an ester and may undergo hydrolysis at high or low pH.

>  <s_lp_Force_Field>  (124) 
OPLS3e

>  <r_lp_Energy>  (124) 
90.5902

>  <b_lp_Chiralities_Consistent>  (124) 
1

>  <s_lp_Variant>  (124) 
31:0-1

>  <s_i_glide_gridfile>  (124) 
pfpi4k_grid

>  <i_i_glide_lignum>  (124) 
1

>  <i_i_glide_rotatable_bonds>  (124) 
3

>  <r_i_docking_score>  (124) 
-2.62436

>  <r_i_glide_ligand_efficiency>  (124) 
-0.0904953

>  <r_i_glide_ligand_efficiency_sa>  (124) 
-0.27803

>  <r_i_glide_ligand_efficiency_ln>  (124) 
-0.600913

>  <r_i_glide_gscore>  (124) 
-2.62436

>  <r_i_glide_lipo>  (124) 
-0.0668612

>  <r_i_glide_hbond>  (124) 
-0.0037814

>  <r_i_glide_metal>  (124) 
-0

>  <r_i_glide_rewards>  (124) 
-1.29201

>  <r_i_glide_evdw>  (124) 
-24.0166

>  <r_i_glide_ecoul>  (124) 
-0.364458

>  <r_i_glide_erotb>  (124) 
0

>  <r_i_glide_esite>  (124) 
-0.00621654

>  <r_i_glide_emodel>  (124) 
-33.4254

>  <r_i_glide_energy>  (124) 
-24.3811

>  <r_i_glide_einternal>  (124) 
0.108905

>  <r_i_glide_intrahb_reward>  (124) 
-0.5

>  <i_i_glide_confnum>  (124) 
2

>  <i_i_glide_posenum>  (124) 
15

>  <r_i_glide_eff_state_penalty>  (124) 
0

>  <ligand_id>  (124) 
31

>  <original_smiles>  (124) 
CC12CCC3=CCC4C5C(C(=O)O)C(=O)OC5C(O)C4(C)C(C)(C31)C(C)(O)CC2

>  <smiles>  (124) 
[H]OC1([H])C2([H])OC(=O)C([H])(C(=O)[O-])C2([H])C2([H])C([H])([H])C([H])=C3C([H])([H])C([H])([H])C4(C([H])([H])[H])C([H])([H])C([H])([H])C(O[H])(C([H])([H])[H])C(C([H])([H])[H])(C34[H])C12C([H])([H])[H]

$$$$
31:0:1
     RDKit          3D

 60 64  0  0  1  0  0  0  0  0999 V2000
    0.1890   -2.7203    5.0680 C   0  0  0  0  0  0  0  0  0  0  0  0
    1.4874   -3.3614    5.6247 C   0  0  1  0  0  0  0  0  0  0  0  0
    1.0478   -4.7231    6.2057 C   0  0  0  0  0  0  0  0  0  0  0  0
    1.0355   -5.6782    5.0002 C   0  0  0  0  0  0  0  0  0  0  0  0
    1.8825   -5.0022    3.9330 C   0  0  0  0  0  0  0  0  0  0  0  0
    1.8913   -5.4060    2.6614 C   0  0  0  0  0  0  0  0  0  0  0  0
    2.7027   -4.8734    1.5110 C   0  0  0  0  0  0  0  0  0  0  0  0
    2.7719   -3.3385    1.3045 C   0  0  2  0  0  0  0  0  0  0  0  0
    3.8217   -3.0317    0.2402 C   0  0  1  0  0  0  0  0  0  0  0  0
    3.8018   -3.3835   -1.2532 C   0  0  1  0  0  0  0  0  0  0  0  0
    2.4430   -3.2811   -1.9831 C   0  0  0  0  0  0  0  0  0  0  0  0
    1.4665   -3.8509   -1.4436 O   0  0  0  0  0  0  0  0  0  0  0  0
    2.3941   -2.6907   -3.0891 O   0  0  0  0  0  0  0  0  0  0  0  0
    4.7879   -2.2942   -1.7007 C   0  0  0  0  0  0  0  0  0  0  0  0
    5.4346   -2.3461   -2.7349 O   0  0  0  0  0  0  0  0  0  0  0  0
    4.8827   -1.3495   -0.7367 O   0  0  0  0  0  0  0  0  0  0  0  0
    3.8853   -1.5414    0.2438 C   0  0  2  0  0  0  0  0  0  0  0  0
    4.0905   -1.2770    1.7275 C   0  0  1  0  0  0  0  0  0  0  0  0
    3.8311    0.0999    1.9322 O   0  0  0  0  0  0  0  0  0  0  0  0
    3.0598   -2.2573    2.4535 C   0  0  1  0  0  0  0  0  0  0  0  0
    1.7302   -1.4798    2.5771 C   0  0  0  0  0  0  0  0  0  0  0  0
    3.5805   -2.8277    3.8796 C   0  0  2  0  0  0  0  0  0  0  0  0
    4.9059   -3.6147    3.5739 C   0  0  0  0  0  0  0  0  0  0  0  0
    2.5765   -3.8323    4.6068 C   0  0  1  0  0  0  0  0  0  0  0  0
    3.9859   -1.7518    5.0306 C   0  0  1  0  0  0  0  0  0  0  0  0
    5.1131   -2.2277    5.9923 C   0  0  0  0  0  0  0  0  0  0  0  0
    4.5521   -0.5693    4.5141 O   0  0  0  0  0  0  0  0  0  0  0  0
    2.8326   -1.2708    5.9549 C   0  0  0  0  0  0  0  0  0  0  0  0
    2.1082   -2.4279    6.6614 C   0  0  0  0  0  0  0  0  0  0  0  0
   -0.5942   -2.7158    5.8287 H   0  0  0  0  0  0  0  0  0  0  0  0
   -0.2069   -3.2774    4.2187 H   0  0  0  0  0  0  0  0  0  0  0  0
    0.3034   -1.6800    4.7758 H   0  0  0  0  0  0  0  0  0  0  0  0
    1.7822   -5.0759    6.9291 H   0  0  0  0  0  0  0  0  0  0  0  0
    0.0904   -4.6969    6.7245 H   0  0  0  0  0  0  0  0  0  0  0  0
    1.4497   -6.6513    5.2699 H   0  0  0  0  0  0  0  0  0  0  0  0
    0.0240   -5.8311    4.6249 H   0  0  0  0  0  0  0  0  0  0  0  0
    1.3045   -6.2788    2.4177 H   0  0  0  0  0  0  0  0  0  0  0  0
    3.6685   -5.3708    1.5095 H   0  0  0  0  0  0  0  0  0  0  0  0
    2.2254   -5.2801    0.6220 H   0  0  0  0  0  0  0  0  0  0  0  0
    1.8123   -3.0690    0.8655 H   0  0  0  0  0  0  0  0  0  0  0  0
    4.7646   -3.4393    0.6131 H   0  0  0  0  0  0  0  0  0  0  0  0
    4.2272   -4.3652   -1.4524 H   0  0  0  0  0  0  0  0  0  0  0  0
    2.9519   -1.0995   -0.1077 H   0  0  0  0  0  0  0  0  0  0  0  0
    5.1313   -1.4769    1.9752 H   0  0  0  0  0  0  0  0  0  0  0  0
    4.2209    0.5783    1.2125 H   0  0  0  0  0  0  0  0  0  0  0  0
    1.7446   -0.7348    3.3642 H   0  0  0  0  0  0  0  0  0  0  0  0
    0.8958   -2.1565    2.7083 H   0  0  0  0  0  0  0  0  0  0  0  0
    1.4920   -0.9367    1.6624 H   0  0  0  0  0  0  0  0  0  0  0  0
    5.2209   -4.2625    4.3918 H   0  0  0  0  0  0  0  0  0  0  0  0
    5.7447   -2.9470    3.3832 H   0  0  0  0  0  0  0  0  0  0  0  0
    4.8689   -4.2653    2.7156 H   0  0  0  0  0  0  0  0  0  0  0  0
    3.2648   -4.3736    5.2546 H   0  0  0  0  0  0  0  0  0  0  0  0
    4.8971   -3.1894    6.4527 H   0  0  0  0  0  0  0  0  0  0  0  0
    5.2699   -1.5159    6.8007 H   0  0  0  0  0  0  0  0  0  0  0  0
    6.0789   -2.3127    5.5017 H   0  0  0  0  0  0  0  0  0  0  0  0
    3.9634   -0.1927    3.8658 H   0  0  0  0  0  0  0  0  0  0  0  0
    3.2318   -0.6084    6.7244 H   0  0  0  0  0  0  0  0  0  0  0  0
    2.1215   -0.6438    5.4272 H   0  0  0  0  0  0  0  0  0  0  0  0
    1.3371   -2.0437    7.3299 H   0  0  0  0  0  0  0  0  0  0  0  0
    2.8028   -2.9850    7.2929 H   0  0  0  0  0  0  0  0  0  0  0  0
  2  1  1  6
  1 30  1  0
  1 31  1  0
  1 32  1  0
  2 24  1  0
  2 29  1  0
  2  3  1  0
  3  4  1  0
  3 33  1  0
  3 34  1  0
  4  5  1  0
  4 35  1  0
  4 36  1  0
  5 24  1  0
  5  6  2  0
  6  7  1  0
  6 37  1  0
  7  8  1  0
  7 38  1  0
  7 39  1  0
  8 20  1  0
  8  9  1  0
  8 40  1  6
  9 17  1  0
  9 10  1  0
  9 41  1  1
 10 11  1  0
 10 14  1  0
 10 42  1  1
 11 12  2  0
 11 13  1  0
 14 15  2  0
 14 16  1  0
 16 17  1  0
 17 18  1  0
 17 43  1  6
 18 19  1  0
 18 20  1  0
 18 44  1  1
 19 45  1  0
 20 21  1  1
 20 22  1  0
 21 46  1  0
 21 47  1  0
 21 48  1  0
 22 23  1  6
 22 24  1  0
 22 25  1  0
 23 49  1  0
 23 50  1  0
 23 51  1  0
 24 52  1  1
 25 26  1  0
 25 27  1  6
 25 28  1  0
 26 53  1  0
 26 54  1  0
 26 55  1  0
 27 56  1  0
 28 29  1  0
 28 57  1  0
 28 58  1  0
 29 59  1  0
 29 60  1  0
M  CHG  1  13  -1
M  END
>  <i_m_ct_stereo_status>  (125) 
1

>  <s_m_source_file>  (125) 
/var/tmp/pbs.5076255.sched01/tmpqwfmwtcs/46j3o47u_k.sdf

>  <i_m_source_file_index>  (125) 
1

>  <i_lp_mmshare_version>  (125) 
48012

>  <i_f3d_flags>  (125) 
0

>  <s_epik_input>  (125) 
W0NIM11bQ0BdMTJbQ0BIXTNDKFtDSDJdW0NIMl0xKT1bQ0hdW0NIMl1bQ0BASF00W0NAQEhdNVtDQEhdKE9DKD1PKVtDQEBIXTVDKD1PKVtPSF0pW0NAQEhdKFtPSF0pW0NAXTQoW0NIM10pW0NAQF0zKFtDSDNdKVtDQEBdKFtDSDNdKShbT0hdKVtDSDJdW0NIMl0y

>  <s_epik_cmdline>  (125) 
J2VwaWtfcHl0aG9uJywgJy1waHQnLCAnMi4wJywgJy1waCcsICc3LjAnLCAnLXRuJywgJzgnLCAnLW1hJywgJzIwMCcsICctaW1hZScsICc8aW5maWxlLm1hZT4nLCAnLW9tYWUnLCAnPG91dGZpbGUubWFlPic=

>  <r_lp_tautomer_probability>  (125) 
1

>  <r_epik_Ionization_Penalty>  (125) 
0.000180663

>  <r_epik_Ionization_Penalty_Charging>  (125) 
0.000179281

>  <r_epik_Ionization_Penalty_Neutral>  (125) 
1.38194e-06

>  <r_epik_State_Penalty>  (125) 
-0

>  <r_epik_Charging_Adjusted_Penalty>  (125) 
0.000179281

>  <i_epik_Tot_Q>  (125) 
-1

>  <i_epik_Tot_abs_Q>  (125) 
1

>  <s_epik_Chemistry_Notes>  (125) 
This compound has an ester and may undergo hydrolysis at high or low pH.

>  <s_lp_Force_Field>  (125) 
OPLS3e

>  <r_lp_Energy>  (125) 
90.5902

>  <b_lp_Chiralities_Consistent>  (125) 
1

>  <s_lp_Variant>  (125) 
31:0-1

>  <s_i_glide_gridfile>  (125) 
pfpi4k_grid

>  <i_i_glide_lignum>  (125) 
1

>  <i_i_glide_rotatable_bonds>  (125) 
3

>  <r_i_docking_score>  (125) 
-2.11758

>  <r_i_glide_ligand_efficiency>  (125) 
-0.07302

>  <r_i_glide_ligand_efficiency_sa>  (125) 
-0.224341

>  <r_i_glide_ligand_efficiency_ln>  (125) 
-0.484872

>  <r_i_glide_gscore>  (125) 
-2.11758

>  <r_i_glide_lipo>  (125) 
-0.0541216

>  <r_i_glide_hbond>  (125) 
-0.0207275

>  <r_i_glide_metal>  (125) 
-0

>  <r_i_glide_rewards>  (125) 
-0.834016

>  <r_i_glide_evdw>  (125) 
-23.2954

>  <r_i_glide_ecoul>  (125) 
-0.164954

>  <r_i_glide_erotb>  (125) 
0

>  <r_i_glide_esite>  (125) 
-0.019199

>  <r_i_glide_emodel>  (125) 
-26.0827

>  <r_i_glide_energy>  (125) 
-23.4604

>  <r_i_glide_einternal>  (125) 
1.10562

>  <r_i_glide_intrahb_reward>  (125) 
-0

>  <i_i_glide_confnum>  (125) 
1

>  <i_i_glide_posenum>  (125) 
26

>  <r_i_glide_eff_state_penalty>  (125) 
0

>  <ligand_id>  (125) 
31

>  <original_smiles>  (125) 
CC12CCC3=CCC4C5C(C(=O)O)C(=O)OC5C(O)C4(C)C(C)(C31)C(C)(O)CC2

>  <smiles>  (125) 
[H]OC1([H])C2([H])OC(=O)C([H])(C(=O)[O-])C2([H])C2([H])C([H])([H])C([H])=C3C([H])([H])C([H])([H])C4(C([H])([H])[H])C([H])([H])C([H])([H])C(O[H])(C([H])([H])[H])C(C([H])([H])[H])(C34[H])C12C([H])([H])[H]

$$$$
31:0:2
     RDKit          3D

 60 64  0  0  1  0  0  0  0  0999 V2000
    0.6157   -3.9565    4.8867 C   0  0  0  0  0  0  0  0  0  0  0  0
    1.6643   -5.0421    5.2482 C   0  0  1  0  0  0  0  0  0  0  0  0
    0.8601   -6.3558    5.3791 C   0  0  0  0  0  0  0  0  0  0  0  0
    0.7379   -6.8866    3.9422 C   0  0  0  0  0  0  0  0  0  0  0  0
    1.8170   -6.1696    3.1472 C   0  0  0  0  0  0  0  0  0  0  0  0
    1.8536   -6.1782    1.8111 C   0  0  0  0  0  0  0  0  0  0  0  0
    2.8710   -5.5591    0.8946 C   0  0  0  0  0  0  0  0  0  0  0  0
    3.3231   -4.0985    1.1623 C   0  0  2  0  0  0  0  0  0  0  0  0
    4.5145   -3.7752    0.2582 C   0  0  1  0  0  0  0  0  0  0  0  0
    4.5629   -3.6709   -1.2762 C   0  0  1  0  0  0  0  0  0  0  0  0
    3.3280   -3.0385   -1.9583 C   0  0  0  0  0  0  0  0  0  0  0  0
    3.5158   -2.2039   -2.8773 O   0  0  0  0  0  0  0  0  0  0  0  0
    2.2068   -3.4544   -1.5883 O   0  0  0  0  0  0  0  0  0  0  0  0
    5.8145   -2.7748   -1.3463 C   0  0  0  0  0  0  0  0  0  0  0  0
    6.5460   -2.6809   -2.3192 O   0  0  0  0  0  0  0  0  0  0  0  0
    6.0262   -2.1993   -0.1469 O   0  0  0  0  0  0  0  0  0  0  0  0
    4.9266   -2.4152    0.7120 C   0  0  2  0  0  0  0  0  0  0  0  0
    5.0490   -2.6432    2.2134 C   0  0  1  0  0  0  0  0  0  0  0  0
    5.1406   -1.3518    2.7990 O   0  0  0  0  0  0  0  0  0  0  0  0
    3.7490   -3.5013    2.5909 C   0  0  1  0  0  0  0  0  0  0  0  0
    2.6333   -2.4813    2.9136 C   0  0  0  0  0  0  0  0  0  0  0  0
    3.9785   -4.5776    3.7865 C   0  0  2  0  0  0  0  0  0  0  0  0
    5.1060   -5.5509    3.2828 C   0  0  0  0  0  0  0  0  0  0  0  0
    2.6990   -5.4605    4.1551 C   0  0  1  0  0  0  0  0  0  0  0  0
    4.5134   -4.0333    5.2213 C   0  0  1  0  0  0  0  0  0  0  0  0
    5.4086   -5.0288    6.0131 C   0  0  0  0  0  0  0  0  0  0  0  0
    5.3847   -2.9414    5.0923 O   0  0  0  0  0  0  0  0  0  0  0  0
    3.4284   -3.5542    6.2261 C   0  0  0  0  0  0  0  0  0  0  0  0
    2.3845   -4.6396    6.5303 C   0  0  0  0  0  0  0  0  0  0  0  0
   -0.2128   -3.9759    5.5943 H   0  0  0  0  0  0  0  0  0  0  0  0
    0.1931   -4.1221    3.9000 H   0  0  0  0  0  0  0  0  0  0  0  0
    1.0007   -2.9416    4.9280 H   0  0  0  0  0  0  0  0  0  0  0  0
    1.4217   -7.0764    5.9769 H   0  0  0  0  0  0  0  0  0  0  0  0
   -0.1088   -6.2350    5.8628 H   0  0  0  0  0  0  0  0  0  0  0  0
    0.8844   -7.9679    3.9140 H   0  0  0  0  0  0  0  0  0  0  0  0
   -0.2408   -6.6672    3.5189 H   0  0  0  0  0  0  0  0  0  0  0  0
    1.1014   -6.7620    1.3032 H   0  0  0  0  0  0  0  0  0  0  0  0
    3.6866   -6.2648    0.7609 H   0  0  0  0  0  0  0  0  0  0  0  0
    2.3991   -5.5598   -0.0863 H   0  0  0  0  0  0  0  0  0  0  0  0
    2.4904   -3.4877    0.8177 H   0  0  0  0  0  0  0  0  0  0  0  0
    5.2937   -4.4984    0.5076 H   0  0  0  0  0  0  0  0  0  0  0  0
    4.7608   -4.6293   -1.7512 H   0  0  0  0  0  0  0  0  0  0  0  0
    4.1532   -1.6750    0.4870 H   0  0  0  0  0  0  0  0  0  0  0  0
    5.9737   -3.1790    2.4185 H   0  0  0  0  0  0  0  0  0  0  0  0
    4.3697   -0.8608    2.5660 H   0  0  0  0  0  0  0  0  0  0  0  0
    2.7494   -2.0278    3.8907 H   0  0  0  0  0  0  0  0  0  0  0  0
    1.6525   -2.9343    2.8197 H   0  0  0  0  0  0  0  0  0  0  0  0
    2.6116   -1.6595    2.1987 H   0  0  0  0  0  0  0  0  0  0  0  0
    5.1819   -6.4654    3.8702 H   0  0  0  0  0  0  0  0  0  0  0  0
    6.0940   -5.0938    3.3215 H   0  0  0  0  0  0  0  0  0  0  0  0
    4.9983   -5.8932    2.2664 H   0  0  0  0  0  0  0  0  0  0  0  0
    3.1775   -6.3203    4.6191 H   0  0  0  0  0  0  0  0  0  0  0  0
    4.9284   -5.9956    6.1549 H   0  0  0  0  0  0  0  0  0  0  0  0
    5.6491   -4.6486    7.0064 H   0  0  0  0  0  0  0  0  0  0  0  0
    6.3716   -5.2017    5.5337 H   0  0  0  0  0  0  0  0  0  0  0  0
    5.6888   -2.6959    5.9531 H   0  0  0  0  0  0  0  0  0  0  0  0
    3.8895   -3.2624    7.1708 H   0  0  0  0  0  0  0  0  0  0  0  0
    2.9449   -2.6408    5.8960 H   0  0  0  0  0  0  0  0  0  0  0  0
    1.6651   -4.2782    7.2655 H   0  0  0  0  0  0  0  0  0  0  0  0
    2.8682   -5.5114    6.9766 H   0  0  0  0  0  0  0  0  0  0  0  0
  2  1  1  6
  1 30  1  0
  1 31  1  0
  1 32  1  0
  2 24  1  0
  2 29  1  0
  2  3  1  0
  3  4  1  0
  3 33  1  0
  3 34  1  0
  4  5  1  0
  4 35  1  0
  4 36  1  0
  5 24  1  0
  5  6  2  0
  6  7  1  0
  6 37  1  0
  7  8  1  0
  7 38  1  0
  7 39  1  0
  8 20  1  0
  8  9  1  0
  8 40  1  6
  9 17  1  0
  9 10  1  0
  9 41  1  1
 10 11  1  0
 10 14  1  0
 10 42  1  6
 11 12  2  0
 11 13  1  0
 14 15  2  0
 14 16  1  0
 16 17  1  0
 17 18  1  0
 17 43  1  1
 18 19  1  0
 18 20  1  0
 18 44  1  6
 19 45  1  0
 20 21  1  1
 20 22  1  0
 21 46  1  0
 21 47  1  0
 21 48  1  0
 22 23  1  6
 22 24  1  0
 22 25  1  0
 23 49  1  0
 23 50  1  0
 23 51  1  0
 24 52  1  1
 25 26  1  0
 25 27  1  6
 25 28  1  0
 26 53  1  0
 26 54  1  0
 26 55  1  0
 27 56  1  0
 28 29  1  0
 28 57  1  0
 28 58  1  0
 29 59  1  0
 29 60  1  0
M  CHG  1  13  -1
M  END
>  <i_m_ct_stereo_status>  (126) 
1

>  <s_m_source_file>  (126) 
/var/tmp/pbs.5076255.sched01/tmpqwfmwtcs/46j3o47u_k.sdf

>  <i_m_source_file_index>  (126) 
1

>  <i_lp_mmshare_version>  (126) 
48012

>  <i_f3d_flags>  (126) 
0

>  <s_epik_input>  (126) 
W0NIM11bQ0BdMTJbQ0BIXTNDKFtDSDJdW0NIMl0xKT1bQ0hdW0NIMl1bQ0BASF00W0NAQEhdNVtDQEhdKE9DKD1PKVtDQEBIXTVDKD1PKVtPSF0pW0NAQEhdKFtPSF0pW0NAXTQoW0NIM10pW0NAQF0zKFtDSDNdKVtDQEBdKFtDSDNdKShbT0hdKVtDSDJdW0NIMl0y

>  <s_epik_cmdline>  (126) 
J2VwaWtfcHl0aG9uJywgJy1waHQnLCAnMi4wJywgJy1waCcsICc3LjAnLCAnLXRuJywgJzgnLCAnLW1hJywgJzIwMCcsICctaW1hZScsICc8aW5maWxlLm1hZT4nLCAnLW9tYWUnLCAnPG91dGZpbGUubWFlPic=

>  <r_lp_tautomer_probability>  (126) 
1

>  <r_epik_Ionization_Penalty>  (126) 
0.000180663

>  <r_epik_Ionization_Penalty_Charging>  (126) 
0.000179281

>  <r_epik_Ionization_Penalty_Neutral>  (126) 
1.38194e-06

>  <r_epik_State_Penalty>  (126) 
-0

>  <r_epik_Charging_Adjusted_Penalty>  (126) 
0.000179281

>  <i_epik_Tot_Q>  (126) 
-1

>  <i_epik_Tot_abs_Q>  (126) 
1

>  <s_epik_Chemistry_Notes>  (126) 
This compound has an ester and may undergo hydrolysis at high or low pH.

>  <s_lp_Force_Field>  (126) 
OPLS3e

>  <r_lp_Energy>  (126) 
90.5902

>  <b_lp_Chiralities_Consistent>  (126) 
1

>  <s_lp_Variant>  (126) 
31:0-1

>  <s_i_glide_gridfile>  (126) 
pfpi4k_grid

>  <i_i_glide_lignum>  (126) 
1

>  <i_i_glide_rotatable_bonds>  (126) 
3

>  <r_i_docking_score>  (126) 
-1.8867

>  <r_i_glide_ligand_efficiency>  (126) 
-0.0650587

>  <r_i_glide_ligand_efficiency_sa>  (126) 
-0.199881

>  <r_i_glide_ligand_efficiency_ln>  (126) 
-0.432007

>  <r_i_glide_gscore>  (126) 
-1.8867

>  <r_i_glide_lipo>  (126) 
-0.106547

>  <r_i_glide_hbond>  (126) 
0

>  <r_i_glide_metal>  (126) 
-0

>  <r_i_glide_rewards>  (126) 
-0.658032

>  <r_i_glide_evdw>  (126) 
-25.0969

>  <r_i_glide_ecoul>  (126) 
0.987362

>  <r_i_glide_erotb>  (126) 
0

>  <r_i_glide_esite>  (126) 
-0.0153824

>  <r_i_glide_emodel>  (126) 
-26.8391

>  <r_i_glide_energy>  (126) 
-24.1095

>  <r_i_glide_einternal>  (126) 
0.390543

>  <r_i_glide_intrahb_reward>  (126) 
-0

>  <i_i_glide_confnum>  (126) 
2

>  <i_i_glide_posenum>  (126) 
21

>  <r_i_glide_eff_state_penalty>  (126) 
0

>  <ligand_id>  (126) 
31

>  <original_smiles>  (126) 
CC12CCC3=CCC4C5C(C(=O)O)C(=O)OC5C(O)C4(C)C(C)(C31)C(C)(O)CC2

>  <smiles>  (126) 
[H]OC1([H])C2([H])OC(=O)C([H])(C(=O)[O-])C2([H])C2([H])C([H])([H])C([H])=C3C([H])([H])C([H])([H])C4(C([H])([H])[H])C([H])([H])C([H])([H])C(O[H])(C([H])([H])[H])C(C([H])([H])[H])(C34[H])C12C([H])([H])[H]

$$$$
32:0:0
     RDKit          3D

 55 58  0  0  1  0  0  0  0  0999 V2000
    2.0380   -0.3485    2.1745 C   0  0  0  0  0  0  0  0  0  0  0  0
    3.0601   -1.4614    1.9785 C   0  0  0  0  0  0  0  0  0  0  0  0
    3.0223   -2.5460    2.7724 C   0  0  0  0  0  0  0  0  0  0  0  0
    3.9994   -3.6894    2.7241 C   0  0  1  0  0  0  0  0  0  0  0  0
    4.7918   -3.5687    3.8962 O   0  0  0  0  0  0  0  0  0  0  0  0
    3.2691   -5.0303    2.7573 C   0  0  2  0  0  0  0  0  0  0  0  0
    2.8140   -5.6978    4.0760 C   0  0  0  0  0  0  0  0  0  0  0  0
    3.7639   -6.8709    3.7291 C   0  0  0  0  0  0  0  0  0  0  0  0
    4.1205   -7.8853    4.3256 O   0  0  0  0  0  0  0  0  0  0  0  0
    4.1359   -6.2464    2.3676 C   0  0  1  0  0  0  0  0  0  0  0  0
    3.7439   -7.1124    1.1698 C   0  0  0  0  0  0  0  0  0  0  0  0
    5.5271   -5.9361    2.3917 O   0  0  0  0  0  0  0  0  0  0  0  0
    5.9815   -4.8213    1.6122 C   0  0  1  0  0  0  0  0  0  0  0  0
    6.5749   -5.4420    0.3439 C   0  0  0  0  0  0  0  0  0  0  0  0
    4.8910   -3.6984    1.4415 C   0  0  2  0  0  0  0  0  0  0  0  0
    5.3458   -2.2591    1.0097 C   0  0  1  0  0  0  0  0  0  0  0  0
    6.1495   -1.7682    2.0727 O   0  0  0  0  0  0  0  0  0  0  0  0
    6.2040   -2.2247   -0.2942 C   0  0  0  0  0  0  0  0  0  0  0  0
    7.4319   -2.1592   -0.2467 O   0  0  0  0  0  0  0  0  0  0  0  0
    5.5170   -2.2129   -1.6781 C   0  0  1  0  0  0  0  0  0  0  0  0
    5.1794   -3.6371   -2.1704 C   0  0  0  0  0  0  0  0  0  0  0  0
    4.7914   -3.7057   -3.5258 O   0  0  0  0  0  0  0  0  0  0  0  0
    4.3655   -1.1846   -1.6835 C   0  0  1  0  0  0  0  0  0  0  0  0
    3.5887   -1.0587   -3.0092 C   0  0  0  0  0  0  0  0  0  0  0  0
    3.4249   -1.3985   -0.4876 C   0  0  0  0  0  0  0  0  0  0  0  0
    4.1216   -1.2769    0.8858 C   0  0  1  0  0  0  0  0  0  0  0  0
    4.6313    0.0464    0.9705 O   0  0  0  0  0  0  0  0  0  0  0  0
    1.4420   -0.1690    1.2791 H   0  0  0  0  0  0  0  0  0  0  0  0
    2.5135    0.5901    2.4629 H   0  0  0  0  0  0  0  0  0  0  0  0
    1.3306   -0.6119    2.9611 H   0  0  0  0  0  0  0  0  0  0  0  0
    2.2642   -2.6237    3.5362 H   0  0  0  0  0  0  0  0  0  0  0  0
    5.3393   -2.8019    3.7844 H   0  0  0  0  0  0  0  0  0  0  0  0
    2.4137   -5.0168    2.0808 H   0  0  0  0  0  0  0  0  0  0  0  0
    3.0888   -5.1401    4.9734 H   0  0  0  0  0  0  0  0  0  0  0  0
    1.7522   -5.9573    4.0794 H   0  0  0  0  0  0  0  0  0  0  0  0
    2.7659   -7.5750    1.3021 H   0  0  0  0  0  0  0  0  0  0  0  0
    4.4675   -7.9081    0.9959 H   0  0  0  0  0  0  0  0  0  0  0  0
    3.6877   -6.5157    0.2572 H   0  0  0  0  0  0  0  0  0  0  0  0
    6.8177   -4.4098    2.1748 H   0  0  0  0  0  0  0  0  0  0  0  0
    7.2257   -4.7464   -0.1803 H   0  0  0  0  0  0  0  0  0  0  0  0
    5.8050   -5.7967   -0.3394 H   0  0  0  0  0  0  0  0  0  0  0  0
    7.1980   -6.3026    0.5951 H   0  0  0  0  0  0  0  0  0  0  0  0
    4.2399   -4.0262    0.6345 H   0  0  0  0  0  0  0  0  0  0  0  0
    6.3793   -0.8741    1.8497 H   0  0  0  0  0  0  0  0  0  0  0  0
    6.2810   -1.8387   -2.3507 H   0  0  0  0  0  0  0  0  0  0  0  0
    6.0705   -4.2540   -2.0991 H   0  0  0  0  0  0  0  0  0  0  0  0
    4.4037   -4.1013   -1.5667 H   0  0  0  0  0  0  0  0  0  0  0  0
    4.2693   -4.4917   -3.6271 H   0  0  0  0  0  0  0  0  0  0  0  0
    4.8418   -0.2145   -1.5610 H   0  0  0  0  0  0  0  0  0  0  0  0
    2.9561   -1.9296   -3.1902 H   0  0  0  0  0  0  0  0  0  0  0  0
    4.2730   -0.9452   -3.8526 H   0  0  0  0  0  0  0  0  0  0  0  0
    2.9288   -0.1891   -3.0015 H   0  0  0  0  0  0  0  0  0  0  0  0
    2.6382   -0.6571   -0.5375 H   0  0  0  0  0  0  0  0  0  0  0  0
    2.9383   -2.3715   -0.5714 H   0  0  0  0  0  0  0  0  0  0  0  0
    3.9009    0.6414    0.8935 H   0  0  0  0  0  0  0  0  0  0  0  0
  1  2  1  0
  1 28  1  0
  1 29  1  0
  1 30  1  0
  2 26  1  0
  2  3  2  0
  3  4  1  0
  3 31  1  0
  4 15  1  0
  4  5  1  1
  4  6  1  0
  5 32  1  0
  6 10  1  0
  6  7  1  0
  6 33  1  6
  7  8  1  0
  7 34  1  0
  7 35  1  0
  8  9  2  0
  8 10  1  0
 10 11  1  6
 10 12  1  0
 11 36  1  0
 11 37  1  0
 11 38  1  0
 12 13  1  0
 13 14  1  0
 13 15  1  0
 13 39  1  1
 14 40  1  0
 14 41  1  0
 14 42  1  0
 15 16  1  0
 15 43  1  6
 16 26  1  0
 16 17  1  1
 16 18  1  0
 17 44  1  0
 18 19  2  0
 18 20  1  0
 20 21  1  0
 20 23  1  0
 20 45  1  6
 21 22  1  0
 21 46  1  0
 21 47  1  0
 22 48  1  0
 23 24  1  0
 23 25  1  0
 23 49  1  1
 24 50  1  0
 24 51  1  0
 24 52  1  0
 25 26  1  0
 25 53  1  0
 25 54  1  0
 26 27  1  6
 27 55  1  0
M  END
>  <i_m_ct_stereo_status>  (127) 
1

>  <s_m_source_file>  (127) 
/var/tmp/pbs.5076255.sched01/tmpqwfmwtcs/46j3o47u_k.sdf

>  <i_m_source_file_index>  (127) 
2

>  <i_lp_mmshare_version>  (127) 
48012

>  <i_f3d_flags>  (127) 
0

>  <s_epik_input>  (127) 
Tz1DMVtDQEBIXShbQ0gyXVtPSF0pW0NAQEhdKFtDSDNdKVtDSDJdW0NAQF0oW09IXSkoQyhbQ0gzXSk9W0NIXTIpW0NAQF0xKFtPSF0pW0NASF0zW0NASF0oW0NIM10pT1tDQEBdKFtDSDNdKShDKD1PKVtDSDJdNClbQ0BASF00W0NAXTIzW09IXQ==

>  <s_epik_cmdline>  (127) 
J2VwaWtfcHl0aG9uJywgJy1waHQnLCAnMi4wJywgJy1waCcsICc3LjAnLCAnLXRuJywgJzgnLCAnLW1hJywgJzIwMCcsICctaW1hZScsICc8aW5maWxlLm1hZT4nLCAnLW9tYWUnLCAnPG91dGZpbGUubWFlPic=

>  <r_lp_tautomer_probability>  (127) 
1

>  <r_epik_Ionization_Penalty>  (127) 
8.81905e-07

>  <r_epik_Ionization_Penalty_Charging>  (127) 
0

>  <r_epik_Ionization_Penalty_Neutral>  (127) 
8.81905e-07

>  <r_epik_State_Penalty>  (127) 
-0

>  <r_epik_Charging_Adjusted_Penalty>  (127) 
0

>  <i_epik_Tot_Q>  (127) 
0

>  <i_epik_Tot_abs_Q>  (127) 
0

>  <s_lp_Force_Field>  (127) 
OPLS3e

>  <r_lp_Energy>  (127) 
38.1714

>  <b_lp_Chiralities_Consistent>  (127) 
1

>  <s_lp_Variant>  (127) 
32:0-1

>  <s_i_glide_gridfile>  (127) 
pfpi4k_grid

>  <i_i_glide_lignum>  (127) 
2

>  <i_i_glide_rotatable_bonds>  (127) 
5

>  <r_i_docking_score>  (127) 
-3.80791

>  <r_i_glide_ligand_efficiency>  (127) 
-0.141034

>  <r_i_glide_ligand_efficiency_sa>  (127) 
-0.423101

>  <r_i_glide_ligand_efficiency_ln>  (127) 
-0.886419

>  <r_i_glide_gscore>  (127) 
-3.80791

>  <r_i_glide_lipo>  (127) 
-0.433356

>  <r_i_glide_hbond>  (127) 
-0.237865

>  <r_i_glide_metal>  (127) 
-0

>  <r_i_glide_rewards>  (127) 
-1.31524

>  <r_i_glide_evdw>  (127) 
-21.8842

>  <r_i_glide_ecoul>  (127) 
-5.63406

>  <r_i_glide_erotb>  (127) 
0.134047

>  <r_i_glide_esite>  (127) 
-0.0161832

>  <r_i_glide_emodel>  (127) 
-35.6263

>  <r_i_glide_energy>  (127) 
-27.5183

>  <r_i_glide_einternal>  (127) 
5.24704

>  <r_i_glide_intrahb_reward>  (127) 
-0.5

>  <i_i_glide_confnum>  (127) 
2

>  <i_i_glide_posenum>  (127) 
7

>  <r_i_glide_eff_state_penalty>  (127) 
0

>  <ligand_id>  (127) 
32

>  <original_smiles>  (127) 
CC1=CC2(O)C3CC(=O)C3(C)OC(C)C2C2(O)C(=O)C(CO)C(C)CC12O

>  <smiles>  (127) 
[H]OC([H])([H])C1([H])C(=O)C2(O[H])C(O[H])(C(C([H])([H])[H])=C([H])C3(O[H])C4([H])C([H])([H])C(=O)C4(C([H])([H])[H])OC([H])(C([H])([H])[H])C23[H])C([H])([H])C1([H])C([H])([H])[H]

$$$$
32:0:1
     RDKit          3D

 55 58  0  0  1  0  0  0  0  0999 V2000
    2.3563    0.1157    2.4520 C   0  0  0  0  0  0  0  0  0  0  0  0
    3.1853   -1.1422    2.2130 C   0  0  0  0  0  0  0  0  0  0  0  0
    3.0387   -2.1979    3.0344 C   0  0  0  0  0  0  0  0  0  0  0  0
    3.8138   -3.4864    2.9399 C   0  0  1  0  0  0  0  0  0  0  0  0
    4.7082   -3.4718    4.0438 O   0  0  0  0  0  0  0  0  0  0  0  0
    2.8845   -4.6934    3.0763 C   0  0  2  0  0  0  0  0  0  0  0  0
    2.4508   -5.2559    4.4508 C   0  0  0  0  0  0  0  0  0  0  0  0
    3.1704   -6.5721    4.0643 C   0  0  0  0  0  0  0  0  0  0  0  0
    3.4093   -7.6217    4.6586 O   0  0  0  0  0  0  0  0  0  0  0  0
    3.5186   -6.0375    2.6597 C   0  0  1  0  0  0  0  0  0  0  0  0
    2.8970   -6.8487    1.5196 C   0  0  0  0  0  0  0  0  0  0  0  0
    4.9380   -5.9498    2.5657 O   0  0  0  0  0  0  0  0  0  0  0  0
    5.4988   -4.9363    1.7201 C   0  0  1  0  0  0  0  0  0  0  0  0
    5.8821   -5.6851    0.4395 C   0  0  0  0  0  0  0  0  0  0  0  0
    4.5824   -3.6603    1.5864 C   0  0  2  0  0  0  0  0  0  0  0  0
    5.2252   -2.3170    1.0841 C   0  0  1  0  0  0  0  0  0  0  0  0
    6.1756   -1.9456    2.0730 O   0  0  0  0  0  0  0  0  0  0  0  0
    5.9742   -2.4295   -0.2819 C   0  0  0  0  0  0  0  0  0  0  0  0
    7.1997   -2.5401   -0.3318 O   0  0  0  0  0  0  0  0  0  0  0  0
    5.1844   -2.3218   -1.6066 C   0  0  1  0  0  0  0  0  0  0  0  0
    4.5617   -3.6620   -2.0460 C   0  0  0  0  0  0  0  0  0  0  0  0
    4.5070   -3.7950   -3.4488 O   0  0  0  0  0  0  0  0  0  0  0  0
    4.2061   -1.1319   -1.5520 C   0  0  1  0  0  0  0  0  0  0  0  0
    3.3466   -0.9589   -2.8189 C   0  0  0  0  0  0  0  0  0  0  0  0
    3.3535   -1.1726   -0.2676 C   0  0  0  0  0  0  0  0  0  0  0  0
    4.1732   -1.1436    1.0373 C   0  0  1  0  0  0  0  0  0  0  0  0
    4.8988    0.0817    1.0338 O   0  0  0  0  0  0  0  0  0  0  0  0
    1.7243    0.3645    1.5969 H   0  0  0  0  0  0  0  0  0  0  0  0
    2.9981    0.9698    2.6723 H   0  0  0  0  0  0  0  0  0  0  0  0
    1.6919   -0.0195    3.3077 H   0  0  0  0  0  0  0  0  0  0  0  0
    2.3429   -2.1427    3.8577 H   0  0  0  0  0  0  0  0  0  0  0  0
    5.3484   -2.7909    3.8788 H   0  0  0  0  0  0  0  0  0  0  0  0
    1.9870   -4.5518    2.4731 H   0  0  0  0  0  0  0  0  0  0  0  0
    2.8864   -4.7377    5.3059 H   0  0  0  0  0  0  0  0  0  0  0  0
    1.3657   -5.3482    4.5491 H   0  0  0  0  0  0  0  0  0  0  0  0
    1.8743   -7.1505    1.7416 H   0  0  0  0  0  0  0  0  0  0  0  0
    3.4717   -7.7501    1.3109 H   0  0  0  0  0  0  0  0  0  0  0  0
    2.8576   -6.2637    0.5968 H   0  0  0  0  0  0  0  0  0  0  0  0
    6.4297   -4.6441    2.2069 H   0  0  0  0  0  0  0  0  0  0  0  0
    6.5832   -5.1127   -0.1620 H   0  0  0  0  0  0  0  0  0  0  0  0
    5.0135   -5.9481   -0.1646 H   0  0  0  0  0  0  0  0  0  0  0  0
    6.3894   -6.6224    0.6781 H   0  0  0  0  0  0  0  0  0  0  0  0
    3.8308   -3.8947    0.8326 H   0  0  0  0  0  0  0  0  0  0  0  0
    6.4711   -1.0716    1.8415 H   0  0  0  0  0  0  0  0  0  0  0  0
    5.9370   -2.0787   -2.3589 H   0  0  0  0  0  0  0  0  0  0  0  0
    5.1888   -4.4879   -1.7421 H   0  0  0  0  0  0  0  0  0  0  0  0
    3.5672   -3.8159   -1.6249 H   0  0  0  0  0  0  0  0  0  0  0  0
    4.1114   -4.6403   -3.6129 H   0  0  0  0  0  0  0  0  0  0  0  0
    4.8352   -0.2458   -1.5179 H   0  0  0  0  0  0  0  0  0  0  0  0
    2.5995   -1.7490   -2.9207 H   0  0  0  0  0  0  0  0  0  0  0  0
    3.9656   -0.9526   -3.7180 H   0  0  0  0  0  0  0  0  0  0  0  0
    2.8087   -0.0100   -2.7937 H   0  0  0  0  0  0  0  0  0  0  0  0
    2.6722   -0.3251   -0.2520 H   0  0  0  0  0  0  0  0  0  0  0  0
    2.7183   -2.0632   -0.2768 H   0  0  0  0  0  0  0  0  0  0  0  0
    4.7873    0.4982    0.1890 H   0  0  0  0  0  0  0  0  0  0  0  0
  1  2  1  0
  1 28  1  0
  1 29  1  0
  1 30  1  0
  2 26  1  0
  2  3  2  0
  3  4  1  0
  3 31  1  0
  4 15  1  0
  4  5  1  1
  4  6  1  0
  5 32  1  0
  6 10  1  0
  6  7  1  0
  6 33  1  6
  7  8  1  0
  7 34  1  0
  7 35  1  0
  8  9  2  0
  8 10  1  0
 10 11  1  6
 10 12  1  0
 11 36  1  0
 11 37  1  0
 11 38  1  0
 12 13  1  0
 13 14  1  0
 13 15  1  0
 13 39  1  1
 14 40  1  0
 14 41  1  0
 14 42  1  0
 15 16  1  0
 15 43  1  6
 16 26  1  0
 16 17  1  1
 16 18  1  0
 17 44  1  0
 18 19  2  0
 18 20  1  0
 20 21  1  0
 20 23  1  0
 20 45  1  6
 21 22  1  0
 21 46  1  0
 21 47  1  0
 22 48  1  0
 23 24  1  0
 23 25  1  0
 23 49  1  1
 24 50  1  0
 24 51  1  0
 24 52  1  0
 25 26  1  0
 25 53  1  0
 25 54  1  0
 26 27  1  6
 27 55  1  0
M  END
>  <i_m_ct_stereo_status>  (128) 
1

>  <s_m_source_file>  (128) 
/var/tmp/pbs.5076255.sched01/tmpqwfmwtcs/46j3o47u_k.sdf

>  <i_m_source_file_index>  (128) 
2

>  <i_lp_mmshare_version>  (128) 
48012

>  <i_f3d_flags>  (128) 
0

>  <s_epik_input>  (128) 
Tz1DMVtDQEBIXShbQ0gyXVtPSF0pW0NAQEhdKFtDSDNdKVtDSDJdW0NAQF0oW09IXSkoQyhbQ0gzXSk9W0NIXTIpW0NAQF0xKFtPSF0pW0NASF0zW0NASF0oW0NIM10pT1tDQEBdKFtDSDNdKShDKD1PKVtDSDJdNClbQ0BASF00W0NAXTIzW09IXQ==

>  <s_epik_cmdline>  (128) 
J2VwaWtfcHl0aG9uJywgJy1waHQnLCAnMi4wJywgJy1waCcsICc3LjAnLCAnLXRuJywgJzgnLCAnLW1hJywgJzIwMCcsICctaW1hZScsICc8aW5maWxlLm1hZT4nLCAnLW9tYWUnLCAnPG91dGZpbGUubWFlPic=

>  <r_lp_tautomer_probability>  (128) 
1

>  <r_epik_Ionization_Penalty>  (128) 
8.81905e-07

>  <r_epik_Ionization_Penalty_Charging>  (128) 
0

>  <r_epik_Ionization_Penalty_Neutral>  (128) 
8.81905e-07

>  <r_epik_State_Penalty>  (128) 
-0

>  <r_epik_Charging_Adjusted_Penalty>  (128) 
0

>  <i_epik_Tot_Q>  (128) 
0

>  <i_epik_Tot_abs_Q>  (128) 
0

>  <s_lp_Force_Field>  (128) 
OPLS3e

>  <r_lp_Energy>  (128) 
38.1714

>  <b_lp_Chiralities_Consistent>  (128) 
1

>  <s_lp_Variant>  (128) 
32:0-1

>  <s_i_glide_gridfile>  (128) 
pfpi4k_grid

>  <i_i_glide_lignum>  (128) 
2

>  <i_i_glide_rotatable_bonds>  (128) 
5

>  <r_i_docking_score>  (128) 
-3.80086

>  <r_i_glide_ligand_efficiency>  (128) 
-0.140772

>  <r_i_glide_ligand_efficiency_sa>  (128) 
-0.422317

>  <r_i_glide_ligand_efficiency_ln>  (128) 
-0.884777

>  <r_i_glide_gscore>  (128) 
-3.80086

>  <r_i_glide_lipo>  (128) 
-0.238565

>  <r_i_glide_hbond>  (128) 
-0.227635

>  <r_i_glide_metal>  (128) 
-0

>  <r_i_glide_rewards>  (128) 
-1.31524

>  <r_i_glide_evdw>  (128) 
-20.3322

>  <r_i_glide_ecoul>  (128) 
-7.53119

>  <r_i_glide_erotb>  (128) 
0.134047

>  <r_i_glide_esite>  (128) 
-0.00718201

>  <r_i_glide_emodel>  (128) 
-36.2254

>  <r_i_glide_energy>  (128) 
-27.8633

>  <r_i_glide_einternal>  (128) 
5.25184

>  <r_i_glide_intrahb_reward>  (128) 
-0.5

>  <i_i_glide_confnum>  (128) 
2

>  <i_i_glide_posenum>  (128) 
1

>  <r_i_glide_eff_state_penalty>  (128) 
0

>  <ligand_id>  (128) 
32

>  <original_smiles>  (128) 
CC1=CC2(O)C3CC(=O)C3(C)OC(C)C2C2(O)C(=O)C(CO)C(C)CC12O

>  <smiles>  (128) 
[H]OC([H])([H])C1([H])C(=O)C2(O[H])C(O[H])(C(C([H])([H])[H])=C([H])C3(O[H])C4([H])C([H])([H])C(=O)C4(C([H])([H])[H])OC([H])(C([H])([H])[H])C23[H])C([H])([H])C1([H])C([H])([H])[H]

$$$$
32:0:2
     RDKit          3D

 55 58  0  0  1  0  0  0  0  0999 V2000
    2.9697    0.2815    2.0117 C   0  0  0  0  0  0  0  0  0  0  0  0
    3.4756   -1.1438    1.8585 C   0  0  0  0  0  0  0  0  0  0  0  0
    2.9781   -2.1157    2.6463 C   0  0  0  0  0  0  0  0  0  0  0  0
    3.4137   -3.5523    2.6312 C   0  0  1  0  0  0  0  0  0  0  0  0
    4.1443   -3.7549    3.8330 O   0  0  0  0  0  0  0  0  0  0  0  0
    2.2086   -4.4897    2.6448 C   0  0  2  0  0  0  0  0  0  0  0  0
    1.4774   -4.8977    3.9421 C   0  0  0  0  0  0  0  0  0  0  0  0
    1.8845   -6.3607    3.6266 C   0  0  0  0  0  0  0  0  0  0  0  0
    1.7640   -7.4245    4.2305 O   0  0  0  0  0  0  0  0  0  0  0  0
    2.5211   -5.9553    2.2812 C   0  0  1  0  0  0  0  0  0  0  0  0
    1.8559   -6.5989    1.0646 C   0  0  0  0  0  0  0  0  0  0  0  0
    3.9198   -6.2310    2.3581 O   0  0  0  0  0  0  0  0  0  0  0  0
    4.8075   -5.4010    1.5925 C   0  0  1  0  0  0  0  0  0  0  0  0
    5.1441   -6.2381    0.3459 C   0  0  0  0  0  0  0  0  0  0  0  0
    4.2631   -3.9377    1.3731 C   0  0  2  0  0  0  0  0  0  0  0  0
    5.2683   -2.8025    0.9652 C   0  0  1  0  0  0  0  0  0  0  0  0
    6.1314   -2.6859    2.0748 O   0  0  0  0  0  0  0  0  0  0  0  0
    6.1312   -3.1320   -0.2972 C   0  0  0  0  0  0  0  0  0  0  0  0
    7.2784   -3.5703   -0.1814 O   0  0  0  0  0  0  0  0  0  0  0  0
    5.5748   -2.8451   -1.7130 C   0  0  1  0  0  0  0  0  0  0  0  0
    4.6877   -3.9910   -2.2259 C   0  0  0  0  0  0  0  0  0  0  0  0
    4.6146   -4.0282   -3.6313 O   0  0  0  0  0  0  0  0  0  0  0  0
    4.9162   -1.4544   -1.7566 C   0  0  1  0  0  0  0  0  0  0  0  0
    4.2813   -1.0785   -3.1098 C   0  0  0  0  0  0  0  0  0  0  0  0
    3.9215   -1.2611   -0.5921 C   0  0  0  0  0  0  0  0  0  0  0  0
    4.5633   -1.4110    0.7973 C   0  0  1  0  0  0  0  0  0  0  0  0
    5.5543   -0.3861    0.8683 O   0  0  0  0  0  0  0  0  0  0  0  0
    2.5305    0.6665    1.0879 H   0  0  0  0  0  0  0  0  0  0  0  0
    3.7796    0.9491    2.3235 H   0  0  0  0  0  0  0  0  0  0  0  0
    2.1958    0.3358    2.7787 H   0  0  0  0  0  0  0  0  0  0  0  0
    2.2219   -1.8730    3.3822 H   0  0  0  0  0  0  0  0  0  0  0  0
    4.9902   -3.3205    3.7144 H   0  0  0  0  0  0  0  0  0  0  0  0
    1.4540   -4.1387    1.9540 H   0  0  0  0  0  0  0  0  0  0  0  0
    1.9236   -4.4838    4.8557 H   0  0  0  0  0  0  0  0  0  0  0  0
    0.4016   -4.7062    3.9055 H   0  0  0  0  0  0  0  0  0  0  0  0
    0.7698   -6.6363    1.1569 H   0  0  0  0  0  0  0  0  0  0  0  0
    2.2053   -7.6215    0.9210 H   0  0  0  0  0  0  0  0  0  0  0  0
    2.0765   -6.0442    0.1553 H   0  0  0  0  0  0  0  0  0  0  0  0
    5.7137   -5.3481    2.1898 H   0  0  0  0  0  0  0  0  0  0  0  0
    6.0364   -5.8678   -0.1470 H   0  0  0  0  0  0  0  0  0  0  0  0
    4.3204   -6.2682   -0.3649 H   0  0  0  0  0  0  0  0  0  0  0  0
    5.3555   -7.2697    0.6261 H   0  0  0  0  0  0  0  0  0  0  0  0
    3.5693   -3.9924    0.5323 H   0  0  0  0  0  0  0  0  0  0  0  0
    6.8311   -2.0755    1.8407 H   0  0  0  0  0  0  0  0  0  0  0  0
    6.4432   -2.8199   -2.3736 H   0  0  0  0  0  0  0  0  0  0  0  0
    5.1147   -4.9497   -1.9619 H   0  0  0  0  0  0  0  0  0  0  0  0
    3.6854   -3.9572   -1.8016 H   0  0  0  0  0  0  0  0  0  0  0  0
    4.0878   -4.7896   -3.8309 H   0  0  0  0  0  0  0  0  0  0  0  0
    5.7223   -0.7302   -1.6205 H   0  0  0  0  0  0  0  0  0  0  0  0
    3.3740   -1.6488   -3.3058 H   0  0  0  0  0  0  0  0  0  0  0  0
    4.9759   -1.2591   -3.9276 H   0  0  0  0  0  0  0  0  0  0  0  0
    4.0146   -0.0168   -3.1258 H   0  0  0  0  0  0  0  0  0  0  0  0
    3.5390   -0.2591   -0.6477 H   0  0  0  0  0  0  0  0  0  0  0  0
    3.0757   -1.9445   -0.6936 H   0  0  0  0  0  0  0  0  0  0  0  0
    5.9834   -0.4560    1.7184 H   0  0  0  0  0  0  0  0  0  0  0  0
  1  2  1  0
  1 28  1  0
  1 29  1  0
  1 30  1  0
  2 26  1  0
  2  3  2  0
  3  4  1  0
  3 31  1  0
  4 15  1  0
  4  5  1  1
  4  6  1  0
  5 32  1  0
  6 10  1  0
  6  7  1  0
  6 33  1  6
  7  8  1  0
  7 34  1  0
  7 35  1  0
  8  9  2  0
  8 10  1  0
 10 11  1  6
 10 12  1  0
 11 36  1  0
 11 37  1  0
 11 38  1  0
 12 13  1  0
 13 14  1  0
 13 15  1  0
 13 39  1  1
 14 40  1  0
 14 41  1  0
 14 42  1  0
 15 16  1  0
 15 43  1  6
 16 26  1  0
 16 17  1  1
 16 18  1  0
 17 44  1  0
 18 19  2  0
 18 20  1  0
 20 21  1  0
 20 23  1  0
 20 45  1  6
 21 22  1  0
 21 46  1  0
 21 47  1  0
 22 48  1  0
 23 24  1  0
 23 25  1  0
 23 49  1  1
 24 50  1  0
 24 51  1  0
 24 52  1  0
 25 26  1  0
 25 53  1  0
 25 54  1  0
 26 27  1  6
 27 55  1  0
M  END
>  <i_m_ct_stereo_status>  (129) 
1

>  <s_m_source_file>  (129) 
/var/tmp/pbs.5076255.sched01/tmpqwfmwtcs/46j3o47u_k.sdf

>  <i_m_source_file_index>  (129) 
2

>  <i_lp_mmshare_version>  (129) 
48012

>  <i_f3d_flags>  (129) 
0

>  <s_epik_input>  (129) 
Tz1DMVtDQEBIXShbQ0gyXVtPSF0pW0NAQEhdKFtDSDNdKVtDSDJdW0NAQF0oW09IXSkoQyhbQ0gzXSk9W0NIXTIpW0NAQF0xKFtPSF0pW0NASF0zW0NASF0oW0NIM10pT1tDQEBdKFtDSDNdKShDKD1PKVtDSDJdNClbQ0BASF00W0NAXTIzW09IXQ==

>  <s_epik_cmdline>  (129) 
J2VwaWtfcHl0aG9uJywgJy1waHQnLCAnMi4wJywgJy1waCcsICc3LjAnLCAnLXRuJywgJzgnLCAnLW1hJywgJzIwMCcsICctaW1hZScsICc8aW5maWxlLm1hZT4nLCAnLW9tYWUnLCAnPG91dGZpbGUubWFlPic=

>  <r_lp_tautomer_probability>  (129) 
1

>  <r_epik_Ionization_Penalty>  (129) 
8.81905e-07

>  <r_epik_Ionization_Penalty_Charging>  (129) 
0

>  <r_epik_Ionization_Penalty_Neutral>  (129) 
8.81905e-07

>  <r_epik_State_Penalty>  (129) 
-0

>  <r_epik_Charging_Adjusted_Penalty>  (129) 
0

>  <i_epik_Tot_Q>  (129) 
0

>  <i_epik_Tot_abs_Q>  (129) 
0

>  <s_lp_Force_Field>  (129) 
OPLS3e

>  <r_lp_Energy>  (129) 
38.1714

>  <b_lp_Chiralities_Consistent>  (129) 
1

>  <s_lp_Variant>  (129) 
32:0-1

>  <s_i_glide_gridfile>  (129) 
pfpi4k_grid

>  <i_i_glide_lignum>  (129) 
2

>  <i_i_glide_rotatable_bonds>  (129) 
5

>  <r_i_docking_score>  (129) 
-3.55049

>  <r_i_glide_ligand_efficiency>  (129) 
-0.1315

>  <r_i_glide_ligand_efficiency_sa>  (129) 
-0.394499

>  <r_i_glide_ligand_efficiency_ln>  (129) 
-0.826495

>  <r_i_glide_gscore>  (129) 
-3.55049

>  <r_i_glide_lipo>  (129) 
-0.377539

>  <r_i_glide_hbond>  (129) 
-0.192359

>  <r_i_glide_metal>  (129) 
-0

>  <r_i_glide_rewards>  (129) 
-1.39494

>  <r_i_glide_evdw>  (129) 
-22.2281

>  <r_i_glide_ecoul>  (129) 
-4.02165

>  <r_i_glide_erotb>  (129) 
0.134047

>  <r_i_glide_esite>  (129) 
-0.00504377

>  <r_i_glide_emodel>  (129) 
-34.5649

>  <r_i_glide_energy>  (129) 
-26.2497

>  <r_i_glide_einternal>  (129) 
4.43997

>  <r_i_glide_intrahb_reward>  (129) 
-0.5

>  <i_i_glide_confnum>  (129) 
4

>  <i_i_glide_posenum>  (129) 
29

>  <r_i_glide_eff_state_penalty>  (129) 
0

>  <ligand_id>  (129) 
32

>  <original_smiles>  (129) 
CC1=CC2(O)C3CC(=O)C3(C)OC(C)C2C2(O)C(=O)C(CO)C(C)CC12O

>  <smiles>  (129) 
[H]OC([H])([H])C1([H])C(=O)C2(O[H])C(O[H])(C(C([H])([H])[H])=C([H])C3(O[H])C4([H])C([H])([H])C(=O)C4(C([H])([H])[H])OC([H])(C([H])([H])[H])C23[H])C([H])([H])C1([H])C([H])([H])[H]

$$$$
33:0:0
     RDKit          3D

 59 65  0  0  1  0  0  0  0  0999 V2000
    4.0683   -3.7082    5.9473 C   0  0  0  0  0  0  0  0  0  0  0  0
    3.4181   -4.1646    4.6304 C   0  0  1  0  0  0  0  0  0  0  0  0
    2.1933   -4.7920    4.9560 O   0  0  0  0  0  0  0  0  0  0  0  0
    3.1601   -3.0237    3.6203 C   0  0  0  0  0  0  0  0  0  0  0  0
    3.9359   -3.4749    2.3597 C   0  0  2  0  0  0  0  0  0  0  0  0
    3.7226   -4.9995    2.3700 C   0  0  1  0  0  0  0  0  0  0  0  0
    4.5052   -5.8086    1.2997 C   0  0  0  0  0  0  0  0  0  0  0  0
    5.9554   -5.3313    1.0729 C   0  0  0  0  0  0  0  0  0  0  0  0
    6.2012   -3.8397    1.4040 C   0  0  2  0  0  0  0  0  0  0  0  0
    5.4265   -3.5026    2.6852 C   0  0  2  0  0  0  0  0  0  0  0  0
    5.5535   -4.5500    3.6490 O   0  0  0  0  0  0  0  0  0  0  0  0
    4.2717   -5.1430    3.7889 C   0  0  1  0  0  0  0  0  0  0  0  0
    6.0551   -2.7199    0.2919 C   0  0  1  0  0  0  0  0  0  0  0  0
    7.3270   -1.8450    0.4814 C   0  0  0  0  0  0  0  0  0  0  0  0
    6.2457   -3.2608   -1.1492 C   0  0  0  0  0  0  0  0  0  0  0  0
    5.1134   -4.0377   -1.8465 C   0  0  0  0  0  0  0  0  0  0  0  0
    3.8030   -3.3028   -2.0713 C   0  0  1  0  0  0  0  0  0  0  0  0
    2.7204   -3.7928   -1.1422 C   0  0  0  0  0  0  0  0  0  0  0  0
    2.6712   -3.5159    0.1812 C   0  0  0  0  0  0  0  0  0  0  0  0
    3.5631   -2.6684    1.0639 C   0  0  2  0  0  0  0  0  0  0  0  0
    4.7451   -1.8278    0.4246 C   0  0  1  0  0  0  0  0  0  0  0  0
    4.9395   -0.6088    1.4054 C   0  0  0  0  0  0  0  0  0  0  0  0
    4.3418   -1.0723   -0.9060 C   0  0  1  0  0  0  0  0  0  0  0  0
    5.3753   -0.3537   -1.5115 O   0  0  0  0  0  0  0  0  0  0  0  0
    3.6540   -1.8229   -1.9962 C   0  0  1  0  0  0  0  0  0  0  0  0
    3.9896   -1.7159   -3.3868 O   0  0  0  0  0  0  0  0  0  0  0  0
    3.4221   -3.0245   -3.5419 C   0  0  0  0  0  0  0  0  0  0  0  0
    5.0054   -3.1825    5.7742 H   0  0  0  0  0  0  0  0  0  0  0  0
    4.2842   -4.5560    6.5969 H   0  0  0  0  0  0  0  0  0  0  0  0
    3.4133   -3.0320    6.4954 H   0  0  0  0  0  0  0  0  0  0  0  0
    2.3813   -5.5049    5.5499 H   0  0  0  0  0  0  0  0  0  0  0  0
    2.0924   -2.9165    3.4153 H   0  0  0  0  0  0  0  0  0  0  0  0
    3.5148   -2.0604    3.9857 H   0  0  0  0  0  0  0  0  0  0  0  0
    2.6693   -5.2866    2.3501 H   0  0  0  0  0  0  0  0  0  0  0  0
    4.5278   -6.8613    1.5872 H   0  0  0  0  0  0  0  0  0  0  0  0
    3.9549   -5.7966    0.3623 H   0  0  0  0  0  0  0  0  0  0  0  0
    6.5851   -5.9130    1.7459 H   0  0  0  0  0  0  0  0  0  0  0  0
    6.3202   -5.6153    0.0899 H   0  0  0  0  0  0  0  0  0  0  0  0
    7.2555   -3.8549    1.6824 H   0  0  0  0  0  0  0  0  0  0  0  0
    5.8083   -2.6113    3.1689 H   0  0  0  0  0  0  0  0  0  0  0  0
    4.3152   -6.1595    4.1853 H   0  0  0  0  0  0  0  0  0  0  0  0
    7.3490   -0.9903   -0.1753 H   0  0  0  0  0  0  0  0  0  0  0  0
    8.2528   -2.3949    0.3022 H   0  0  0  0  0  0  0  0  0  0  0  0
    7.3946   -1.4416    1.4893 H   0  0  0  0  0  0  0  0  0  0  0  0
    6.5305   -2.4660   -1.8373 H   0  0  0  0  0  0  0  0  0  0  0  0
    7.1458   -3.8660   -1.1480 H   0  0  0  0  0  0  0  0  0  0  0  0
    5.5028   -4.2969   -2.8260 H   0  0  0  0  0  0  0  0  0  0  0  0
    4.9171   -5.0044   -1.4003 H   0  0  0  0  0  0  0  0  0  0  0  0
    1.9504   -4.4343   -1.5399 H   0  0  0  0  0  0  0  0  0  0  0  0
    1.8806   -3.9761    0.7292 H   0  0  0  0  0  0  0  0  0  0  0  0
    2.8318   -1.9169    1.3734 H   0  0  0  0  0  0  0  0  0  0  0  0
    4.0190   -0.0306    1.5222 H   0  0  0  0  0  0  0  0  0  0  0  0
    5.6855    0.1105    1.0571 H   0  0  0  0  0  0  0  0  0  0  0  0
    5.2165   -0.8584    2.4224 H   0  0  0  0  0  0  0  0  0  0  0  0
    3.5991   -0.3675   -0.5646 H   0  0  0  0  0  0  0  0  0  0  0  0
    5.3548    0.5678   -1.2476 H   0  0  0  0  0  0  0  0  0  0  0  0
    2.6000   -1.5479   -1.9218 H   0  0  0  0  0  0  0  0  0  0  0  0
    3.9586   -3.6529   -4.2548 H   0  0  0  0  0  0  0  0  0  0  0  0
    2.3498   -3.0264   -3.7660 H   0  0  0  0  0  0  0  0  0  0  0  0
  1  2  1  0
  1 28  1  0
  1 29  1  0
  1 30  1  0
  2 12  1  0
  2  3  1  1
  2  4  1  0
  3 31  1  0
  5  4  1  1
  4 32  1  0
  4 33  1  0
  5 10  1  0
  5 20  1  0
  5  6  1  0
  6 12  1  0
  6  7  1  0
  6 34  1  1
  7  8  1  0
  7 35  1  0
  7 36  1  0
  8  9  1  0
  8 37  1  0
  8 38  1  0
  9 10  1  0
  9 13  1  0
  9 39  1  1
 10 11  1  0
 10 40  1  1
 11 12  1  0
 12 41  1  1
 13 21  1  0
 13 14  1  1
 13 15  1  0
 14 42  1  0
 14 43  1  0
 14 44  1  0
 15 16  1  0
 15 45  1  0
 15 46  1  0
 17 16  1  6
 16 47  1  0
 16 48  1  0
 17 25  1  0
 17 27  1  0
 17 18  1  0
 18 19  2  0
 18 49  1  0
 19 20  1  0
 19 50  1  0
 20 21  1  0
 20 51  1  1
 21 22  1  1
 21 23  1  0
 22 52  1  0
 22 53  1  0
 22 54  1  0
 23 24  1  0
 23 25  1  0
 23 55  1  1
 24 56  1  0
 25 26  1  0
 25 57  1  6
 26 27  1  0
 27 58  1  0
 27 59  1  0
M  END
>  <i_m_ct_stereo_status>  (130) 
1

>  <s_m_source_file>  (130) 
/var/tmp/pbs.5076255.sched01/tmpqwfmwtcs/46j3o47u_k.sdf

>  <i_m_source_file_index>  (130) 
3

>  <i_lp_mmshare_version>  (130) 
48012

>  <i_f3d_flags>  (130) 
0

>  <s_epik_input>  (130) 
W0NIM11bQ0BAXShbT0hdKShbQ0gyXTEpW0NAQEhdKFtDQEhdMltDQEBdMTM0KU9bQ0BIXTNbQ0hdKFtDSDJdW0NIMl0yKVtDQF01KFtDSDNdKVtDQF02KFtDSDNdKVtDQEhdNFtDSF09W0NIXVtDQF03KFtDSDJdW0NIMl01KVtDQEBIXShbQ0BASF02W09IXSlPW0NIMl03

>  <s_epik_cmdline>  (130) 
J2VwaWtfcHl0aG9uJywgJy1waHQnLCAnMi4wJywgJy1waCcsICc3LjAnLCAnLXRuJywgJzgnLCAnLW1hJywgJzIwMCcsICctaW1hZScsICc8aW5maWxlLm1hZT4nLCAnLW9tYWUnLCAnPG91dGZpbGUubWFlPic=

>  <r_lp_tautomer_probability>  (130) 
1

>  <r_epik_Ionization_Penalty>  (130) 
1.88604e-07

>  <r_epik_Ionization_Penalty_Charging>  (130) 
0

>  <r_epik_Ionization_Penalty_Neutral>  (130) 
1.88604e-07

>  <r_epik_State_Penalty>  (130) 
-0

>  <r_epik_Charging_Adjusted_Penalty>  (130) 
0

>  <i_epik_Tot_Q>  (130) 
0

>  <i_epik_Tot_abs_Q>  (130) 
0

>  <s_lp_Force_Field>  (130) 
OPLS3e

>  <r_lp_Energy>  (130) 
118.96

>  <b_lp_Chiralities_Consistent>  (130) 
1

>  <s_lp_Variant>  (130) 
33:0-1

>  <s_i_glide_gridfile>  (130) 
pfpi4k_grid

>  <i_i_glide_lignum>  (130) 
3

>  <i_i_glide_rotatable_bonds>  (130) 
2

>  <r_i_docking_score>  (130) 
-3.60575

>  <r_i_glide_ligand_efficiency>  (130) 
-0.133546

>  <r_i_glide_ligand_efficiency_sa>  (130) 
-0.400639

>  <r_i_glide_ligand_efficiency_ln>  (130) 
-0.839358

>  <r_i_glide_gscore>  (130) 
-3.60575

>  <r_i_glide_lipo>  (130) 
-0.793068

>  <r_i_glide_hbond>  (130) 
0

>  <r_i_glide_metal>  (130) 
-0

>  <r_i_glide_rewards>  (130) 
-0.869333

>  <r_i_glide_evdw>  (130) 
-13.6089

>  <r_i_glide_ecoul>  (130) 
-8.41935

>  <r_i_glide_erotb>  (130) 
0

>  <r_i_glide_esite>  (130) 
0

>  <r_i_glide_emodel>  (130) 
-27.3046

>  <r_i_glide_energy>  (130) 
-22.0282

>  <r_i_glide_einternal>  (130) 
1.08399

>  <r_i_glide_intrahb_reward>  (130) 
-0

>  <i_i_glide_confnum>  (130) 
1

>  <i_i_glide_posenum>  (130) 
2

>  <r_i_glide_eff_state_penalty>  (130) 
0

>  <ligand_id>  (130) 
33

>  <original_smiles>  (130) 
CC1(O)CC23C4CCC(C2OC41)C1(C)CCC24C=CC3C1(C)C(O)C2OC4

>  <smiles>  (130) 
[H]OC1([H])C2([H])OC([H])([H])C23C([H])=C([H])C2([H])C45C([H])([H])C(O[H])(C([H])([H])[H])C6([H])OC4([H])C([H])(C([H])([H])C([H])([H])C65[H])C(C([H])([H])[H])(C([H])([H])C3([H])[H])C12C([H])([H])[H]

$$$$
33:0:1
     RDKit          3D

 59 65  0  0  1  0  0  0  0  0999 V2000
    3.8957   -3.3717   -3.9393 C   0  0  0  0  0  0  0  0  0  0  0  0
    3.9262   -2.5113   -2.6715 C   0  0  1  0  0  0  0  0  0  0  0  0
    3.5979   -1.1915   -3.0609 O   0  0  0  0  0  0  0  0  0  0  0  0
    2.9815   -3.0127   -1.5667 C   0  0  0  0  0  0  0  0  0  0  0  0
    3.9193   -3.2432   -0.3570 C   0  0  2  0  0  0  0  0  0  0  0  0
    4.9320   -2.0940   -0.5080 C   0  0  1  0  0  0  0  0  0  0  0  0
    6.1376   -2.1115    0.4686 C   0  0  0  0  0  0  0  0  0  0  0  0
    6.7326   -3.5162    0.7180 C   0  0  0  0  0  0  0  0  0  0  0  0
    5.7399   -4.6957    0.5285 C   0  0  2  0  0  0  0  0  0  0  0  0
    4.8866   -4.3867   -0.7030 C   0  0  2  0  0  0  0  0  0  0  0  0
    5.6870   -3.8449   -1.7549 O   0  0  0  0  0  0  0  0  0  0  0  0
    5.2825   -2.4937   -1.9366 C   0  0  1  0  0  0  0  0  0  0  0  0
    4.8743   -5.2519    1.7475 C   0  0  1  0  0  0  0  0  0  0  0  0
    5.0227   -6.8016    1.6094 C   0  0  0  0  0  0  0  0  0  0  0  0
    5.5362   -4.9570    3.1262 C   0  0  0  0  0  0  0  0  0  0  0  0
    5.4146   -3.5585    3.7585 C   0  0  0  0  0  0  0  0  0  0  0  0
    4.0319   -3.0095    4.0494 C   0  0  1  0  0  0  0  0  0  0  0  0
    3.6775   -1.8908    3.1143 C   0  0  0  0  0  0  0  0  0  0  0  0
    3.2705   -2.0945    1.8444 C   0  0  0  0  0  0  0  0  0  0  0  0
    3.1602   -3.3966    1.0224 C   0  0  2  0  0  0  0  0  0  0  0  0
    3.3219   -4.8307    1.7108 C   0  0  1  0  0  0  0  0  0  0  0  0
    2.4622   -5.8070    0.8339 C   0  0  0  0  0  0  0  0  0  0  0  0
    2.5672   -4.9835    3.1069 C   0  0  1  0  0  0  0  0  0  0  0  0
    2.7316   -6.2459    3.7249 O   0  0  0  0  0  0  0  0  0  0  0  0
    2.7860   -3.8744    4.1137 C   0  0  1  0  0  0  0  0  0  0  0  0
    3.0301   -4.1314    5.5138 O   0  0  0  0  0  0  0  0  0  0  0  0
    3.7031   -2.8418    5.5442 C   0  0  0  0  0  0  0  0  0  0  0  0
    4.1451   -4.4138   -3.7453 H   0  0  0  0  0  0  0  0  0  0  0  0
    4.6146   -3.0078   -4.6677 H   0  0  0  0  0  0  0  0  0  0  0  0
    2.9069   -3.3489   -4.4014 H   0  0  0  0  0  0  0  0  0  0  0  0
    2.8667   -0.8932   -2.5345 H   0  0  0  0  0  0  0  0  0  0  0  0
    2.2276   -2.2605   -1.3437 H   0  0  0  0  0  0  0  0  0  0  0  0
    2.4426   -3.9155   -1.8479 H   0  0  0  0  0  0  0  0  0  0  0  0
    4.4590   -1.1086   -0.4950 H   0  0  0  0  0  0  0  0  0  0  0  0
    6.9245   -1.4608    0.0863 H   0  0  0  0  0  0  0  0  0  0  0  0
    5.8424   -1.6569    1.4091 H   0  0  0  0  0  0  0  0  0  0  0  0
    7.5267   -3.6523   -0.0202 H   0  0  0  0  0  0  0  0  0  0  0  0
    7.2646   -3.5614    1.6623 H   0  0  0  0  0  0  0  0  0  0  0  0
    6.4063   -5.5015    0.2237 H   0  0  0  0  0  0  0  0  0  0  0  0
    4.4375   -5.2809   -1.1115 H   0  0  0  0  0  0  0  0  0  0  0  0
    6.0479   -1.8806   -2.4089 H   0  0  0  0  0  0  0  0  0  0  0  0
    4.4467   -7.3671    2.3397 H   0  0  0  0  0  0  0  0  0  0  0  0
    6.0590   -7.1179    1.7439 H   0  0  0  0  0  0  0  0  0  0  0  0
    4.7261   -7.1607    0.6217 H   0  0  0  0  0  0  0  0  0  0  0  0
    5.1797   -5.6616    3.8726 H   0  0  0  0  0  0  0  0  0  0  0  0
    6.5954   -5.1957    3.0584 H   0  0  0  0  0  0  0  0  0  0  0  0
    5.9633   -3.6284    4.7003 H   0  0  0  0  0  0  0  0  0  0  0  0
    5.9745   -2.8101    3.2044 H   0  0  0  0  0  0  0  0  0  0  0  0
    3.7072   -0.8894    3.5140 H   0  0  0  0  0  0  0  0  0  0  0  0
    2.9929   -1.2149    1.2809 H   0  0  0  0  0  0  0  0  0  0  0  0
    2.1045   -3.3390    0.7707 H   0  0  0  0  0  0  0  0  0  0  0  0
    1.4215   -5.4891    0.7857 H   0  0  0  0  0  0  0  0  0  0  0  0
    2.4391   -6.8230    1.2316 H   0  0  0  0  0  0  0  0  0  0  0  0
    2.7707   -5.8872   -0.1979 H   0  0  0  0  0  0  0  0  0  0  0  0
    1.4939   -4.9631    2.9082 H   0  0  0  0  0  0  0  0  0  0  0  0
    3.6499   -6.3548    3.9285 H   0  0  0  0  0  0  0  0  0  0  0  0
    1.9089   -3.2198    4.0563 H   0  0  0  0  0  0  0  0  0  0  0  0
    4.5746   -2.8304    6.2023 H   0  0  0  0  0  0  0  0  0  0  0  0
    3.0268   -2.0181    5.7810 H   0  0  0  0  0  0  0  0  0  0  0  0
  1  2  1  0
  1 28  1  0
  1 29  1  0
  1 30  1  0
  2 12  1  0
  2  3  1  6
  2  4  1  0
  3 31  1  0
  5  4  1  6
  4 32  1  0
  4 33  1  0
  5 10  1  0
  5 20  1  0
  5  6  1  0
  6 12  1  0
  6  7  1  0
  6 34  1  6
  7  8  1  0
  7 35  1  0
  7 36  1  0
  8  9  1  0
  8 37  1  0
  8 38  1  0
  9 10  1  0
  9 13  1  0
  9 39  1  6
 10 11  1  0
 10 40  1  6
 11 12  1  0
 12 41  1  6
 13 21  1  0
 13 14  1  6
 13 15  1  0
 14 42  1  0
 14 43  1  0
 14 44  1  0
 15 16  1  0
 15 45  1  0
 15 46  1  0
 17 16  1  1
 16 47  1  0
 16 48  1  0
 17 25  1  0
 17 27  1  0
 17 18  1  0
 18 19  2  0
 18 49  1  0
 19 20  1  0
 19 50  1  0
 20 21  1  0
 20 51  1  6
 21 22  1  6
 21 23  1  0
 22 52  1  0
 22 53  1  0
 22 54  1  0
 23 24  1  0
 23 25  1  0
 23 55  1  6
 24 56  1  0
 25 26  1  0
 25 57  1  1
 26 27  1  0
 27 58  1  0
 27 59  1  0
M  END
>  <i_m_ct_stereo_status>  (131) 
1

>  <s_m_source_file>  (131) 
/var/tmp/pbs.5076255.sched01/tmpqwfmwtcs/46j3o47u_k.sdf

>  <i_m_source_file_index>  (131) 
3

>  <i_lp_mmshare_version>  (131) 
48012

>  <i_f3d_flags>  (131) 
0

>  <s_epik_input>  (131) 
W0NIM11bQ0BAXShbT0hdKShbQ0gyXTEpW0NAQEhdKFtDQEhdMltDQEBdMTM0KU9bQ0BIXTNbQ0hdKFtDSDJdW0NIMl0yKVtDQF01KFtDSDNdKVtDQF02KFtDSDNdKVtDQEhdNFtDSF09W0NIXVtDQF03KFtDSDJdW0NIMl01KVtDQEBIXShbQ0BASF02W09IXSlPW0NIMl03

>  <s_epik_cmdline>  (131) 
J2VwaWtfcHl0aG9uJywgJy1waHQnLCAnMi4wJywgJy1waCcsICc3LjAnLCAnLXRuJywgJzgnLCAnLW1hJywgJzIwMCcsICctaW1hZScsICc8aW5maWxlLm1hZT4nLCAnLW9tYWUnLCAnPG91dGZpbGUubWFlPic=

>  <r_lp_tautomer_probability>  (131) 
1

>  <r_epik_Ionization_Penalty>  (131) 
1.88604e-07

>  <r_epik_Ionization_Penalty_Charging>  (131) 
0

>  <r_epik_Ionization_Penalty_Neutral>  (131) 
1.88604e-07

>  <r_epik_State_Penalty>  (131) 
-0

>  <r_epik_Charging_Adjusted_Penalty>  (131) 
0

>  <i_epik_Tot_Q>  (131) 
0

>  <i_epik_Tot_abs_Q>  (131) 
0

>  <s_lp_Force_Field>  (131) 
OPLS3e

>  <r_lp_Energy>  (131) 
118.96

>  <b_lp_Chiralities_Consistent>  (131) 
1

>  <s_lp_Variant>  (131) 
33:0-1

>  <s_i_glide_gridfile>  (131) 
pfpi4k_grid

>  <i_i_glide_lignum>  (131) 
3

>  <i_i_glide_rotatable_bonds>  (131) 
2

>  <r_i_docking_score>  (131) 
-3.06088

>  <r_i_glide_ligand_efficiency>  (131) 
-0.113366

>  <r_i_glide_ligand_efficiency_sa>  (131) 
-0.340098

>  <r_i_glide_ligand_efficiency_ln>  (131) 
-0.712522

>  <r_i_glide_gscore>  (131) 
-3.06088

>  <r_i_glide_lipo>  (131) 
-0.559827

>  <r_i_glide_hbond>  (131) 
0

>  <r_i_glide_metal>  (131) 
-0

>  <r_i_glide_rewards>  (131) 
-0.869333

>  <r_i_glide_evdw>  (131) 
-26.1873

>  <r_i_glide_ecoul>  (131) 
-2.14903

>  <r_i_glide_erotb>  (131) 
0

>  <r_i_glide_esite>  (131) 
0

>  <r_i_glide_emodel>  (131) 
-32.9034

>  <r_i_glide_energy>  (131) 
-28.3363

>  <r_i_glide_einternal>  (131) 
1.21351

>  <r_i_glide_intrahb_reward>  (131) 
-0

>  <i_i_glide_confnum>  (131) 
1

>  <i_i_glide_posenum>  (131) 
7

>  <r_i_glide_eff_state_penalty>  (131) 
0

>  <ligand_id>  (131) 
33

>  <original_smiles>  (131) 
CC1(O)CC23C4CCC(C2OC41)C1(C)CCC24C=CC3C1(C)C(O)C2OC4

>  <smiles>  (131) 
[H]OC1([H])C2([H])OC([H])([H])C23C([H])=C([H])C2([H])C45C([H])([H])C(O[H])(C([H])([H])[H])C6([H])OC4([H])C([H])(C([H])([H])C([H])([H])C65[H])C(C([H])([H])[H])(C([H])([H])C3([H])[H])C12C([H])([H])[H]

$$$$
33:0:2
     RDKit          3D

 59 65  0  0  1  0  0  0  0  0999 V2000
    5.5496   -1.2898    0.0095 C   0  0  0  0  0  0  0  0  0  0  0  0
    4.2182   -2.0588    0.0764 C   0  0  1  0  0  0  0  0  0  0  0  0
    3.4173   -1.5076   -0.9604 O   0  0  0  0  0  0  0  0  0  0  0  0
    4.3705   -3.5854   -0.1090 C   0  0  0  0  0  0  0  0  0  0  0  0
    3.7733   -4.1786    1.1915 C   0  0  2  0  0  0  0  0  0  0  0  0
    2.6158   -3.2063    1.4856 C   0  0  1  0  0  0  0  0  0  0  0  0
    1.8656   -3.4212    2.8296 C   0  0  0  0  0  0  0  0  0  0  0  0
    2.7813   -3.7585    4.0228 C   0  0  0  0  0  0  0  0  0  0  0  0
    4.1234   -4.4415    3.6439 C   0  0  2  0  0  0  0  0  0  0  0  0
    4.6580   -3.7615    2.3764 C   0  0  2  0  0  0  0  0  0  0  0  0
    4.4864   -2.3426    2.4460 O   0  0  0  0  0  0  0  0  0  0  0  0
    3.5231   -1.9794    1.4567 C   0  0  1  0  0  0  0  0  0  0  0  0
    4.2404   -6.0293    3.5869 C   0  0  1  0  0  0  0  0  0  0  0  0
    5.5808   -6.3086    4.3428 C   0  0  0  0  0  0  0  0  0  0  0  0
    3.1758   -6.7374    4.4798 C   0  0  0  0  0  0  0  0  0  0  0  0
    1.7214   -6.8890    4.0002 C   0  0  0  0  0  0  0  0  0  0  0  0
    1.4860   -7.6541    2.6944 C   0  0  1  0  0  0  0  0  0  0  0  0
    1.0688   -6.7320    1.5810 C   0  0  0  0  0  0  0  0  0  0  0  0
    1.9438   -5.9569    0.8986 C   0  0  0  0  0  0  0  0  0  0  0  0
    3.4547   -5.7259    1.0967 C   0  0  2  0  0  0  0  0  0  0  0  0
    4.3042   -6.6398    2.0987 C   0  0  1  0  0  0  0  0  0  0  0  0
    5.7621   -6.6334    1.5137 C   0  0  0  0  0  0  0  0  0  0  0  0
    3.9766   -8.1989    2.0070 C   0  0  1  0  0  0  0  0  0  0  0  0
    4.7040   -9.0152    2.9078 O   0  0  0  0  0  0  0  0  0  0  0  0
    2.5105   -8.5762    2.0545 C   0  0  1  0  0  0  0  0  0  0  0  0
    2.0239   -9.6793    2.8450 O   0  0  0  0  0  0  0  0  0  0  0  0
    0.7424   -8.9926    2.8610 C   0  0  0  0  0  0  0  0  0  0  0  0
    6.2853   -1.6534    0.7257 H   0  0  0  0  0  0  0  0  0  0  0  0
    5.3961   -0.2305    0.2075 H   0  0  0  0  0  0  0  0  0  0  0  0
    5.9893   -1.3728   -0.9814 H   0  0  0  0  0  0  0  0  0  0  0  0
    2.4882   -1.4584   -0.7134 H   0  0  0  0  0  0  0  0  0  0  0  0
    3.8212   -3.9254   -0.9884 H   0  0  0  0  0  0  0  0  0  0  0  0
    5.4090   -3.8906   -0.2435 H   0  0  0  0  0  0  0  0  0  0  0  0
    1.9021   -3.1509    0.6650 H   0  0  0  0  0  0  0  0  0  0  0  0
    1.2868   -2.5260    3.0645 H   0  0  0  0  0  0  0  0  0  0  0  0
    1.1230   -4.2053    2.7097 H   0  0  0  0  0  0  0  0  0  0  0  0
    3.0280   -2.8067    4.4972 H   0  0  0  0  0  0  0  0  0  0  0  0
    2.2387   -4.2826    4.8027 H   0  0  0  0  0  0  0  0  0  0  0  0
    4.7748   -4.1022    4.4491 H   0  0  0  0  0  0  0  0  0  0  0  0
    5.7223   -3.9200    2.2470 H   0  0  0  0  0  0  0  0  0  0  0  0
    3.0323   -1.0263    1.6618 H   0  0  0  0  0  0  0  0  0  0  0  0
    5.8617   -7.3599    4.3563 H   0  0  0  0  0  0  0  0  0  0  0  0
    5.5208   -6.0032    5.3892 H   0  0  0  0  0  0  0  0  0  0  0  0
    6.4218   -5.7556    3.9190 H   0  0  0  0  0  0  0  0  0  0  0  0
    3.5235   -7.7379    4.7274 H   0  0  0  0  0  0  0  0  0  0  0  0
    3.1509   -6.2408    5.4480 H   0  0  0  0  0  0  0  0  0  0  0  0
    1.2117   -7.4139    4.8058 H   0  0  0  0  0  0  0  0  0  0  0  0
    1.1921   -5.9449    3.9692 H   0  0  0  0  0  0  0  0  0  0  0  0
    0.0271   -6.7696    1.2928 H   0  0  0  0  0  0  0  0  0  0  0  0
    1.5441   -5.3851    0.0732 H   0  0  0  0  0  0  0  0  0  0  0  0
    3.7956   -6.0380    0.1081 H   0  0  0  0  0  0  0  0  0  0  0  0
    5.7730   -7.0064    0.4873 H   0  0  0  0  0  0  0  0  0  0  0  0
    6.4413   -7.2809    2.0718 H   0  0  0  0  0  0  0  0  0  0  0  0
    6.2429   -5.6671    1.4564 H   0  0  0  0  0  0  0  0  0  0  0  0
    4.3300   -8.5562    1.0370 H   0  0  0  0  0  0  0  0  0  0  0  0
    4.4774   -9.9147    2.7293 H   0  0  0  0  0  0  0  0  0  0  0  0
    2.2094   -8.7792    1.0170 H   0  0  0  0  0  0  0  0  0  0  0  0
    0.2049   -9.1076    3.8027 H   0  0  0  0  0  0  0  0  0  0  0  0
    0.1025   -9.2812    2.0243 H   0  0  0  0  0  0  0  0  0  0  0  0
  1  2  1  0
  1 28  1  0
  1 29  1  0
  1 30  1  0
  2 12  1  0
  2  3  1  6
  2  4  1  0
  3 31  1  0
  5  4  1  6
  4 32  1  0
  4 33  1  0
  5 10  1  0
  5 20  1  0
  5  6  1  0
  6 12  1  0
  6  7  1  0
  6 34  1  6
  7  8  1  0
  7 35  1  0
  7 36  1  0
  8  9  1  0
  8 37  1  0
  8 38  1  0
  9 10  1  0
  9 13  1  0
  9 39  1  1
 10 11  1  0
 10 40  1  6
 11 12  1  0
 12 41  1  1
 13 21  1  0
 13 14  1  1
 13 15  1  0
 14 42  1  0
 14 43  1  0
 14 44  1  0
 15 16  1  0
 15 45  1  0
 15 46  1  0
 17 16  1  1
 16 47  1  0
 16 48  1  0
 17 25  1  0
 17 27  1  0
 17 18  1  0
 18 19  2  0
 18 49  1  0
 19 20  1  0
 19 50  1  0
 20 21  1  0
 20 51  1  6
 21 22  1  6
 21 23  1  0
 22 52  1  0
 22 53  1  0
 22 54  1  0
 23 24  1  0
 23 25  1  0
 23 55  1  6
 24 56  1  0
 25 26  1  0
 25 57  1  6
 26 27  1  0
 27 58  1  0
 27 59  1  0
M  END
>  <i_m_ct_stereo_status>  (132) 
1

>  <s_m_source_file>  (132) 
/var/tmp/pbs.5076255.sched01/tmpqwfmwtcs/46j3o47u_k.sdf

>  <i_m_source_file_index>  (132) 
3

>  <i_lp_mmshare_version>  (132) 
48012

>  <i_f3d_flags>  (132) 
0

>  <s_epik_input>  (132) 
W0NIM11bQ0BAXShbT0hdKShbQ0gyXTEpW0NAQEhdKFtDQEhdMltDQEBdMTM0KU9bQ0BIXTNbQ0hdKFtDSDJdW0NIMl0yKVtDQF01KFtDSDNdKVtDQF02KFtDSDNdKVtDQEhdNFtDSF09W0NIXVtDQF03KFtDSDJdW0NIMl01KVtDQEBIXShbQ0BASF02W09IXSlPW0NIMl03

>  <s_epik_cmdline>  (132) 
J2VwaWtfcHl0aG9uJywgJy1waHQnLCAnMi4wJywgJy1waCcsICc3LjAnLCAnLXRuJywgJzgnLCAnLW1hJywgJzIwMCcsICctaW1hZScsICc8aW5maWxlLm1hZT4nLCAnLW9tYWUnLCAnPG91dGZpbGUubWFlPic=

>  <r_lp_tautomer_probability>  (132) 
1

>  <r_epik_Ionization_Penalty>  (132) 
1.88604e-07

>  <r_epik_Ionization_Penalty_Charging>  (132) 
0

>  <r_epik_Ionization_Penalty_Neutral>  (132) 
1.88604e-07

>  <r_epik_State_Penalty>  (132) 
-0

>  <r_epik_Charging_Adjusted_Penalty>  (132) 
0

>  <i_epik_Tot_Q>  (132) 
0

>  <i_epik_Tot_abs_Q>  (132) 
0

>  <s_lp_Force_Field>  (132) 
OPLS3e

>  <r_lp_Energy>  (132) 
118.96

>  <b_lp_Chiralities_Consistent>  (132) 
1

>  <s_lp_Variant>  (132) 
33:0-1

>  <s_i_glide_gridfile>  (132) 
pfpi4k_grid

>  <i_i_glide_lignum>  (132) 
3

>  <i_i_glide_rotatable_bonds>  (132) 
2

>  <r_i_docking_score>  (132) 
-2.95328

>  <r_i_glide_ligand_efficiency>  (132) 
-0.109381

>  <r_i_glide_ligand_efficiency_sa>  (132) 
-0.328142

>  <r_i_glide_ligand_efficiency_ln>  (132) 
-0.687474

>  <r_i_glide_gscore>  (132) 
-2.95328

>  <r_i_glide_lipo>  (132) 
-0.177997

>  <r_i_glide_hbond>  (132) 
-0.16

>  <r_i_glide_metal>  (132) 
-0

>  <r_i_glide_rewards>  (132) 
-0.869333

>  <r_i_glide_evdw>  (132) 
-24.4855

>  <r_i_glide_ecoul>  (132) 
-3.47782

>  <r_i_glide_erotb>  (132) 
0

>  <r_i_glide_esite>  (132) 
0

>  <r_i_glide_emodel>  (132) 
-32.0905

>  <r_i_glide_energy>  (132) 
-27.9633

>  <r_i_glide_einternal>  (132) 
1.07736

>  <r_i_glide_intrahb_reward>  (132) 
-0

>  <i_i_glide_confnum>  (132) 
2

>  <i_i_glide_posenum>  (132) 
5

>  <r_i_glide_eff_state_penalty>  (132) 
0

>  <ligand_id>  (132) 
33

>  <original_smiles>  (132) 
CC1(O)CC23C4CCC(C2OC41)C1(C)CCC24C=CC3C1(C)C(O)C2OC4

>  <smiles>  (132) 
[H]OC1([H])C2([H])OC([H])([H])C23C([H])=C([H])C2([H])C45C([H])([H])C(O[H])(C([H])([H])[H])C6([H])OC4([H])C([H])(C([H])([H])C([H])([H])C65[H])C(C([H])([H])[H])(C([H])([H])C3([H])[H])C12C([H])([H])[H]

$$$$
34:0:0
     RDKit          3D

 32 35  0  0  1  0  0  0  0  0999 V2000
    4.2551   -1.2161   -3.3001 C   0  0  0  0  0  0  0  0  0  0  0  0
    4.8849   -2.5503   -2.8277 C   0  0  0  0  0  0  0  0  0  0  0  0
    4.3399   -3.7262   -3.6485 C   0  0  0  0  0  0  0  0  0  0  0  0
    4.7808   -2.7942   -1.2936 C   0  0  2  0  0  0  0  0  0  0  0  0
    3.3428   -2.9182   -0.7742 C   0  0  0  0  0  0  0  0  0  0  0  0
    3.4391   -2.4609    0.5618 O   0  0  0  0  0  0  0  0  0  0  0  0
    4.6465   -1.7921    0.7620 C   0  0  1  0  0  0  0  0  0  0  0  0
    4.3359   -0.4087    1.3269 C   0  0  0  0  0  0  0  0  0  0  0  0
    5.3922   -2.4740    1.7118 O   0  0  0  0  0  0  0  0  0  0  0  0
    6.7031   -2.7341    1.2334 C   0  0  2  0  0  0  0  0  0  0  0  0
    6.4929   -4.1981    1.0773 O   0  0  0  0  0  0  0  0  0  0  0  0
    7.7117   -3.7520    0.6356 C   0  0  1  0  0  0  0  0  0  0  0  0
    7.7525   -2.9662   -0.6542 C   0  0  0  0  0  0  0  0  0  0  0  0
    6.7543   -1.9675   -0.0516 C   0  0  1  0  0  0  0  0  0  0  0  0
    5.3823   -1.7455   -0.4894 N   0  0  0  0  0  0  0  0  0  0  0  0
    3.1714   -1.2033   -3.1825 H   0  0  0  0  0  0  0  0  0  0  0  0
    4.4601   -1.0417   -4.3581 H   0  0  0  0  0  0  0  0  0  0  0  0
    4.6517   -0.3617   -2.7532 H   0  0  0  0  0  0  0  0  0  0  0  0
    5.9476   -2.4934   -3.0521 H   0  0  0  0  0  0  0  0  0  0  0  0
    3.2648   -3.8513   -3.5096 H   0  0  0  0  0  0  0  0  0  0  0  0
    4.8262   -4.6572   -3.3585 H   0  0  0  0  0  0  0  0  0  0  0  0
    4.5194   -3.5842   -4.7153 H   0  0  0  0  0  0  0  0  0  0  0  0
    5.2589   -3.7514   -1.0683 H   0  0  0  0  0  0  0  0  0  0  0  0
    2.6324   -2.2718   -1.2929 H   0  0  0  0  0  0  0  0  0  0  0  0
    2.9678   -3.9421   -0.8164 H   0  0  0  0  0  0  0  0  0  0  0  0
    3.8051   -0.5096    2.2734 H   0  0  0  0  0  0  0  0  0  0  0  0
    3.7173    0.1602    0.6394 H   0  0  0  0  0  0  0  0  0  0  0  0
    5.2613    0.1319    1.5161 H   0  0  0  0  0  0  0  0  0  0  0  0
    8.5911   -3.9035    1.2466 H   0  0  0  0  0  0  0  0  0  0  0  0
    8.7290   -2.5501   -0.8106 H   0  0  0  0  0  0  0  0  0  0  0  0
    7.4614   -3.5012   -1.5730 H   0  0  0  0  0  0  0  0  0  0  0  0
    7.2080   -0.9715    0.1026 H   0  0  0  0  0  0  0  0  0  0  0  0
  1  2  1  0
  1 16  1  0
  1 17  1  0
  1 18  1  0
  2  3  1  0
  2  4  1  0
  2 19  1  0
  3 20  1  0
  3 21  1  0
  3 22  1  0
  4 15  1  0
  4  5  1  0
  4 23  1  6
  5  6  1  0
  5 24  1  0
  5 25  1  0
  6  7  1  0
  7 15  1  0
  7  8  1  1
  7  9  1  0
  8 26  1  0
  8 27  1  0
  8 28  1  0
 10  9  1  6
 10 12  1  0
 10 14  1  0
 10 11  1  0
 11 12  1  0
 12 13  1  0
 12 29  1  1
 13 14  1  0
 13 30  1  0
 13 31  1  0
 14 15  1  0
 14 32  1  1
M  END
>  <i_m_ct_stereo_status>  (133) 
1

>  <s_m_source_file>  (133) 
/var/tmp/pbs.5076255.sched01/tmpqwfmwtcs/46j3o47u_k.sdf

>  <i_m_source_file_index>  (133) 
4

>  <i_lp_mmshare_version>  (133) 
48012

>  <i_f3d_flags>  (133) 
0

>  <s_epik_input>  (133) 
W0NIM11bQ0hdKFtDSDNdKVtDQEBIXTFbQ0gyXU9bQ0BdKE8yKShbQ0gzXSlOMVtDQEBIXTNbQ0gyXVtDQEBIXShbQ0BAXTIzNClPNA==

>  <s_epik_cmdline>  (133) 
J2VwaWtfcHl0aG9uJywgJy1waHQnLCAnMi4wJywgJy1waCcsICc3LjAnLCAnLXRuJywgJzgnLCAnLW1hJywgJzIwMCcsICctaW1hZScsICc8aW5maWxlLm1hZT4nLCAnLW9tYWUnLCAnPG91dGZpbGUubWFlPic=

>  <r_lp_tautomer_probability>  (133) 
1

>  <r_epik_Ionization_Penalty>  (133) 
4.11378e-06

>  <r_epik_Ionization_Penalty_Charging>  (133) 
0

>  <r_epik_Ionization_Penalty_Neutral>  (133) 
4.11378e-06

>  <r_epik_State_Penalty>  (133) 
-0

>  <r_epik_Charging_Adjusted_Penalty>  (133) 
0

>  <i_epik_Tot_Q>  (133) 
0

>  <i_epik_Tot_abs_Q>  (133) 
0

>  <s_lp_Force_Field>  (133) 
OPLS3e

>  <r_lp_Energy>  (133) 
25.1052

>  <b_lp_Chiralities_Consistent>  (133) 
1

>  <s_lp_Variant>  (133) 
34:0-1

>  <s_i_glide_gridfile>  (133) 
pfpi4k_grid

>  <i_i_glide_lignum>  (133) 
4

>  <i_i_glide_rotatable_bonds>  (133) 
1

>  <r_i_docking_score>  (133) 
-3.58046

>  <r_i_glide_ligand_efficiency>  (133) 
-0.238697

>  <r_i_glide_ligand_efficiency_sa>  (133) 
-0.588678

>  <r_i_glide_ligand_efficiency_ln>  (133) 
-0.965591

>  <r_i_glide_gscore>  (133) 
-3.58046

>  <r_i_glide_lipo>  (133) 
-0.612823

>  <r_i_glide_hbond>  (133) 
0

>  <r_i_glide_metal>  (133) 
-0

>  <r_i_glide_rewards>  (133) 
-2.06258

>  <r_i_glide_evdw>  (133) 
-18.6877

>  <r_i_glide_ecoul>  (133) 
0.195507

>  <r_i_glide_erotb>  (133) 
0

>  <r_i_glide_esite>  (133) 
0

>  <r_i_glide_emodel>  (133) 
-22.2043

>  <r_i_glide_energy>  (133) 
-18.4922

>  <r_i_glide_einternal>  (133) 
0.0224795

>  <r_i_glide_intrahb_reward>  (133) 
-0

>  <i_i_glide_confnum>  (133) 
1

>  <i_i_glide_posenum>  (133) 
15

>  <r_i_glide_eff_state_penalty>  (133) 
0

>  <ligand_id>  (133) 
34

>  <original_smiles>  (133) 
CC(C)C1COC2(C)OC34OC3CC4N12

>  <smiles>  (133) 
[H]C([H])([H])C12OC([H])([H])C([H])(C([H])(C([H])([H])[H])C([H])([H])[H])N1C1([H])C([H])([H])C3([H])OC31O2

$$$$
34:0:1
     RDKit          3D

 32 35  0  0  1  0  0  0  0  0999 V2000
    2.0731   -2.7952   -3.0116 C   0  0  0  0  0  0  0  0  0  0  0  0
    3.1407   -1.7381   -2.7209 C   0  0  0  0  0  0  0  0  0  0  0  0
    4.0995   -1.7045   -3.9365 C   0  0  0  0  0  0  0  0  0  0  0  0
    3.8513   -1.8933   -1.3305 C   0  0  2  0  0  0  0  0  0  0  0  0
    4.7614   -0.6921   -1.0203 C   0  0  0  0  0  0  0  0  0  0  0  0
    5.8189   -1.2401   -0.2727 O   0  0  0  0  0  0  0  0  0  0  0  0
    5.7667   -2.6328   -0.3057 C   0  0  1  0  0  0  0  0  0  0  0  0
    7.1635   -3.1395   -0.7002 C   0  0  0  0  0  0  0  0  0  0  0  0
    5.4910   -3.1165    0.9558 O   0  0  0  0  0  0  0  0  0  0  0  0
    4.4174   -4.0351    0.9842 C   0  0  2  0  0  0  0  0  0  0  0  0
    3.5270   -3.1730    1.7614 O   0  0  0  0  0  0  0  0  0  0  0  0
    2.8943   -4.2806    1.2479 C   0  0  1  0  0  0  0  0  0  0  0  0
    2.6532   -4.4384   -0.2233 C   0  0  0  0  0  0  0  0  0  0  0  0
    4.1343   -4.1844   -0.4934 C   0  0  1  0  0  0  0  0  0  0  0  0
    4.7163   -3.0514   -1.2037 N   0  0  0  0  0  0  0  0  0  0  0  0
    2.4929   -3.7997   -3.0085 H   0  0  0  0  0  0  0  0  0  0  0  0
    1.5969   -2.6520   -3.9794 H   0  0  0  0  0  0  0  0  0  0  0  0
    1.2760   -2.7506   -2.2808 H   0  0  0  0  0  0  0  0  0  0  0  0
    2.6246   -0.7694   -2.7007 H   0  0  0  0  0  0  0  0  0  0  0  0
    4.6466   -2.6396   -4.0140 H   0  0  0  0  0  0  0  0  0  0  0  0
    4.8058   -0.8884   -3.9038 H   0  0  0  0  0  0  0  0  0  0  0  0
    3.5243   -1.5792   -4.8512 H   0  0  0  0  0  0  0  0  0  0  0  0
    3.0903   -1.8959   -0.5437 H   0  0  0  0  0  0  0  0  0  0  0  0
    5.2475   -0.2701   -1.8921 H   0  0  0  0  0  0  0  0  0  0  0  0
    4.2774    0.1157   -0.4745 H   0  0  0  0  0  0  0  0  0  0  0  0
    7.8886   -2.8118    0.0530 H   0  0  0  0  0  0  0  0  0  0  0  0
    7.4738   -2.7624   -1.6719 H   0  0  0  0  0  0  0  0  0  0  0  0
    7.1649   -4.2320   -0.6996 H   0  0  0  0  0  0  0  0  0  0  0  0
    2.7748   -5.1577    1.8494 H   0  0  0  0  0  0  0  0  0  0  0  0
    2.3491   -5.4636   -0.4283 H   0  0  0  0  0  0  0  0  0  0  0  0
    1.8829   -3.7995   -0.6494 H   0  0  0  0  0  0  0  0  0  0  0  0
    4.6182   -5.0724   -0.8986 H   0  0  0  0  0  0  0  0  0  0  0  0
  1  2  1  0
  1 16  1  0
  1 17  1  0
  1 18  1  0
  2  3  1  0
  2  4  1  0
  2 19  1  0
  3 20  1  0
  3 21  1  0
  3 22  1  0
  4 15  1  0
  4  5  1  0
  4 23  1  1
  5  6  1  0
  5 24  1  0
  5 25  1  0
  6  7  1  0
  7 15  1  0
  7  8  1  6
  7  9  1  0
  8 26  1  0
  8 27  1  0
  8 28  1  0
 10  9  1  6
 10 12  1  0
 10 14  1  0
 10 11  1  0
 11 12  1  0
 12 13  1  0
 12 29  1  1
 13 14  1  0
 13 30  1  0
 13 31  1  0
 14 15  1  0
 14 32  1  6
M  END
>  <i_m_ct_stereo_status>  (134) 
1

>  <s_m_source_file>  (134) 
/var/tmp/pbs.5076255.sched01/tmpqwfmwtcs/46j3o47u_k.sdf

>  <i_m_source_file_index>  (134) 
4

>  <i_lp_mmshare_version>  (134) 
48012

>  <i_f3d_flags>  (134) 
0

>  <s_epik_input>  (134) 
W0NIM11bQ0hdKFtDSDNdKVtDQEBIXTFbQ0gyXU9bQ0BdKE8yKShbQ0gzXSlOMVtDQEBIXTNbQ0gyXVtDQEBIXShbQ0BAXTIzNClPNA==

>  <s_epik_cmdline>  (134) 
J2VwaWtfcHl0aG9uJywgJy1waHQnLCAnMi4wJywgJy1waCcsICc3LjAnLCAnLXRuJywgJzgnLCAnLW1hJywgJzIwMCcsICctaW1hZScsICc8aW5maWxlLm1hZT4nLCAnLW9tYWUnLCAnPG91dGZpbGUubWFlPic=

>  <r_lp_tautomer_probability>  (134) 
1

>  <r_epik_Ionization_Penalty>  (134) 
4.11378e-06

>  <r_epik_Ionization_Penalty_Charging>  (134) 
0

>  <r_epik_Ionization_Penalty_Neutral>  (134) 
4.11378e-06

>  <r_epik_State_Penalty>  (134) 
-0

>  <r_epik_Charging_Adjusted_Penalty>  (134) 
0

>  <i_epik_Tot_Q>  (134) 
0

>  <i_epik_Tot_abs_Q>  (134) 
0

>  <s_lp_Force_Field>  (134) 
OPLS3e

>  <r_lp_Energy>  (134) 
25.1052

>  <b_lp_Chiralities_Consistent>  (134) 
1

>  <s_lp_Variant>  (134) 
34:0-1

>  <s_i_glide_gridfile>  (134) 
pfpi4k_grid

>  <i_i_glide_lignum>  (134) 
4

>  <i_i_glide_rotatable_bonds>  (134) 
1

>  <r_i_docking_score>  (134) 
-3.27338

>  <r_i_glide_ligand_efficiency>  (134) 
-0.218225

>  <r_i_glide_ligand_efficiency_sa>  (134) 
-0.53819

>  <r_i_glide_ligand_efficiency_ln>  (134) 
-0.882776

>  <r_i_glide_gscore>  (134) 
-3.27338

>  <r_i_glide_lipo>  (134) 
-0.253479

>  <r_i_glide_hbond>  (134) 
0

>  <r_i_glide_metal>  (134) 
-0

>  <r_i_glide_rewards>  (134) 
-2.00287

>  <r_i_glide_evdw>  (134) 
-17.455

>  <r_i_glide_ecoul>  (134) 
-0.956374

>  <r_i_glide_erotb>  (134) 
0

>  <r_i_glide_esite>  (134) 
-0.000827768

>  <r_i_glide_emodel>  (134) 
-20.6042

>  <r_i_glide_energy>  (134) 
-18.4114

>  <r_i_glide_einternal>  (134) 
2.13846

>  <r_i_glide_intrahb_reward>  (134) 
-0

>  <i_i_glide_confnum>  (134) 
2

>  <i_i_glide_posenum>  (134) 
18

>  <r_i_glide_eff_state_penalty>  (134) 
0

>  <ligand_id>  (134) 
34

>  <original_smiles>  (134) 
CC(C)C1COC2(C)OC34OC3CC4N12

>  <smiles>  (134) 
[H]C([H])([H])C12OC([H])([H])C([H])(C([H])(C([H])([H])[H])C([H])([H])[H])N1C1([H])C([H])([H])C3([H])OC31O2

$$$$
34:0:2
     RDKit          3D

 32 35  0  0  1  0  0  0  0  0999 V2000
    3.1676   -1.6534   -4.1204 C   0  0  0  0  0  0  0  0  0  0  0  0
    3.3330   -1.3235   -2.6300 C   0  0  0  0  0  0  0  0  0  0  0  0
    4.5009   -0.3473   -2.4446 C   0  0  0  0  0  0  0  0  0  0  0  0
    3.4548   -2.6002   -1.7335 C   0  0  2  0  0  0  0  0  0  0  0  0
    2.1743   -3.4544   -1.7793 C   0  0  0  0  0  0  0  0  0  0  0  0
    2.1187   -4.0398   -0.4960 O   0  0  0  0  0  0  0  0  0  0  0  0
    2.9959   -3.3911    0.3781 C   0  0  1  0  0  0  0  0  0  0  0  0
    2.2205   -2.9344    1.6169 C   0  0  0  0  0  0  0  0  0  0  0  0
    3.9634   -4.2818    0.8196 O   0  0  0  0  0  0  0  0  0  0  0  0
    5.2549   -3.7541    0.6306 C   0  0  2  0  0  0  0  0  0  0  0  0
    5.6050   -4.7163   -0.4586 O   0  0  0  0  0  0  0  0  0  0  0  0
    6.5652   -3.7602   -0.2053 C   0  0  1  0  0  0  0  0  0  0  0  0
    6.2961   -2.3473   -0.6414 C   0  0  0  0  0  0  0  0  0  0  0  0
    4.9996   -2.3620    0.1854 C   0  0  1  0  0  0  0  0  0  0  0  0
    3.6390   -2.2999   -0.3330 N   0  0  0  0  0  0  0  0  0  0  0  0
    4.0334   -2.1937   -4.4992 H   0  0  0  0  0  0  0  0  0  0  0  0
    3.0552   -0.7422   -4.7101 H   0  0  0  0  0  0  0  0  0  0  0  0
    2.2832   -2.2635   -4.3007 H   0  0  0  0  0  0  0  0  0  0  0  0
    2.4490   -0.7710   -2.3176 H   0  0  0  0  0  0  0  0  0  0  0  0
    5.3997   -0.8187   -2.7698 H   0  0  0  0  0  0  0  0  0  0  0  0
    4.6112   -0.0587   -1.3996 H   0  0  0  0  0  0  0  0  0  0  0  0
    4.3903    0.5619   -3.0295 H   0  0  0  0  0  0  0  0  0  0  0  0
    4.2599   -3.2386   -2.0961 H   0  0  0  0  0  0  0  0  0  0  0  0
    1.2762   -2.8559   -1.9227 H   0  0  0  0  0  0  0  0  0  0  0  0
    2.1650   -4.1955   -2.5721 H   0  0  0  0  0  0  0  0  0  0  0  0
    1.7904   -3.8050    2.1215 H   0  0  0  0  0  0  0  0  0  0  0  0
    1.4228   -2.2381    1.3537 H   0  0  0  0  0  0  0  0  0  0  0  0
    2.8941   -2.4467    2.3258 H   0  0  0  0  0  0  0  0  0  0  0  0
    7.4590   -4.0207    0.3347 H   0  0  0  0  0  0  0  0  0  0  0  0
    7.0396   -1.6612   -0.2590 H   0  0  0  0  0  0  0  0  0  0  0  0
    6.2583   -2.2471   -1.7317 H   0  0  0  0  0  0  0  0  0  0  0  0
    5.0489   -1.6564    1.0243 H   0  0  0  0  0  0  0  0  0  0  0  0
  1  2  1  0
  1 16  1  0
  1 17  1  0
  1 18  1  0
  2  3  1  0
  2  4  1  0
  2 19  1  0
  3 20  1  0
  3 21  1  0
  3 22  1  0
  4 15  1  0
  4  5  1  0
  4 23  1  6
  5  6  1  0
  5 24  1  0
  5 25  1  0
  6  7  1  0
  7 15  1  0
  7  8  1  1
  7  9  1  0
  8 26  1  0
  8 27  1  0
  8 28  1  0
 10  9  1  6
 10 12  1  0
 10 14  1  0
 10 11  1  0
 11 12  1  0
 12 13  1  0
 12 29  1  1
 13 14  1  0
 13 30  1  0
 13 31  1  0
 14 15  1  0
 14 32  1  1
M  END
>  <i_m_ct_stereo_status>  (135) 
1

>  <s_m_source_file>  (135) 
/var/tmp/pbs.5076255.sched01/tmpqwfmwtcs/46j3o47u_k.sdf

>  <i_m_source_file_index>  (135) 
4

>  <i_lp_mmshare_version>  (135) 
48012

>  <i_f3d_flags>  (135) 
0

>  <s_epik_input>  (135) 
W0NIM11bQ0hdKFtDSDNdKVtDQEBIXTFbQ0gyXU9bQ0BdKE8yKShbQ0gzXSlOMVtDQEBIXTNbQ0gyXVtDQEBIXShbQ0BAXTIzNClPNA==

>  <s_epik_cmdline>  (135) 
J2VwaWtfcHl0aG9uJywgJy1waHQnLCAnMi4wJywgJy1waCcsICc3LjAnLCAnLXRuJywgJzgnLCAnLW1hJywgJzIwMCcsICctaW1hZScsICc8aW5maWxlLm1hZT4nLCAnLW9tYWUnLCAnPG91dGZpbGUubWFlPic=

>  <r_lp_tautomer_probability>  (135) 
1

>  <r_epik_Ionization_Penalty>  (135) 
4.11378e-06

>  <r_epik_Ionization_Penalty_Charging>  (135) 
0

>  <r_epik_Ionization_Penalty_Neutral>  (135) 
4.11378e-06

>  <r_epik_State_Penalty>  (135) 
-0

>  <r_epik_Charging_Adjusted_Penalty>  (135) 
0

>  <i_epik_Tot_Q>  (135) 
0

>  <i_epik_Tot_abs_Q>  (135) 
0

>  <s_lp_Force_Field>  (135) 
OPLS3e

>  <r_lp_Energy>  (135) 
25.1052

>  <b_lp_Chiralities_Consistent>  (135) 
1

>  <s_lp_Variant>  (135) 
34:0-1

>  <s_i_glide_gridfile>  (135) 
pfpi4k_grid

>  <i_i_glide_lignum>  (135) 
4

>  <i_i_glide_rotatable_bonds>  (135) 
1

>  <r_i_docking_score>  (135) 
-3.06701

>  <r_i_glide_ligand_efficiency>  (135) 
-0.204468

>  <r_i_glide_ligand_efficiency_sa>  (135) 
-0.50426

>  <r_i_glide_ligand_efficiency_ln>  (135) 
-0.827123

>  <r_i_glide_gscore>  (135) 
-3.06701

>  <r_i_glide_lipo>  (135) 
-0.305837

>  <r_i_glide_hbond>  (135) 
-1.51932e-05

>  <r_i_glide_metal>  (135) 
-0

>  <r_i_glide_rewards>  (135) 
-2.03127

>  <r_i_glide_evdw>  (135) 
-14.218

>  <r_i_glide_ecoul>  (135) 
-0.0222042

>  <r_i_glide_erotb>  (135) 
0

>  <r_i_glide_esite>  (135) 
-0.0156589

>  <r_i_glide_emodel>  (135) 
-17.1323

>  <r_i_glide_energy>  (135) 
-14.2403

>  <r_i_glide_einternal>  (135) 
0.447679

>  <r_i_glide_intrahb_reward>  (135) 
-0

>  <i_i_glide_confnum>  (135) 
1

>  <i_i_glide_posenum>  (135) 
1

>  <r_i_glide_eff_state_penalty>  (135) 
0

>  <ligand_id>  (135) 
34

>  <original_smiles>  (135) 
CC(C)C1COC2(C)OC34OC3CC4N12

>  <smiles>  (135) 
[H]C([H])([H])C12OC([H])([H])C([H])(C([H])(C([H])([H])[H])C([H])([H])[H])N1C1([H])C([H])([H])C3([H])OC31O2

$$$$
35:0:0
     RDKit          3D

 25 27  0  0  1  0  0  0  0  0999 V2000
    3.1268   -3.2783    1.2985 C   0  0  0  0  0  0  0  0  0  0  0  0
    4.2270   -4.1405    1.5818 O   0  0  0  0  0  0  0  0  0  0  0  0
    5.4547   -3.8506    1.0532 C   0  0  0  0  0  0  0  0  0  0  0  0
    6.6089   -4.3194    1.5120 C   0  0  0  0  0  0  0  0  0  0  0  0
    7.6691   -3.7570    0.6680 C   0  0  0  0  0  0  0  0  0  0  0  0
    8.8923   -3.8878    0.8405 O   0  0  0  0  0  0  0  0  0  0  0  0
    7.0783   -3.0183   -0.3250 O   0  0  0  0  0  0  0  0  0  0  0  0
    5.6837   -2.9558   -0.1271 C   0  0  2  0  0  0  0  0  0  0  0  0
    5.2280   -1.6652    0.1731 O   0  0  0  0  0  0  0  0  0  0  0  0
    5.1746   -0.7261   -0.8860 C   0  0  0  0  0  0  0  0  0  0  0  0
    4.4273   -1.2601   -2.0599 C   0  0  0  0  0  0  0  0  0  0  0  0
    3.6761   -0.5475   -3.0419 C   0  0  0  0  0  0  0  0  0  0  0  0
    3.0362   -1.3716   -3.9267 C   0  0  0  0  0  0  0  0  0  0  0  0
    3.4100   -3.0541   -3.6321 S   0  0  0  0  0  0  0  0  0  0  0  0
    4.3929   -2.5928   -2.2837 C   0  0  0  0  0  0  0  0  0  0  0  0
    5.0133   -3.5497   -1.3831 C   0  0  0  0  0  0  0  0  0  0  0  0
    5.0087   -4.7573   -1.5634 O   0  0  0  0  0  0  0  0  0  0  0  0
    2.1813   -3.6731    1.6974 H   0  0  0  0  0  0  0  0  0  0  0  0
    2.9469   -3.1017    0.2304 H   0  0  0  0  0  0  0  0  0  0  0  0
    3.3242   -2.3218    1.7876 H   0  0  0  0  0  0  0  0  0  0  0  0
    6.7516   -4.9335    2.3792 H   0  0  0  0  0  0  0  0  0  0  0  0
    4.6811    0.1371   -0.4828 H   0  0  0  0  0  0  0  0  0  0  0  0
    6.2008   -0.5385   -1.2144 H   0  0  0  0  0  0  0  0  0  0  0  0
    3.5757    0.5392   -3.0326 H   0  0  0  0  0  0  0  0  0  0  0  0
    2.3527   -1.1002   -4.7295 H   0  0  0  0  0  0  0  0  0  0  0  0
  1  2  1  0
  1 18  1  0
  1 19  1  0
  1 20  1  0
  2  3  1  0
  3  8  1  0
  3  4  2  0
  4  5  1  0
  4 21  1  0
  5  6  2  0
  5  7  1  0
  8  7  1  6
  8 16  1  0
  8  9  1  0
  9 10  1  0
 10 11  1  0
 10 22  1  0
 10 23  1  0
 11 15  2  0
 11 12  1  0
 12 13  2  0
 12 24  1  0
 13 14  1  0
 13 25  1  0
 14 15  1  0
 15 16  1  0
 16 17  2  0
M  END
>  <i_m_ct_stereo_status>  (136) 
1

>  <s_m_source_file>  (136) 
/var/tmp/pbs.5076255.sched01/tmpqwfmwtcs/46j3o47u_k.sdf

>  <i_m_source_file_index>  (136) 
5

>  <i_lp_mmshare_version>  (136) 
48012

>  <i_f3d_flags>  (136) 
0

>  <s_epik_input>  (136) 
Tz1DKE8xKVtDSF09QyhPW0NIM10pW0NAQF0xMk9bQ0gyXWMzYyhDMj1PKXNbY0hdW2NIXTM=

>  <s_epik_cmdline>  (136) 
J2VwaWtfcHl0aG9uJywgJy1waHQnLCAnMi4wJywgJy1waCcsICc3LjAnLCAnLXRuJywgJzgnLCAnLW1hJywgJzIwMCcsICctaW1hZScsICc8aW5maWxlLm1hZT4nLCAnLW9tYWUnLCAnPG91dGZpbGUubWFlPic=

>  <r_lp_tautomer_probability>  (136) 
1

>  <r_epik_Ionization_Penalty>  (136) 
0

>  <r_epik_Ionization_Penalty_Charging>  (136) 
0

>  <r_epik_Ionization_Penalty_Neutral>  (136) 
0

>  <r_epik_State_Penalty>  (136) 
-0

>  <r_epik_Charging_Adjusted_Penalty>  (136) 
0

>  <i_epik_Tot_Q>  (136) 
0

>  <i_epik_Tot_abs_Q>  (136) 
0

>  <s_epik_Chemistry_Notes>  (136) 
This compound has an ester and may undergo hydrolysis at high or low pH.

>  <s_lp_Force_Field>  (136) 
OPLS3e

>  <r_lp_Energy>  (136) 
9.6619

>  <b_lp_Chiralities_Consistent>  (136) 
1

>  <s_lp_Variant>  (136) 
35:0-1

>  <s_i_glide_gridfile>  (136) 
pfpi4k_grid

>  <i_i_glide_lignum>  (136) 
5

>  <i_i_glide_rotatable_bonds>  (136) 
1

>  <r_i_docking_score>  (136) 
-3.84922

>  <r_i_glide_ligand_efficiency>  (136) 
-0.226424

>  <r_i_glide_ligand_efficiency_sa>  (136) 
-0.582201

>  <r_i_glide_ligand_efficiency_ln>  (136) 
-1.00417

>  <r_i_glide_gscore>  (136) 
-3.84922

>  <r_i_glide_lipo>  (136) 
-0.615148

>  <r_i_glide_hbond>  (136) 
0

>  <r_i_glide_metal>  (136) 
-0

>  <r_i_glide_rewards>  (136) 
-1.99553

>  <r_i_glide_evdw>  (136) 
-21.7907

>  <r_i_glide_ecoul>  (136) 
-0.993351

>  <r_i_glide_erotb>  (136) 
0

>  <r_i_glide_esite>  (136) 
0

>  <r_i_glide_emodel>  (136) 
-22.0572

>  <r_i_glide_energy>  (136) 
-22.7841

>  <r_i_glide_einternal>  (136) 
10.8407

>  <r_i_glide_intrahb_reward>  (136) 
-0

>  <i_i_glide_confnum>  (136) 
1

>  <i_i_glide_posenum>  (136) 
17

>  <r_i_glide_eff_state_penalty>  (136) 
0

>  <ligand_id>  (136) 
35

>  <original_smiles>  (136) 
COC1=CC(=O)OC12OCc1ccsc1C2=O

>  <smiles>  (136) 
[H]C1=C(OC([H])([H])[H])C2(OC1=O)OC([H])([H])c1c(sc([H])c1[H])C2=O

$$$$
35:0:1
     RDKit          3D

 25 27  0  0  1  0  0  0  0  0999 V2000
    3.8413   -5.1364    2.2728 C   0  0  0  0  0  0  0  0  0  0  0  0
    4.0116   -4.2435    1.1835 O   0  0  0  0  0  0  0  0  0  0  0  0
    5.3037   -3.9279    0.8536 C   0  0  0  0  0  0  0  0  0  0  0  0
    6.4406   -4.3179    1.3839 C   0  0  0  0  0  0  0  0  0  0  0  0
    7.5011   -3.6620    0.6104 C   0  0  0  0  0  0  0  0  0  0  0  0
    8.7107   -3.7620    0.8029 O   0  0  0  0  0  0  0  0  0  0  0  0
    6.9108   -2.8966   -0.3692 O   0  0  0  0  0  0  0  0  0  0  0  0
    5.5238   -2.9363   -0.2452 C   0  0  2  0  0  0  0  0  0  0  0  0
    4.9787   -1.7086    0.1142 O   0  0  0  0  0  0  0  0  0  0  0  0
    4.9868   -0.6771   -0.8723 C   0  0  0  0  0  0  0  0  0  0  0  0
    4.3302   -1.1267   -2.1456 C   0  0  0  0  0  0  0  0  0  0  0  0
    3.6939   -0.3621   -3.1699 C   0  0  0  0  0  0  0  0  0  0  0  0
    3.1115   -1.1410   -4.1286 C   0  0  0  0  0  0  0  0  0  0  0  0
    3.4196   -2.8429   -3.8734 S   0  0  0  0  0  0  0  0  0  0  0  0
    4.3072   -2.4533   -2.4308 C   0  0  0  0  0  0  0  0  0  0  0  0
    4.9168   -3.4516   -1.5709 C   0  0  0  0  0  0  0  0  0  0  0  0
    5.0202   -4.6249   -1.8886 O   0  0  0  0  0  0  0  0  0  0  0  0
    2.7747   -5.3212    2.4080 H   0  0  0  0  0  0  0  0  0  0  0  0
    4.2138   -4.6935    3.2011 H   0  0  0  0  0  0  0  0  0  0  0  0
    4.3220   -6.0967    2.0962 H   0  0  0  0  0  0  0  0  0  0  0  0
    6.5973   -4.9697    2.2438 H   0  0  0  0  0  0  0  0  0  0  0  0
    4.4604    0.1528   -0.3986 H   0  0  0  0  0  0  0  0  0  0  0  0
    6.0314   -0.4587   -1.0999 H   0  0  0  0  0  0  0  0  0  0  0  0
    3.6045    0.7195   -3.1414 H   0  0  0  0  0  0  0  0  0  0  0  0
    2.4560   -0.8143   -4.9415 H   0  0  0  0  0  0  0  0  0  0  0  0
  1  2  1  0
  1 18  1  0
  1 19  1  0
  1 20  1  0
  2  3  1  0
  3  8  1  0
  3  4  2  0
  4  5  1  0
  4 21  1  0
  5  6  2  0
  5  7  1  0
  8  7  1  6
  8 16  1  0
  8  9  1  0
  9 10  1  0
 10 11  1  0
 10 22  1  0
 10 23  1  0
 11 15  2  0
 11 12  1  0
 12 13  2  0
 12 24  1  0
 13 14  1  0
 13 25  1  0
 14 15  1  0
 15 16  1  0
 16 17  2  0
M  END
>  <i_m_ct_stereo_status>  (137) 
1

>  <s_m_source_file>  (137) 
/var/tmp/pbs.5076255.sched01/tmpqwfmwtcs/46j3o47u_k.sdf

>  <i_m_source_file_index>  (137) 
5

>  <i_lp_mmshare_version>  (137) 
48012

>  <i_f3d_flags>  (137) 
0

>  <s_epik_input>  (137) 
Tz1DKE8xKVtDSF09QyhPW0NIM10pW0NAQF0xMk9bQ0gyXWMzYyhDMj1PKXNbY0hdW2NIXTM=

>  <s_epik_cmdline>  (137) 
J2VwaWtfcHl0aG9uJywgJy1waHQnLCAnMi4wJywgJy1waCcsICc3LjAnLCAnLXRuJywgJzgnLCAnLW1hJywgJzIwMCcsICctaW1hZScsICc8aW5maWxlLm1hZT4nLCAnLW9tYWUnLCAnPG91dGZpbGUubWFlPic=

>  <r_lp_tautomer_probability>  (137) 
1

>  <r_epik_Ionization_Penalty>  (137) 
0

>  <r_epik_Ionization_Penalty_Charging>  (137) 
0

>  <r_epik_Ionization_Penalty_Neutral>  (137) 
0

>  <r_epik_State_Penalty>  (137) 
-0

>  <r_epik_Charging_Adjusted_Penalty>  (137) 
0

>  <i_epik_Tot_Q>  (137) 
0

>  <i_epik_Tot_abs_Q>  (137) 
0

>  <s_epik_Chemistry_Notes>  (137) 
This compound has an ester and may undergo hydrolysis at high or low pH.

>  <s_lp_Force_Field>  (137) 
OPLS3e

>  <r_lp_Energy>  (137) 
9.6619

>  <b_lp_Chiralities_Consistent>  (137) 
1

>  <s_lp_Variant>  (137) 
35:0-1

>  <s_i_glide_gridfile>  (137) 
pfpi4k_grid

>  <i_i_glide_lignum>  (137) 
5

>  <i_i_glide_rotatable_bonds>  (137) 
1

>  <r_i_docking_score>  (137) 
-3.70786

>  <r_i_glide_ligand_efficiency>  (137) 
-0.218109

>  <r_i_glide_ligand_efficiency_sa>  (137) 
-0.560821

>  <r_i_glide_ligand_efficiency_ln>  (137) 
-0.967298

>  <r_i_glide_gscore>  (137) 
-3.70786

>  <r_i_glide_lipo>  (137) 
-0.576004

>  <r_i_glide_hbond>  (137) 
0

>  <r_i_glide_metal>  (137) 
-0

>  <r_i_glide_rewards>  (137) 
-1.98266

>  <r_i_glide_evdw>  (137) 
-21.4593

>  <r_i_glide_ecoul>  (137) 
-0.508191

>  <r_i_glide_erotb>  (137) 
0

>  <r_i_glide_esite>  (137) 
0

>  <r_i_glide_emodel>  (137) 
-26.6103

>  <r_i_glide_energy>  (137) 
-21.9675

>  <r_i_glide_einternal>  (137) 
0.00114566

>  <r_i_glide_intrahb_reward>  (137) 
-0

>  <i_i_glide_confnum>  (137) 
2

>  <i_i_glide_posenum>  (137) 
31

>  <r_i_glide_eff_state_penalty>  (137) 
0

>  <ligand_id>  (137) 
35

>  <original_smiles>  (137) 
COC1=CC(=O)OC12OCc1ccsc1C2=O

>  <smiles>  (137) 
[H]C1=C(OC([H])([H])[H])C2(OC1=O)OC([H])([H])c1c(sc([H])c1[H])C2=O

$$$$
35:0:2
     RDKit          3D

 25 27  0  0  1  0  0  0  0  0999 V2000
    1.1464   -2.2741    3.3764 C   0  0  0  0  0  0  0  0  0  0  0  0
    1.8466   -2.2430    2.1422 O   0  0  0  0  0  0  0  0  0  0  0  0
    3.0243   -2.9449    2.0944 C   0  0  0  0  0  0  0  0  0  0  0  0
    3.6288   -3.6603    3.0334 C   0  0  0  0  0  0  0  0  0  0  0  0
    4.8574   -4.1600    2.4146 C   0  0  0  0  0  0  0  0  0  0  0  0
    5.7245   -4.8380    2.9650 O   0  0  0  0  0  0  0  0  0  0  0  0
    4.8972   -3.7477    1.1121 O   0  0  0  0  0  0  0  0  0  0  0  0
    3.8297   -2.8836    0.8371 C   0  0  2  0  0  0  0  0  0  0  0  0
    4.2658   -1.5591    0.6402 O   0  0  0  0  0  0  0  0  0  0  0  0
    4.9789   -1.3022   -0.5675 C   0  0  0  0  0  0  0  0  0  0  0  0
    4.1586   -1.6801   -1.7494 C   0  0  0  0  0  0  0  0  0  0  0  0
    4.1417   -1.0949   -3.0457 C   0  0  0  0  0  0  0  0  0  0  0  0
    3.2476   -1.7034   -3.8864 C   0  0  0  0  0  0  0  0  0  0  0  0
    2.4222   -3.0362   -3.1142 S   0  0  0  0  0  0  0  0  0  0  0  0
    3.2816   -2.7138   -1.6357 C   0  0  0  0  0  0  0  0  0  0  0  0
    3.0324   -3.4256   -0.3903 C   0  0  0  0  0  0  0  0  0  0  0  0
    2.2511   -4.3776   -0.2987 O   0  0  0  0  0  0  0  0  0  0  0  0
    0.2304   -1.6943    3.2691 H   0  0  0  0  0  0  0  0  0  0  0  0
    1.7350   -1.8174    4.1720 H   0  0  0  0  0  0  0  0  0  0  0  0
    0.8652   -3.2896    3.6582 H   0  0  0  0  0  0  0  0  0  0  0  0
    3.3300   -3.8487    4.0542 H   0  0  0  0  0  0  0  0  0  0  0  0
    5.2305   -0.2463   -0.6000 H   0  0  0  0  0  0  0  0  0  0  0  0
    5.9106   -1.8668   -0.5778 H   0  0  0  0  0  0  0  0  0  0  0  0
    4.7458   -0.2339   -3.2959 H   0  0  0  0  0  0  0  0  0  0  0  0
    2.9998   -1.4277   -4.8994 H   0  0  0  0  0  0  0  0  0  0  0  0
  1  2  1  0
  1 18  1  0
  1 19  1  0
  1 20  1  0
  2  3  1  0
  3  8  1  0
  3  4  2  0
  4  5  1  0
  4 21  1  0
  5  6  2  0
  5  7  1  0
  8  7  1  1
  8 16  1  0
  8  9  1  0
  9 10  1  0
 10 11  1  0
 10 22  1  0
 10 23  1  0
 11 15  2  0
 11 12  1  0
 12 13  2  0
 12 24  1  0
 13 14  1  0
 13 25  1  0
 14 15  1  0
 15 16  1  0
 16 17  2  0
M  END
>  <i_m_ct_stereo_status>  (138) 
1

>  <s_m_source_file>  (138) 
/var/tmp/pbs.5076255.sched01/tmpqwfmwtcs/46j3o47u_k.sdf

>  <i_m_source_file_index>  (138) 
5

>  <i_lp_mmshare_version>  (138) 
48012

>  <i_f3d_flags>  (138) 
0

>  <s_epik_input>  (138) 
Tz1DKE8xKVtDSF09QyhPW0NIM10pW0NAQF0xMk9bQ0gyXWMzYyhDMj1PKXNbY0hdW2NIXTM=

>  <s_epik_cmdline>  (138) 
J2VwaWtfcHl0aG9uJywgJy1waHQnLCAnMi4wJywgJy1waCcsICc3LjAnLCAnLXRuJywgJzgnLCAnLW1hJywgJzIwMCcsICctaW1hZScsICc8aW5maWxlLm1hZT4nLCAnLW9tYWUnLCAnPG91dGZpbGUubWFlPic=

>  <r_lp_tautomer_probability>  (138) 
1

>  <r_epik_Ionization_Penalty>  (138) 
0

>  <r_epik_Ionization_Penalty_Charging>  (138) 
0

>  <r_epik_Ionization_Penalty_Neutral>  (138) 
0

>  <r_epik_State_Penalty>  (138) 
-0

>  <r_epik_Charging_Adjusted_Penalty>  (138) 
0

>  <i_epik_Tot_Q>  (138) 
0

>  <i_epik_Tot_abs_Q>  (138) 
0

>  <s_epik_Chemistry_Notes>  (138) 
This compound has an ester and may undergo hydrolysis at high or low pH.

>  <s_lp_Force_Field>  (138) 
OPLS3e

>  <r_lp_Energy>  (138) 
9.6619

>  <b_lp_Chiralities_Consistent>  (138) 
1

>  <s_lp_Variant>  (138) 
35:0-1

>  <s_i_glide_gridfile>  (138) 
pfpi4k_grid

>  <i_i_glide_lignum>  (138) 
5

>  <i_i_glide_rotatable_bonds>  (138) 
1

>  <r_i_docking_score>  (138) 
-3.23316

>  <r_i_glide_ligand_efficiency>  (138) 
-0.190186

>  <r_i_glide_ligand_efficiency_sa>  (138) 
-0.489021

>  <r_i_glide_ligand_efficiency_ln>  (138) 
-0.843459

>  <r_i_glide_gscore>  (138) 
-3.23316

>  <r_i_glide_lipo>  (138) 
-0.405241

>  <r_i_glide_hbond>  (138) 
0

>  <r_i_glide_metal>  (138) 
-0

>  <r_i_glide_rewards>  (138) 
-1.74819

>  <r_i_glide_evdw>  (138) 
-21.7073

>  <r_i_glide_ecoul>  (138) 
0.0734201

>  <r_i_glide_erotb>  (138) 
0

>  <r_i_glide_esite>  (138) 
-0.00537554

>  <r_i_glide_emodel>  (138) 
-25.6904

>  <r_i_glide_energy>  (138) 
-21.6338

>  <r_i_glide_einternal>  (138) 
0.00225613

>  <r_i_glide_intrahb_reward>  (138) 
-0

>  <i_i_glide_confnum>  (138) 
1

>  <i_i_glide_posenum>  (138) 
5

>  <r_i_glide_eff_state_penalty>  (138) 
0

>  <ligand_id>  (138) 
35

>  <original_smiles>  (138) 
COC1=CC(=O)OC12OCc1ccsc1C2=O

>  <smiles>  (138) 
[H]C1=C(OC([H])([H])[H])C2(OC1=O)OC([H])([H])c1c(sc([H])c1[H])C2=O

$$$$
36:0:0
     RDKit          3D

 54 57  0  0  1  0  0  0  0  0999 V2000
   -0.1561   -3.0613    5.9024 C   0  0  0  0  0  0  0  0  0  0  0  0
    0.9578   -4.0377    5.5419 C   0  0  0  0  0  0  0  0  0  0  0  0
    1.3287   -4.9041    6.3324 O   0  0  0  0  0  0  0  0  0  0  0  0
    1.4524   -3.8222    4.3086 O   0  0  0  0  0  0  0  0  0  0  0  0
    2.5409   -4.5980    3.8207 C   0  0  2  0  0  0  0  0  0  0  0  0
    3.9042   -3.9463    4.1375 C   0  0  0  0  0  0  0  0  0  0  0  0
    4.5668   -3.6111    2.7782 C   0  0  2  0  0  0  0  0  0  0  0  0
    4.3785   -2.1306    2.3617 C   0  0  0  0  0  0  0  0  0  0  0  0
    3.2581   -1.3266    3.0209 C   0  0  0  0  0  0  0  0  0  0  0  0
    5.1429   -1.4930    1.4461 C   0  0  0  0  0  0  0  0  0  0  0  0
    6.2835   -2.0457    0.6028 C   0  0  0  0  0  0  0  0  0  0  0  0
    5.8788   -2.9296   -0.6120 C   0  0  1  0  0  0  0  0  0  0  0  0
    7.0161   -2.8915   -1.6575 C   0  0  0  0  0  0  0  0  0  0  0  0
    5.6368   -4.3691   -0.1305 C   0  0  0  0  0  0  0  0  0  0  0  0
    4.1414   -4.5050    0.2873 C   0  0  2  0  0  0  0  0  0  0  0  0
    3.4247   -3.2932   -0.3496 C   0  0  2  0  0  0  0  0  0  0  0  0
    2.3754   -3.4704   -1.2967 O   0  0  0  0  0  0  0  0  0  0  0  0
    2.6404   -2.7929   -2.4424 C   0  0  0  0  0  0  0  0  0  0  0  0
    1.9017   -2.6614   -3.4203 O   0  0  0  0  0  0  0  0  0  0  0  0
    4.0118   -2.3263   -2.3551 C   0  0  0  0  0  0  0  0  0  0  0  0
    4.6276   -1.8606   -3.4415 O   0  0  0  0  0  0  0  0  0  0  0  0
    4.4891   -2.6594   -1.1634 C   0  0  0  0  0  0  0  0  0  0  0  0
    3.9572   -4.7088    1.8296 C   0  0  1  0  0  0  0  0  0  0  0  0
    4.5984   -6.0914    2.1730 C   0  0  0  0  0  0  0  0  0  0  0  0
    2.4809   -4.7084    2.2840 C   0  0  1  0  0  0  0  0  0  0  0  0
    1.6080   -5.8685    1.7787 C   0  0  0  0  0  0  0  0  0  0  0  0
   -0.9704   -3.1195    5.1816 H   0  0  0  0  0  0  0  0  0  0  0  0
    0.2325   -2.0435    5.9008 H   0  0  0  0  0  0  0  0  0  0  0  0
   -0.5510   -3.2827    6.8936 H   0  0  0  0  0  0  0  0  0  0  0  0
    2.5229   -5.6008    4.2517 H   0  0  0  0  0  0  0  0  0  0  0  0
    3.8292   -3.1170    4.8364 H   0  0  0  0  0  0  0  0  0  0  0  0
    4.5155   -4.6856    4.6526 H   0  0  0  0  0  0  0  0  0  0  0  0
    5.6433   -3.7555    2.8646 H   0  0  0  0  0  0  0  0  0  0  0  0
    3.4748   -1.1309    4.0694 H   0  0  0  0  0  0  0  0  0  0  0  0
    2.2979   -1.8298    2.9458 H   0  0  0  0  0  0  0  0  0  0  0  0
    3.1361   -0.3572    2.5416 H   0  0  0  0  0  0  0  0  0  0  0  0
    4.9004   -0.4686    1.2089 H   0  0  0  0  0  0  0  0  0  0  0  0
    6.8396   -1.1718    0.2571 H   0  0  0  0  0  0  0  0  0  0  0  0
    6.9741   -2.5880    1.2516 H   0  0  0  0  0  0  0  0  0  0  0  0
    7.9651   -3.2114   -1.2139 H   0  0  0  0  0  0  0  0  0  0  0  0
    7.1730   -1.8888   -2.0492 H   0  0  0  0  0  0  0  0  0  0  0  0
    6.8347   -3.5403   -2.5150 H   0  0  0  0  0  0  0  0  0  0  0  0
    5.7976   -5.0457   -0.9676 H   0  0  0  0  0  0  0  0  0  0  0  0
    6.3613   -4.6774    0.6228 H   0  0  0  0  0  0  0  0  0  0  0  0
    3.7615   -5.3945   -0.2172 H   0  0  0  0  0  0  0  0  0  0  0  0
    3.0844   -2.5651    0.3777 H   0  0  0  0  0  0  0  0  0  0  0  0
    3.9393   -1.7133   -4.0803 H   0  0  0  0  0  0  0  0  0  0  0  0
    4.2922   -6.8624    1.4651 H   0  0  0  0  0  0  0  0  0  0  0  0
    4.3256   -6.4606    3.1599 H   0  0  0  0  0  0  0  0  0  0  0  0
    5.6860   -6.0595    2.1578 H   0  0  0  0  0  0  0  0  0  0  0  0
    2.0266   -3.7907    1.9120 H   0  0  0  0  0  0  0  0  0  0  0  0
    1.9540   -6.8377    2.1370 H   0  0  0  0  0  0  0  0  0  0  0  0
    1.5874   -5.9003    0.6894 H   0  0  0  0  0  0  0  0  0  0  0  0
    0.5845   -5.7472    2.1275 H   0  0  0  0  0  0  0  0  0  0  0  0
  1  2  1  0
  1 27  1  0
  1 28  1  0
  1 29  1  0
  2  3  2  0
  2  4  1  0
  4  5  1  0
  5 25  1  0
  5  6  1  0
  5 30  1  1
  6  7  1  0
  6 31  1  0
  6 32  1  0
  7 23  1  0
  7  8  1  0
  7 33  1  1
  8  9  1  0
  8 10  2  3
  9 34  1  0
  9 35  1  0
  9 36  1  0
 10 11  1  0
 10 37  1  0
 11 12  1  0
 11 38  1  0
 11 39  1  0
 12 13  1  6
 12 14  1  0
 12 22  1  0
 13 40  1  0
 13 41  1  0
 13 42  1  0
 14 15  1  0
 14 43  1  0
 14 44  1  0
 15 23  1  0
 15 45  1  6
 15 16  1  0
 16 22  1  0
 16 46  1  1
 16 17  1  0
 17 18  1  0
 18 19  2  0
 18 20  1  0
 20 22  2  0
 20 21  1  0
 21 47  1  0
 23 24  1  1
 23 25  1  0
 24 48  1  0
 24 49  1  0
 24 50  1  0
 25 26  1  0
 25 51  1  6
 26 52  1  0
 26 53  1  0
 26 54  1  0
M  END
>  <i_m_ct_stereo_status>  (139) 
1

>  <s_m_source_file>  (139) 
/var/tmp/pbs.5076255.sched01/tmpqwfmwtcs/46j3o47u_k.sdf

>  <i_m_source_file_index>  (139) 
6

>  <i_lp_mmshare_version>  (139) 
48012

>  <i_f3d_flags>  (139) 
0

>  <s_epik_input>  (139) 
W0NIM11DKD1PKU9bQ0BASF0oW0NAQEhdMVtDSDNdKVtDSDJdW0NASF0oL0MoW0NIM10pPVtDSF1cW0NIMl0yKVtDQF0xKFtDSDNdKVtDQEhdKFtDSDJdMylbQ0BIXShPQyg9TylDND1PKVtDQEhdNFtDQEBdMjNbQ0gzXQ==

>  <s_epik_cmdline>  (139) 
J2VwaWtfcHl0aG9uJywgJy1waHQnLCAnMi4wJywgJy1waCcsICc3LjAnLCAnLXRuJywgJzgnLCAnLW1hJywgJzIwMCcsICctaW1hZScsICc8aW5maWxlLm1hZT4nLCAnLW9tYWUnLCAnPG91dGZpbGUubWFlPic=

>  <r_lp_tautomer_probability>  (139) 
0.98983

>  <r_epik_Ionization_Penalty>  (139) 
0.00269435

>  <r_epik_Ionization_Penalty_Charging>  (139) 
0

>  <r_epik_Ionization_Penalty_Neutral>  (139) 
0.00269435

>  <r_epik_State_Penalty>  (139) 
0.00632509

>  <r_epik_Charging_Adjusted_Penalty>  (139) 
0.00632509

>  <i_epik_Tot_Q>  (139) 
0

>  <i_epik_Tot_abs_Q>  (139) 
0

>  <s_epik_Chemistry_Notes>  (139) 
This compound has an ester and may undergo hydrolysis at high or low pH.

>  <s_lp_Force_Field>  (139) 
OPLS3e

>  <r_lp_Energy>  (139) 
36.2285

>  <b_lp_Chiralities_Consistent>  (139) 
1

>  <s_lp_Variant>  (139) 
36:0-1

>  <s_i_glide_gridfile>  (139) 
pfpi4k_grid

>  <i_i_glide_lignum>  (139) 
6

>  <i_i_glide_rotatable_bonds>  (139) 
3

>  <r_i_docking_score>  (139) 
-2.46899

>  <r_i_glide_ligand_efficiency>  (139) 
-0.0949613

>  <r_i_glide_ligand_efficiency_sa>  (139) 
-0.281322

>  <r_i_glide_ligand_efficiency_ln>  (139) 
-0.579835

>  <r_i_glide_gscore>  (139) 
-2.46899

>  <r_i_glide_lipo>  (139) 
-0.387718

>  <r_i_glide_hbond>  (139) 
0

>  <r_i_glide_metal>  (139) 
-0

>  <r_i_glide_rewards>  (139) 
-0.951518

>  <r_i_glide_evdw>  (139) 
-28.9527

>  <r_i_glide_ecoul>  (139) 
1.29865

>  <r_i_glide_erotb>  (139) 
0.147622

>  <r_i_glide_esite>  (139) 
-0.0245403

>  <r_i_glide_emodel>  (139) 
-30.2866

>  <r_i_glide_energy>  (139) 
-27.6541

>  <r_i_glide_einternal>  (139) 
2.26949

>  <r_i_glide_intrahb_reward>  (139) 
-0

>  <i_i_glide_confnum>  (139) 
2

>  <i_i_glide_posenum>  (139) 
33

>  <r_i_glide_eff_state_penalty>  (139) 
0

>  <ligand_id>  (139) 
36

>  <original_smiles>  (139) 
CC(=O)OC1CC2C(C)=CCC3(C)CC(C4OC(=O)C(=O)C43)C2(C)C1C

>  <smiles>  (139) 
[H]OC1=C2C([H])(OC1=O)C1([H])C([H])([H])C2(C([H])([H])[H])C([H])([H])C([H])=C(C([H])([H])[H])C2([H])C([H])([H])C([H])(OC(=O)C([H])([H])[H])C([H])(C([H])([H])[H])C21C([H])([H])[H]

$$$$
36:1:0
     RDKit          3D

 54 57  0  0  1  0  0  0  0  0999 V2000
    3.2120   -0.0921   -4.0999 C   0  0  0  0  0  0  0  0  0  0  0  0
    3.8548   -1.2567   -3.3756 C   0  0  0  0  0  0  0  0  0  0  0  0
    4.2845   -2.2224   -4.0130 O   0  0  0  0  0  0  0  0  0  0  0  0
    3.9011   -1.0933   -2.0361 O   0  0  0  0  0  0  0  0  0  0  0  0
    4.7392   -1.8863   -1.1878 C   0  0  2  0  0  0  0  0  0  0  0  0
    4.6770   -3.4207   -1.3764 C   0  0  0  0  0  0  0  0  0  0  0  0
    4.7830   -4.0515    0.0237 C   0  0  2  0  0  0  0  0  0  0  0  0
    3.6253   -4.9683    0.3933 C   0  0  0  0  0  0  0  0  0  0  0  0
    2.2227   -4.6188   -0.0979 C   0  0  0  0  0  0  0  0  0  0  0  0
    3.8933   -5.8658    1.3577 C   0  0  0  0  0  0  0  0  0  0  0  0
    3.0399   -6.0643    2.6007 C   0  0  0  0  0  0  0  0  0  0  0  0
    3.4541   -5.0350    3.7191 C   0  0  1  0  0  0  0  0  0  0  0  0
    3.5558   -5.7699    5.0748 C   0  0  0  0  0  0  0  0  0  0  0  0
    4.7620   -4.2259    3.4048 C   0  0  0  0  0  0  0  0  0  0  0  0
    4.3908   -2.9829    2.5246 C   0  0  2  0  0  0  0  0  0  0  0  0
    2.8566   -2.8761    2.6589 C   0  0  2  0  0  0  0  0  0  0  0  0
    2.2652   -1.6780    3.1364 O   0  0  0  0  0  0  0  0  0  0  0  0
    1.4425   -1.9178    4.1884 C   0  0  0  0  0  0  0  0  0  0  0  0
    0.7127   -1.0862    4.7228 O   0  0  0  0  0  0  0  0  0  0  0  0
    1.6800   -3.3034    4.5983 C   0  0  0  0  0  0  0  0  0  0  0  0
    1.2724   -3.7829    5.7851 O   0  0  0  0  0  0  0  0  0  0  0  0
    2.5154   -3.8503    3.7205 C   0  0  0  0  0  0  0  0  0  0  0  0
    4.9928   -2.8726    1.0543 C   0  0  1  0  0  0  0  0  0  0  0  0
    6.5235   -2.6838    1.2032 C   0  0  0  0  0  0  0  0  0  0  0  0
    4.3810   -1.6614    0.2918 C   0  0  1  0  0  0  0  0  0  0  0  0
    4.7583   -0.2659    0.8268 C   0  0  0  0  0  0  0  0  0  0  0  0
    3.8132    0.8051   -3.9438 H   0  0  0  0  0  0  0  0  0  0  0  0
    2.2170    0.1090   -3.6861 H   0  0  0  0  0  0  0  0  0  0  0  0
    3.1200   -0.2989   -5.1712 H   0  0  0  0  0  0  0  0  0  0  0  0
    5.7686   -1.5592   -1.3512 H   0  0  0  0  0  0  0  0  0  0  0  0
    3.7719   -3.7457   -1.8859 H   0  0  0  0  0  0  0  0  0  0  0  0
    5.5128   -3.7409   -1.9996 H   0  0  0  0  0  0  0  0  0  0  0  0
    5.6718   -4.6891    0.0270 H   0  0  0  0  0  0  0  0  0  0  0  0
    2.0606   -3.5433   -0.1656 H   0  0  0  0  0  0  0  0  0  0  0  0
    1.4615   -5.0737    0.5277 H   0  0  0  0  0  0  0  0  0  0  0  0
    2.0543   -5.0227   -1.0959 H   0  0  0  0  0  0  0  0  0  0  0  0
    4.9335   -6.0661    1.5817 H   0  0  0  0  0  0  0  0  0  0  0  0
    1.9712   -5.9931    2.3852 H   0  0  0  0  0  0  0  0  0  0  0  0
    3.2142   -7.0893    2.9448 H   0  0  0  0  0  0  0  0  0  0  0  0
    4.3356   -6.5234    5.0215 H   0  0  0  0  0  0  0  0  0  0  0  0
    2.6380   -6.2909    5.3387 H   0  0  0  0  0  0  0  0  0  0  0  0
    3.8207   -5.1099    5.8982 H   0  0  0  0  0  0  0  0  0  0  0  0
    5.1512   -3.8485    4.3483 H   0  0  0  0  0  0  0  0  0  0  0  0
    5.5932   -4.8225    3.0394 H   0  0  0  0  0  0  0  0  0  0  0  0
    4.7943   -2.1373    3.0807 H   0  0  0  0  0  0  0  0  0  0  0  0
    2.3338   -3.1970    1.7791 H   0  0  0  0  0  0  0  0  0  0  0  0
    1.6028   -4.6651    5.8548 H   0  0  0  0  0  0  0  0  0  0  0  0
    6.7446   -1.8408    1.8620 H   0  0  0  0  0  0  0  0  0  0  0  0
    7.0218   -2.5010    0.2459 H   0  0  0  0  0  0  0  0  0  0  0  0
    6.9867   -3.5733    1.6378 H   0  0  0  0  0  0  0  0  0  0  0  0
    3.2962   -1.7295    0.3542 H   0  0  0  0  0  0  0  0  0  0  0  0
    5.8226   -0.0513    0.7189 H   0  0  0  0  0  0  0  0  0  0  0  0
    4.4930   -0.1559    1.8793 H   0  0  0  0  0  0  0  0  0  0  0  0
    4.2189    0.5060    0.2788 H   0  0  0  0  0  0  0  0  0  0  0  0
  1  2  1  0
  1 27  1  0
  1 28  1  0
  1 29  1  0
  2  3  2  0
  2  4  1  0
  4  5  1  0
  5 25  1  0
  5  6  1  0
  5 30  1  1
  6  7  1  0
  6 31  1  0
  6 32  1  0
  7 23  1  0
  7  8  1  0
  7 33  1  6
  8  9  1  0
  8 10  2  3
  9 34  1  0
  9 35  1  0
  9 36  1  0
 10 11  1  0
 10 37  1  0
 11 12  1  0
 11 38  1  0
 11 39  1  0
 12 13  1  1
 12 14  1  0
 12 22  1  0
 13 40  1  0
 13 41  1  0
 13 42  1  0
 14 15  1  0
 14 43  1  0
 14 44  1  0
 15 23  1  0
 15 45  1  1
 15 16  1  0
 16 22  1  0
 16 46  1  6
 16 17  1  0
 17 18  1  0
 18 19  2  0
 18 20  1  0
 20 22  2  0
 20 21  1  0
 21 47  1  0
 23 24  1  1
 23 25  1  0
 24 48  1  0
 24 49  1  0
 24 50  1  0
 25 26  1  0
 25 51  1  6
 26 52  1  0
 26 53  1  0
 26 54  1  0
M  END
>  <i_m_ct_stereo_status>  (140) 
1

>  <s_m_source_file>  (140) 
/var/tmp/pbs.5076255.sched01/tmpqwfmwtcs/46j3o47u_k.sdf

>  <i_m_source_file_index>  (140) 
7

>  <i_lp_mmshare_version>  (140) 
48012

>  <i_f3d_flags>  (140) 
0

>  <s_epik_input>  (140) 
W0NIM11DKD1PKU9bQ0BASF0oW0NAQEhdMVtDSDNdKVtDSDJdW0NASF0oL0MoW0NIM10pPVtDSF1cW0NIMl0yKVtDQF0xKFtDSDNdKVtDQEhdKFtDSDJdMylbQ0BIXShPQyg9TylDND1PKVtDQEhdNFtDQEBdMjNbQ0gzXQ==

>  <s_epik_cmdline>  (140) 
J2VwaWtfcHl0aG9uJywgJy1waHQnLCAnMi4wJywgJy1waCcsICc3LjAnLCAnLXRuJywgJzgnLCAnLW1hJywgJzIwMCcsICctaW1hZScsICc8aW5maWxlLm1hZT4nLCAnLW9tYWUnLCAnPG91dGZpbGUubWFlPic=

>  <r_lp_tautomer_probability>  (140) 
0.98983

>  <r_epik_Ionization_Penalty>  (140) 
0.00269435

>  <r_epik_Ionization_Penalty_Charging>  (140) 
0

>  <r_epik_Ionization_Penalty_Neutral>  (140) 
0.00269435

>  <r_epik_State_Penalty>  (140) 
0.00632509

>  <r_epik_Charging_Adjusted_Penalty>  (140) 
0.00632509

>  <i_epik_Tot_Q>  (140) 
0

>  <i_epik_Tot_abs_Q>  (140) 
0

>  <s_epik_Chemistry_Notes>  (140) 
This compound has an ester and may undergo hydrolysis at high or low pH.

>  <s_lp_Force_Field>  (140) 
OPLS3e

>  <r_lp_Energy>  (140) 
54.5933

>  <b_lp_Chiralities_Consistent>  (140) 
1

>  <s_lp_Variant>  (140) 
36:0-2

>  <s_i_glide_gridfile>  (140) 
pfpi4k_grid

>  <i_i_glide_lignum>  (140) 
7

>  <i_i_glide_rotatable_bonds>  (140) 
3

>  <r_i_docking_score>  (140) 
-3.4411

>  <r_i_glide_ligand_efficiency>  (140) 
-0.13235

>  <r_i_glide_ligand_efficiency_sa>  (140) 
-0.392087

>  <r_i_glide_ligand_efficiency_ln>  (140) 
-0.808132

>  <r_i_glide_gscore>  (140) 
-3.4411

>  <r_i_glide_lipo>  (140) 
-0.561405

>  <r_i_glide_hbond>  (140) 
-0.238035

>  <r_i_glide_metal>  (140) 
-0

>  <r_i_glide_rewards>  (140) 
-1.15767

>  <r_i_glide_evdw>  (140) 
-26.9728

>  <r_i_glide_ecoul>  (140) 
-1.88648

>  <r_i_glide_erotb>  (140) 
0.147622

>  <r_i_glide_esite>  (140) 
0

>  <r_i_glide_emodel>  (140) 
-33.6305

>  <r_i_glide_energy>  (140) 
-28.8592

>  <r_i_glide_einternal>  (140) 
2.79889

>  <r_i_glide_intrahb_reward>  (140) 
-0

>  <i_i_glide_confnum>  (140) 
3

>  <i_i_glide_posenum>  (140) 
2

>  <r_i_glide_eff_state_penalty>  (140) 
0

>  <ligand_id>  (140) 
36

>  <original_smiles>  (140) 
CC(=O)OC1CC2C(C)=CCC3(C)CC(C4OC(=O)C(=O)C43)C2(C)C1C

>  <smiles>  (140) 
[H]OC1=C2C([H])(OC1=O)C1([H])C([H])([H])C2(C([H])([H])[H])C([H])([H])C([H])=C(C([H])([H])[H])C2([H])C([H])([H])C([H])(OC(=O)C([H])([H])[H])C([H])(C([H])([H])[H])C21C([H])([H])[H]

$$$$
36:1:1
     RDKit          3D

 54 57  0  0  1  0  0  0  0  0999 V2000
    4.9096   -3.3362   -2.8847 C   0  0  0  0  0  0  0  0  0  0  0  0
    5.4486   -3.3761   -1.4583 C   0  0  0  0  0  0  0  0  0  0  0  0
    6.3950   -2.6634   -1.1187 O   0  0  0  0  0  0  0  0  0  0  0  0
    4.7781   -4.2443   -0.6714 O   0  0  0  0  0  0  0  0  0  0  0  0
    5.0975   -4.3873    0.7078 C   0  0  2  0  0  0  0  0  0  0  0  0
    6.0132   -5.5926    0.9530 C   0  0  0  0  0  0  0  0  0  0  0  0
    5.5036   -6.2660    2.2494 C   0  0  2  0  0  0  0  0  0  0  0  0
    5.1277   -7.7407    2.1305 C   0  0  0  0  0  0  0  0  0  0  0  0
    4.5095   -8.2396    0.8295 C   0  0  0  0  0  0  0  0  0  0  0  0
    5.1378   -8.4426    3.2786 C   0  0  0  0  0  0  0  0  0  0  0  0
    3.9777   -9.3020    3.7606 C   0  0  0  0  0  0  0  0  0  0  0  0
    2.9253   -8.4198    4.5363 C   0  0  1  0  0  0  0  0  0  0  0  0
    2.5037   -9.1515    5.8340 C   0  0  0  0  0  0  0  0  0  0  0  0
    3.4124   -6.9573    4.8371 C   0  0  0  0  0  0  0  0  0  0  0  0
    3.1084   -6.0585    3.5845 C   0  0  2  0  0  0  0  0  0  0  0  0
    2.1381   -6.9150    2.7412 C   0  0  2  0  0  0  0  0  0  0  0  0
    0.8685   -6.3872    2.3885 O   0  0  0  0  0  0  0  0  0  0  0  0
   -0.1317   -7.2153    2.7830 C   0  0  0  0  0  0  0  0  0  0  0  0
   -1.3255   -7.0737    2.5121 O   0  0  0  0  0  0  0  0  0  0  0  0
    0.4665   -8.2385    3.6325 C   0  0  0  0  0  0  0  0  0  0  0  0
   -0.2730   -9.0331    4.4258 O   0  0  0  0  0  0  0  0  0  0  0  0
    1.7867   -8.0515    3.6230 C   0  0  0  0  0  0  0  0  0  0  0  0
    4.3247   -5.3766    2.8146 C   0  0  1  0  0  0  0  0  0  0  0  0
    4.9601   -4.3474    3.7900 C   0  0  0  0  0  0  0  0  0  0  0  0
    3.8329   -4.6640    1.5246 C   0  0  1  0  0  0  0  0  0  0  0  0
    2.9489   -3.4176    1.7217 C   0  0  0  0  0  0  0  0  0  0  0  0
    3.8928   -2.9355   -2.8943 H   0  0  0  0  0  0  0  0  0  0  0  0
    4.8900   -4.3421   -3.3105 H   0  0  0  0  0  0  0  0  0  0  0  0
    5.5378   -2.7018   -3.5139 H   0  0  0  0  0  0  0  0  0  0  0  0
    5.5597   -3.4777    1.0994 H   0  0  0  0  0  0  0  0  0  0  0  0
    5.9995   -6.2590    0.0914 H   0  0  0  0  0  0  0  0  0  0  0  0
    7.0417   -5.2415    1.0585 H   0  0  0  0  0  0  0  0  0  0  0  0
    6.3329   -6.2416    2.9570 H   0  0  0  0  0  0  0  0  0  0  0  0
    3.9403   -7.4624    0.3224 H   0  0  0  0  0  0  0  0  0  0  0  0
    3.8748   -9.1144    0.9633 H   0  0  0  0  0  0  0  0  0  0  0  0
    5.3117   -8.5451    0.1634 H   0  0  0  0  0  0  0  0  0  0  0  0
    5.6644   -8.0116    4.1200 H   0  0  0  0  0  0  0  0  0  0  0  0
    3.4979   -9.8446    2.9435 H   0  0  0  0  0  0  0  0  0  0  0  0
    4.3982  -10.0624    4.4226 H   0  0  0  0  0  0  0  0  0  0  0  0
    3.3636   -9.2790    6.4853 H   0  0  0  0  0  0  0  0  0  0  0  0
    2.1091  -10.1474    5.6463 H   0  0  0  0  0  0  0  0  0  0  0  0
    1.7620   -8.6018    6.4100 H   0  0  0  0  0  0  0  0  0  0  0  0
    2.8093   -6.5750    5.6602 H   0  0  0  0  0  0  0  0  0  0  0  0
    4.4189   -6.8748    5.2358 H   0  0  0  0  0  0  0  0  0  0  0  0
    2.5153   -5.2385    3.9888 H   0  0  0  0  0  0  0  0  0  0  0  0
    2.5939   -7.3379    1.8649 H   0  0  0  0  0  0  0  0  0  0  0  0
    0.3029   -9.6332    4.8777 H   0  0  0  0  0  0  0  0  0  0  0  0
    4.2163   -3.6524    4.1901 H   0  0  0  0  0  0  0  0  0  0  0  0
    5.7456   -3.7548    3.3130 H   0  0  0  0  0  0  0  0  0  0  0  0
    5.4194   -4.8514    4.6437 H   0  0  0  0  0  0  0  0  0  0  0  0
    3.2456   -5.3735    0.9469 H   0  0  0  0  0  0  0  0  0  0  0  0
    3.4843   -2.6051    2.2167 H   0  0  0  0  0  0  0  0  0  0  0  0
    2.0624   -3.6494    2.3162 H   0  0  0  0  0  0  0  0  0  0  0  0
    2.6046   -3.0394    0.7579 H   0  0  0  0  0  0  0  0  0  0  0  0
  1  2  1  0
  1 27  1  0
  1 28  1  0
  1 29  1  0
  2  3  2  0
  2  4  1  0
  4  5  1  0
  5 25  1  0
  5  6  1  0
  5 30  1  1
  6  7  1  0
  6 31  1  0
  6 32  1  0
  7 23  1  0
  7  8  1  0
  7 33  1  1
  8  9  1  0
  8 10  2  3
  9 34  1  0
  9 35  1  0
  9 36  1  0
 10 11  1  0
 10 37  1  0
 11 12  1  0
 11 38  1  0
 11 39  1  0
 12 13  1  1
 12 14  1  0
 12 22  1  0
 13 40  1  0
 13 41  1  0
 13 42  1  0
 14 15  1  0
 14 43  1  0
 14 44  1  0
 15 23  1  0
 15 45  1  1
 15 16  1  0
 16 22  1  0
 16 46  1  6
 16 17  1  0
 17 18  1  0
 18 19  2  0
 18 20  1  0
 20 22  2  0
 20 21  1  0
 21 47  1  0
 23 24  1  1
 23 25  1  0
 24 48  1  0
 24 49  1  0
 24 50  1  0
 25 26  1  0
 25 51  1  6
 26 52  1  0
 26 53  1  0
 26 54  1  0
M  END
>  <i_m_ct_stereo_status>  (141) 
1

>  <s_m_source_file>  (141) 
/var/tmp/pbs.5076255.sched01/tmpqwfmwtcs/46j3o47u_k.sdf

>  <i_m_source_file_index>  (141) 
7

>  <i_lp_mmshare_version>  (141) 
48012

>  <i_f3d_flags>  (141) 
0

>  <s_epik_input>  (141) 
W0NIM11DKD1PKU9bQ0BASF0oW0NAQEhdMVtDSDNdKVtDSDJdW0NASF0oL0MoW0NIM10pPVtDSF1cW0NIMl0yKVtDQF0xKFtDSDNdKVtDQEhdKFtDSDJdMylbQ0BIXShPQyg9TylDND1PKVtDQEhdNFtDQEBdMjNbQ0gzXQ==

>  <s_epik_cmdline>  (141) 
J2VwaWtfcHl0aG9uJywgJy1waHQnLCAnMi4wJywgJy1waCcsICc3LjAnLCAnLXRuJywgJzgnLCAnLW1hJywgJzIwMCcsICctaW1hZScsICc8aW5maWxlLm1hZT4nLCAnLW9tYWUnLCAnPG91dGZpbGUubWFlPic=

>  <r_lp_tautomer_probability>  (141) 
0.98983

>  <r_epik_Ionization_Penalty>  (141) 
0.00269435

>  <r_epik_Ionization_Penalty_Charging>  (141) 
0

>  <r_epik_Ionization_Penalty_Neutral>  (141) 
0.00269435

>  <r_epik_State_Penalty>  (141) 
0.00632509

>  <r_epik_Charging_Adjusted_Penalty>  (141) 
0.00632509

>  <i_epik_Tot_Q>  (141) 
0

>  <i_epik_Tot_abs_Q>  (141) 
0

>  <s_epik_Chemistry_Notes>  (141) 
This compound has an ester and may undergo hydrolysis at high or low pH.

>  <s_lp_Force_Field>  (141) 
OPLS3e

>  <r_lp_Energy>  (141) 
54.5933

>  <b_lp_Chiralities_Consistent>  (141) 
1

>  <s_lp_Variant>  (141) 
36:0-2

>  <s_i_glide_gridfile>  (141) 
pfpi4k_grid

>  <i_i_glide_lignum>  (141) 
7

>  <i_i_glide_rotatable_bonds>  (141) 
3

>  <r_i_docking_score>  (141) 
-3.36177

>  <r_i_glide_ligand_efficiency>  (141) 
-0.129299

>  <r_i_glide_ligand_efficiency_sa>  (141) 
-0.383047

>  <r_i_glide_ligand_efficiency_ln>  (141) 
-0.7895

>  <r_i_glide_gscore>  (141) 
-3.36177

>  <r_i_glide_lipo>  (141) 
-0.375744

>  <r_i_glide_hbond>  (141) 
-0.16

>  <r_i_glide_metal>  (141) 
-0

>  <r_i_glide_rewards>  (141) 
-1.09918

>  <r_i_glide_evdw>  (141) 
-26.3313

>  <r_i_glide_ecoul>  (141) 
-3.25456

>  <r_i_glide_erotb>  (141) 
0.147622

>  <r_i_glide_esite>  (141) 
-0.0697141

>  <r_i_glide_emodel>  (141) 
-36.1607

>  <r_i_glide_energy>  (141) 
-29.5858

>  <r_i_glide_einternal>  (141) 
0.162083

>  <r_i_glide_intrahb_reward>  (141) 
-0

>  <i_i_glide_confnum>  (141) 
3

>  <i_i_glide_posenum>  (141) 
27

>  <r_i_glide_eff_state_penalty>  (141) 
0

>  <ligand_id>  (141) 
36

>  <original_smiles>  (141) 
CC(=O)OC1CC2C(C)=CCC3(C)CC(C4OC(=O)C(=O)C43)C2(C)C1C

>  <smiles>  (141) 
[H]OC1=C2C([H])(OC1=O)C1([H])C([H])([H])C2(C([H])([H])[H])C([H])([H])C([H])=C(C([H])([H])[H])C2([H])C([H])([H])C([H])(OC(=O)C([H])([H])[H])C([H])(C([H])([H])[H])C21C([H])([H])[H]

$$$$
36:1:2
     RDKit          3D

 54 57  0  0  1  0  0  0  0  0999 V2000
    3.6836   -1.1981   -2.5349 C   0  0  0  0  0  0  0  0  0  0  0  0
    4.4680   -1.4716   -1.2550 C   0  0  0  0  0  0  0  0  0  0  0  0
    5.6181   -1.0621   -1.1109 O   0  0  0  0  0  0  0  0  0  0  0  0
    3.7781   -2.2153   -0.3714 O   0  0  0  0  0  0  0  0  0  0  0  0
    4.3343   -2.5481    0.8980 C   0  0  2  0  0  0  0  0  0  0  0  0
    5.5260   -3.5095    0.7844 C   0  0  0  0  0  0  0  0  0  0  0  0
    5.3591   -4.5522    1.9063 C   0  0  2  0  0  0  0  0  0  0  0  0
    5.2965   -6.0021    1.4399 C   0  0  0  0  0  0  0  0  0  0  0  0
    4.6159   -6.3117    0.1076 C   0  0  0  0  0  0  0  0  0  0  0  0
    5.6287   -6.9227    2.3636 C   0  0  0  0  0  0  0  0  0  0  0  0
    4.7771   -8.1309    2.7113 C   0  0  0  0  0  0  0  0  0  0  0  0
    3.6830   -7.7389    3.7733 C   0  0  1  0  0  0  0  0  0  0  0  0
    3.6208   -8.8224    4.8752 C   0  0  0  0  0  0  0  0  0  0  0  0
    3.8609   -6.3067    4.3934 C   0  0  0  0  0  0  0  0  0  0  0  0
    3.1910   -5.2566    3.4388 C   0  0  2  0  0  0  0  0  0  0  0  0
    2.3295   -6.1226    2.4932 C   0  0  2  0  0  0  0  0  0  0  0  0
    0.9416   -5.8681    2.3819 O   0  0  0  0  0  0  0  0  0  0  0  0
    0.2134   -6.9839    2.6258 C   0  0  0  0  0  0  0  0  0  0  0  0
   -1.0048   -7.0684    2.4926 O   0  0  0  0  0  0  0  0  0  0  0  0
    1.1371   -7.9919    3.1504 C   0  0  0  0  0  0  0  0  0  0  0  0
    0.7076   -9.1087    3.7670 O   0  0  0  0  0  0  0  0  0  0  0  0
    2.3647   -7.4762    3.0911 C   0  0  0  0  0  0  0  0  0  0  0  0
    4.1024   -4.1331    2.7688 C   0  0  1  0  0  0  0  0  0  0  0  0
    4.6216   -3.2227    3.9128 C   0  0  0  0  0  0  0  0  0  0  0  0
    3.2928   -3.2945    1.7427 C   0  0  1  0  0  0  0  0  0  0  0  0
    2.1940   -2.3822    2.3167 C   0  0  0  0  0  0  0  0  0  0  0  0
    2.8227   -0.5637   -2.3227 H   0  0  0  0  0  0  0  0  0  0  0  0
    3.3193   -2.1378   -2.9509 H   0  0  0  0  0  0  0  0  0  0  0  0
    4.3127   -0.7020   -3.2757 H   0  0  0  0  0  0  0  0  0  0  0  0
    4.6321   -1.6339    1.4192 H   0  0  0  0  0  0  0  0  0  0  0  0
    5.5627   -3.9616   -0.2044 H   0  0  0  0  0  0  0  0  0  0  0  0
    6.4544   -2.9496    0.8986 H   0  0  0  0  0  0  0  0  0  0  0  0
    6.2536   -4.4854    2.5268 H   0  0  0  0  0  0  0  0  0  0  0  0
    3.8047   -5.6270   -0.1365 H   0  0  0  0  0  0  0  0  0  0  0  0
    4.2457   -7.3333    0.0531 H   0  0  0  0  0  0  0  0  0  0  0  0
    5.3584   -6.2046   -0.6787 H   0  0  0  0  0  0  0  0  0  0  0  0
    6.1691   -6.5762    3.2350 H   0  0  0  0  0  0  0  0  0  0  0  0
    4.3196   -8.5758    1.8279 H   0  0  0  0  0  0  0  0  0  0  0  0
    5.4493   -8.8859    3.1213 H   0  0  0  0  0  0  0  0  0  0  0  0
    4.5721   -8.8717    5.4011 H   0  0  0  0  0  0  0  0  0  0  0  0
    3.4336   -9.8158    4.4690 H   0  0  0  0  0  0  0  0  0  0  0  0
    2.8593   -8.6195    5.6294 H   0  0  0  0  0  0  0  0  0  0  0  0
    3.3088   -6.2794    5.3327 H   0  0  0  0  0  0  0  0  0  0  0  0
    4.8693   -6.0619    4.7106 H   0  0  0  0  0  0  0  0  0  0  0  0
    2.4875   -4.7234    4.0770 H   0  0  0  0  0  0  0  0  0  0  0  0
    2.7386   -6.2114    1.5049 H   0  0  0  0  0  0  0  0  0  0  0  0
    1.4696   -9.5958    4.0577 H   0  0  0  0  0  0  0  0  0  0  0  0
    3.8050   -2.8455    4.5318 H   0  0  0  0  0  0  0  0  0  0  0  0
    5.1777   -2.3615    3.5347 H   0  0  0  0  0  0  0  0  0  0  0  0
    5.2962   -3.7719    4.5711 H   0  0  0  0  0  0  0  0  0  0  0  0
    2.7987   -3.9804    1.0598 H   0  0  0  0  0  0  0  0  0  0  0  0
    2.5952   -1.5958    2.9574 H   0  0  0  0  0  0  0  0  0  0  0  0
    1.4723   -2.9601    2.8969 H   0  0  0  0  0  0  0  0  0  0  0  0
    1.6447   -1.8974    1.5093 H   0  0  0  0  0  0  0  0  0  0  0  0
  1  2  1  0
  1 27  1  0
  1 28  1  0
  1 29  1  0
  2  3  2  0
  2  4  1  0
  4  5  1  0
  5 25  1  0
  5  6  1  0
  5 30  1  1
  6  7  1  0
  6 31  1  0
  6 32  1  0
  7 23  1  0
  7  8  1  0
  7 33  1  1
  8  9  1  0
  8 10  2  3
  9 34  1  0
  9 35  1  0
  9 36  1  0
 10 11  1  0
 10 37  1  0
 11 12  1  0
 11 38  1  0
 11 39  1  0
 12 13  1  1
 12 14  1  0
 12 22  1  0
 13 40  1  0
 13 41  1  0
 13 42  1  0
 14 15  1  0
 14 43  1  0
 14 44  1  0
 15 23  1  0
 15 45  1  1
 15 16  1  0
 16 22  1  0
 16 46  1  6
 16 17  1  0
 17 18  1  0
 18 19  2  0
 18 20  1  0
 20 22  2  0
 20 21  1  0
 21 47  1  0
 23 24  1  1
 23 25  1  0
 24 48  1  0
 24 49  1  0
 24 50  1  0
 25 26  1  0
 25 51  1  6
 26 52  1  0
 26 53  1  0
 26 54  1  0
M  END
>  <i_m_ct_stereo_status>  (142) 
1

>  <s_m_source_file>  (142) 
/var/tmp/pbs.5076255.sched01/tmpqwfmwtcs/46j3o47u_k.sdf

>  <i_m_source_file_index>  (142) 
7

>  <i_lp_mmshare_version>  (142) 
48012

>  <i_f3d_flags>  (142) 
0

>  <s_epik_input>  (142) 
W0NIM11DKD1PKU9bQ0BASF0oW0NAQEhdMVtDSDNdKVtDSDJdW0NASF0oL0MoW0NIM10pPVtDSF1cW0NIMl0yKVtDQF0xKFtDSDNdKVtDQEhdKFtDSDJdMylbQ0BIXShPQyg9TylDND1PKVtDQEhdNFtDQEBdMjNbQ0gzXQ==

>  <s_epik_cmdline>  (142) 
J2VwaWtfcHl0aG9uJywgJy1waHQnLCAnMi4wJywgJy1waCcsICc3LjAnLCAnLXRuJywgJzgnLCAnLW1hJywgJzIwMCcsICctaW1hZScsICc8aW5maWxlLm1hZT4nLCAnLW9tYWUnLCAnPG91dGZpbGUubWFlPic=

>  <r_lp_tautomer_probability>  (142) 
0.98983

>  <r_epik_Ionization_Penalty>  (142) 
0.00269435

>  <r_epik_Ionization_Penalty_Charging>  (142) 
0

>  <r_epik_Ionization_Penalty_Neutral>  (142) 
0.00269435

>  <r_epik_State_Penalty>  (142) 
0.00632509

>  <r_epik_Charging_Adjusted_Penalty>  (142) 
0.00632509

>  <i_epik_Tot_Q>  (142) 
0

>  <i_epik_Tot_abs_Q>  (142) 
0

>  <s_epik_Chemistry_Notes>  (142) 
This compound has an ester and may undergo hydrolysis at high or low pH.

>  <s_lp_Force_Field>  (142) 
OPLS3e

>  <r_lp_Energy>  (142) 
54.5933

>  <b_lp_Chiralities_Consistent>  (142) 
1

>  <s_lp_Variant>  (142) 
36:0-2

>  <s_i_glide_gridfile>  (142) 
pfpi4k_grid

>  <i_i_glide_lignum>  (142) 
7

>  <i_i_glide_rotatable_bonds>  (142) 
3

>  <r_i_docking_score>  (142) 
-3.19753

>  <r_i_glide_ligand_efficiency>  (142) 
-0.122982

>  <r_i_glide_ligand_efficiency_sa>  (142) 
-0.364334

>  <r_i_glide_ligand_efficiency_ln>  (142) 
-0.75093

>  <r_i_glide_gscore>  (142) 
-3.19753

>  <r_i_glide_lipo>  (142) 
-0.28287

>  <r_i_glide_hbond>  (142) 
-0.226541

>  <r_i_glide_metal>  (142) 
-0

>  <r_i_glide_rewards>  (142) 
-0.951518

>  <r_i_glide_evdw>  (142) 
-25.5427

>  <r_i_glide_ecoul>  (142) 
-3.29544

>  <r_i_glide_erotb>  (142) 
0.147622

>  <r_i_glide_esite>  (142) 
-0.112774

>  <r_i_glide_emodel>  (142) 
-34.774

>  <r_i_glide_energy>  (142) 
-28.8381

>  <r_i_glide_einternal>  (142) 
0.614542

>  <r_i_glide_intrahb_reward>  (142) 
-0

>  <i_i_glide_confnum>  (142) 
3

>  <i_i_glide_posenum>  (142) 
1

>  <r_i_glide_eff_state_penalty>  (142) 
0

>  <ligand_id>  (142) 
36

>  <original_smiles>  (142) 
CC(=O)OC1CC2C(C)=CCC3(C)CC(C4OC(=O)C(=O)C43)C2(C)C1C

>  <smiles>  (142) 
[H]OC1=C2C([H])(OC1=O)C1([H])C([H])([H])C2(C([H])([H])[H])C([H])([H])C([H])=C(C([H])([H])[H])C2([H])C([H])([H])C([H])(OC(=O)C([H])([H])[H])C([H])(C([H])([H])[H])C21C([H])([H])[H]

$$$$
37:0:0
     RDKit          3D

 56 59  0  0  1  0  0  0  0  0999 V2000
    3.5108   -7.7546    1.6751 C   0  0  0  0  0  0  0  0  0  0  0  0
    2.3542   -6.8695    2.2077 C   0  0  1  0  0  0  0  0  0  0  0  0
    1.0397   -7.5878    1.7550 C   0  0  0  0  0  0  0  0  0  0  0  0
   -0.2023   -7.1954    2.5557 C   0  0  0  0  0  0  0  0  0  0  0  0
    0.0393   -7.4558    4.0410 C   0  0  0  0  0  0  0  0  0  0  0  0
   -0.8823   -7.8573    4.7468 O   0  0  0  0  0  0  0  0  0  0  0  0
    1.3753   -7.1462    4.5681 C   0  0  0  0  0  0  0  0  0  0  0  0
    2.4090   -6.8386    3.7476 C   0  0  0  0  0  0  0  0  0  0  0  0
    3.7231   -6.3275    4.3084 C   0  0  0  0  0  0  0  0  0  0  0  0
    3.9863   -4.9012    3.7934 C   0  0  0  0  0  0  0  0  0  0  0  0
    3.8864   -4.7778    2.2477 C   0  0  1  0  0  0  0  0  0  0  0  0
    2.5274   -5.3781    1.7244 C   0  0  1  0  0  0  0  0  0  0  0  0
    2.4390   -5.1968    0.1855 C   0  0  1  0  0  0  0  0  0  0  0  0
    1.1864   -5.5025   -0.3202 O   0  0  0  0  0  0  0  0  0  0  0  0
    2.6871   -3.7568   -0.2819 C   0  0  0  0  0  0  0  0  0  0  0  0
    3.9650   -3.0879    0.2543 C   0  0  1  0  0  0  0  0  0  0  0  0
    3.7854   -1.5591    0.0226 C   0  0  0  0  0  0  0  0  0  0  0  0
    4.1604   -3.3183    1.7721 C   0  0  2  0  0  0  0  0  0  0  0  0
    5.6362   -2.9052    1.9558 C   0  0  0  0  0  0  0  0  0  0  0  0
    6.3814   -3.3422    0.6809 C   0  0  0  0  0  0  0  0  0  0  0  0
    5.2992   -3.5794   -0.4199 C   0  0  1  0  0  0  0  0  0  0  0  0
    5.2808   -4.9803   -0.6341 O   0  0  0  0  0  0  0  0  0  0  0  0
    5.5813   -2.8889   -1.7691 C   0  0  0  0  0  0  0  0  0  0  0  0
    6.2791   -1.8646   -1.8333 O   0  0  0  0  0  0  0  0  0  0  0  0
    4.9471   -3.4715   -3.0443 C   0  0  0  0  0  0  0  0  0  0  0  0
    4.3001   -2.4695   -3.8022 O   0  0  0  0  0  0  0  0  0  0  0  0
    3.4519   -7.8892    0.6025 H   0  0  0  0  0  0  0  0  0  0  0  0
    3.4575   -8.7520    2.1021 H   0  0  0  0  0  0  0  0  0  0  0  0
    4.5025   -7.3697    1.8776 H   0  0  0  0  0  0  0  0  0  0  0  0
    0.8415   -7.4955    0.6891 H   0  0  0  0  0  0  0  0  0  0  0  0
    1.1622   -8.6634    1.9231 H   0  0  0  0  0  0  0  0  0  0  0  0
   -0.4221   -6.1418    2.4207 H   0  0  0  0  0  0  0  0  0  0  0  0
   -1.0742   -7.7616    2.2252 H   0  0  0  0  0  0  0  0  0  0  0  0
    1.4879   -7.1022    5.6416 H   0  0  0  0  0  0  0  0  0  0  0  0
    3.7126   -6.3399    5.3988 H   0  0  0  0  0  0  0  0  0  0  0  0
    4.5339   -6.9964    4.0177 H   0  0  0  0  0  0  0  0  0  0  0  0
    3.2735   -4.2216    4.2667 H   0  0  0  0  0  0  0  0  0  0  0  0
    4.9678   -4.5933    4.1500 H   0  0  0  0  0  0  0  0  0  0  0  0
    4.6978   -5.3667    1.8324 H   0  0  0  0  0  0  0  0  0  0  0  0
    1.7258   -4.7687    2.1507 H   0  0  0  0  0  0  0  0  0  0  0  0
    3.1108   -5.8841   -0.3127 H   0  0  0  0  0  0  0  0  0  0  0  0
    1.2545   -5.3949   -1.2735 H   0  0  0  0  0  0  0  0  0  0  0  0
    2.6411   -3.6983   -1.3706 H   0  0  0  0  0  0  0  0  0  0  0  0
    1.8676   -3.1387    0.0750 H   0  0  0  0  0  0  0  0  0  0  0  0
    4.6829   -0.9894    0.2540 H   0  0  0  0  0  0  0  0  0  0  0  0
    2.9879   -1.1487    0.6376 H   0  0  0  0  0  0  0  0  0  0  0  0
    3.5148   -1.3216   -1.0083 H   0  0  0  0  0  0  0  0  0  0  0  0
    3.5022   -2.6485    2.3370 H   0  0  0  0  0  0  0  0  0  0  0  0
    5.7004   -1.8212    2.0526 H   0  0  0  0  0  0  0  0  0  0  0  0
    6.0967   -3.3079    2.8541 H   0  0  0  0  0  0  0  0  0  0  0  0
    7.1203   -2.5857    0.4055 H   0  0  0  0  0  0  0  0  0  0  0  0
    6.9482   -4.2570    0.8840 H   0  0  0  0  0  0  0  0  0  0  0  0
    4.5635   -5.2102   -1.2082 H   0  0  0  0  0  0  0  0  0  0  0  0
    5.7306   -3.9381   -3.6415 H   0  0  0  0  0  0  0  0  0  0  0  0
    4.2219   -4.2486   -2.7989 H   0  0  0  0  0  0  0  0  0  0  0  0
    3.5504   -2.1471   -3.3065 H   0  0  0  0  0  0  0  0  0  0  0  0
  2  1  1  6
  1 27  1  0
  1 28  1  0
  1 29  1  0
  2  8  1  0
  2 12  1  0
  2  3  1  0
  3  4  1  0
  3 30  1  0
  3 31  1  0
  4  5  1  0
  4 32  1  0
  4 33  1  0
  5  6  2  0
  5  7  1  0
  7  8  2  0
  7 34  1  0
  8  9  1  0
  9 10  1  0
  9 35  1  0
  9 36  1  0
 10 11  1  0
 10 37  1  0
 10 38  1  0
 11 18  1  0
 11 12  1  0
 11 39  1  6
 12 13  1  0
 12 40  1  1
 13 14  1  0
 13 15  1  0
 13 41  1  6
 14 42  1  0
 15 16  1  0
 15 43  1  0
 15 44  1  0
 16 21  1  0
 16 17  1  1
 16 18  1  0
 17 45  1  0
 17 46  1  0
 17 47  1  0
 18 19  1  0
 18 48  1  1
 19 20  1  0
 19 49  1  0
 19 50  1  0
 20 21  1  0
 20 51  1  0
 20 52  1  0
 21 22  1  6
 21 23  1  0
 22 53  1  0
 23 24  2  0
 23 25  1  0
 25 26  1  0
 25 54  1  0
 25 55  1  0
 26 56  1  0
M  END
>  <i_m_ct_stereo_status>  (143) 
1

>  <s_m_source_file>  (143) 
/var/tmp/pbs.5076255.sched01/tmpqwfmwtcs/46j3o47u_k.sdf

>  <i_m_source_file_index>  (143) 
8

>  <i_lp_mmshare_version>  (143) 
48012

>  <i_f3d_flags>  (143) 
0

>  <s_epik_input>  (143) 
W0NIMl0xW0NIMl1DKD1PKVtDSF09QyhbQ0BAXTEyW0NIM10pW0NIMl1bQ0gyXVtDQEhdM1tDQEhdMltDQEBIXShbT0hdKVtDSDJdW0NAQF00KFtDSDNdKVtDQEBIXTNbQ0gyXVtDSDJdW0NAXTQoW09IXSlDKD1PKVtDSDJdW09IXQ==

>  <s_epik_cmdline>  (143) 
J2VwaWtfcHl0aG9uJywgJy1waHQnLCAnMi4wJywgJy1waCcsICc3LjAnLCAnLXRuJywgJzgnLCAnLW1hJywgJzIwMCcsICctaW1hZScsICc8aW5maWxlLm1hZT4nLCAnLW9tYWUnLCAnPG91dGZpbGUubWFlPic=

>  <r_lp_tautomer_probability>  (143) 
1

>  <r_epik_Ionization_Penalty>  (143) 
5.92854e-06

>  <r_epik_Ionization_Penalty_Charging>  (143) 
0

>  <r_epik_Ionization_Penalty_Neutral>  (143) 
5.92854e-06

>  <r_epik_State_Penalty>  (143) 
-0

>  <r_epik_Charging_Adjusted_Penalty>  (143) 
0

>  <i_epik_Tot_Q>  (143) 
0

>  <i_epik_Tot_abs_Q>  (143) 
0

>  <s_lp_Force_Field>  (143) 
OPLS3e

>  <r_lp_Energy>  (143) 
51.2099

>  <b_lp_Chiralities_Consistent>  (143) 
1

>  <s_lp_Variant>  (143) 
37:0-1

>  <s_i_glide_gridfile>  (143) 
pfpi4k_grid

>  <i_i_glide_lignum>  (143) 
8

>  <i_i_glide_rotatable_bonds>  (143) 
5

>  <r_i_docking_score>  (143) 
-4.62079

>  <r_i_glide_ligand_efficiency>  (143) 
-0.177723

>  <r_i_glide_ligand_efficiency_sa>  (143) 
-0.526503

>  <r_i_glide_ligand_efficiency_ln>  (143) 
-1.08518

>  <r_i_glide_gscore>  (143) 
-4.62079

>  <r_i_glide_lipo>  (143) 
-0.379271

>  <r_i_glide_hbond>  (143) 
-0.571503

>  <r_i_glide_metal>  (143) 
-0

>  <r_i_glide_rewards>  (143) 
-0.995811

>  <r_i_glide_evdw>  (143) 
-20.4719

>  <r_i_glide_ecoul>  (143) 
-12.7304

>  <r_i_glide_erotb>  (143) 
0.292322

>  <r_i_glide_esite>  (143) 
-0.0333725

>  <r_i_glide_emodel>  (143) 
-41.0611

>  <r_i_glide_energy>  (143) 
-33.2023

>  <r_i_glide_einternal>  (143) 
4.35123

>  <r_i_glide_intrahb_reward>  (143) 
-0

>  <i_i_glide_confnum>  (143) 
2

>  <i_i_glide_posenum>  (143) 
28

>  <r_i_glide_eff_state_penalty>  (143) 
0

>  <ligand_id>  (143) 
37

>  <original_smiles>  (143) 
CC12CCC(=O)C=C1CCC1C2C(O)CC2(C)C1CCC2(O)C(=O)CO

>  <smiles>  (143) 
[H]OC([H])([H])C(=O)C1(O[H])C([H])([H])C([H])([H])C2([H])C3([H])C([H])([H])C([H])([H])C4=C([H])C(=O)C([H])([H])C([H])([H])C4(C([H])([H])[H])C3([H])C([H])(O[H])C([H])([H])C12C([H])([H])[H]

$$$$
37:0:1
     RDKit          3D

 56 59  0  0  1  0  0  0  0  0999 V2000
    2.7350   -3.1730    1.9182 C   0  0  0  0  0  0  0  0  0  0  0  0
    3.5157   -4.0832    0.9487 C   0  0  1  0  0  0  0  0  0  0  0  0
    3.0365   -3.7728   -0.4850 C   0  0  0  0  0  0  0  0  0  0  0  0
    3.6099   -2.4625   -1.0813 C   0  0  0  0  0  0  0  0  0  0  0  0
    5.1410   -2.4459   -1.0014 C   0  0  0  0  0  0  0  0  0  0  0  0
    5.8076   -1.9500   -1.8995 O   0  0  0  0  0  0  0  0  0  0  0  0
    5.7344   -3.0066    0.2180 C   0  0  0  0  0  0  0  0  0  0  0  0
    5.0042   -3.7139    1.1130 C   0  0  0  0  0  0  0  0  0  0  0  0
    5.6282   -4.1771    2.4185 C   0  0  0  0  0  0  0  0  0  0  0  0
    5.4029   -5.6677    2.6698 C   0  0  0  0  0  0  0  0  0  0  0  0
    3.8977   -6.0171    2.6473 C   0  0  1  0  0  0  0  0  0  0  0  0
    3.2857   -5.6063    1.2709 C   0  0  1  0  0  0  0  0  0  0  0  0
    1.7897   -6.0363    1.2116 C   0  0  1  0  0  0  0  0  0  0  0  0
    1.2190   -5.8535   -0.0773 O   0  0  0  0  0  0  0  0  0  0  0  0
    1.5660   -7.5199    1.5544 C   0  0  0  0  0  0  0  0  0  0  0  0
    2.1854   -7.9903    2.8755 C   0  0  1  0  0  0  0  0  0  0  0  0
    2.2145   -9.5357    2.7870 C   0  0  0  0  0  0  0  0  0  0  0  0
    3.6480   -7.5125    3.0282 C   0  0  2  0  0  0  0  0  0  0  0  0
    3.9102   -7.7882    4.5196 C   0  0  0  0  0  0  0  0  0  0  0  0
    2.5778   -7.5390    5.2549 C   0  0  0  0  0  0  0  0  0  0  0  0
    1.4593   -7.5354    4.1752 C   0  0  1  0  0  0  0  0  0  0  0  0
    0.9966   -6.1929    4.0799 O   0  0  0  0  0  0  0  0  0  0  0  0
    0.2276   -8.4089    4.5101 C   0  0  0  0  0  0  0  0  0  0  0  0
    0.1305   -9.0184    5.5790 O   0  0  0  0  0  0  0  0  0  0  0  0
   -0.9121   -8.4606    3.4595 C   0  0  0  0  0  0  0  0  0  0  0  0
   -2.1814   -8.6549    4.0650 O   0  0  0  0  0  0  0  0  0  0  0  0
    1.6524   -3.2805    1.8108 H   0  0  0  0  0  0  0  0  0  0  0  0
    2.9456   -2.1076    1.7476 H   0  0  0  0  0  0  0  0  0  0  0  0
    2.9556   -3.3638    2.9695 H   0  0  0  0  0  0  0  0  0  0  0  0
    3.3770   -4.5833   -1.1272 H   0  0  0  0  0  0  0  0  0  0  0  0
    1.9437   -3.7900   -0.5312 H   0  0  0  0  0  0  0  0  0  0  0  0
    3.2946   -2.3433   -2.1206 H   0  0  0  0  0  0  0  0  0  0  0  0
    3.2191   -1.6047   -0.5332 H   0  0  0  0  0  0  0  0  0  0  0  0
    6.7790   -2.7766    0.4112 H   0  0  0  0  0  0  0  0  0  0  0  0
    6.6958   -3.9710    2.4033 H   0  0  0  0  0  0  0  0  0  0  0  0
    5.2133   -3.5883    3.2378 H   0  0  0  0  0  0  0  0  0  0  0  0
    5.9438   -6.2521    1.9247 H   0  0  0  0  0  0  0  0  0  0  0  0
    5.8520   -5.9175    3.6302 H   0  0  0  0  0  0  0  0  0  0  0  0
    3.4298   -5.4220    3.4284 H   0  0  0  0  0  0  0  0  0  0  0  0
    3.8198   -6.1908    0.5119 H   0  0  0  0  0  0  0  0  0  0  0  0
    1.1975   -5.4314    1.8976 H   0  0  0  0  0  0  0  0  0  0  0  0
    1.9152   -5.7554   -0.7229 H   0  0  0  0  0  0  0  0  0  0  0  0
    0.4934   -7.7292    1.4842 H   0  0  0  0  0  0  0  0  0  0  0  0
    2.0423   -8.1299    0.7947 H   0  0  0  0  0  0  0  0  0  0  0  0
    2.5338  -10.0166    3.7153 H   0  0  0  0  0  0  0  0  0  0  0  0
    2.9083   -9.9045    2.0118 H   0  0  0  0  0  0  0  0  0  0  0  0
    1.2438   -9.9748    2.5306 H   0  0  0  0  0  0  0  0  0  0  0  0
    4.3184   -8.1042    2.4060 H   0  0  0  0  0  0  0  0  0  0  0  0
    4.1867   -8.8314    4.6345 H   0  0  0  0  0  0  0  0  0  0  0  0
    4.7402   -7.2201    4.9516 H   0  0  0  0  0  0  0  0  0  0  0  0
    2.4350   -8.3051    6.0155 H   0  0  0  0  0  0  0  0  0  0  0  0
    2.6423   -6.5747    5.7834 H   0  0  0  0  0  0  0  0  0  0  0  0
    1.7467   -5.6117    3.9451 H   0  0  0  0  0  0  0  0  0  0  0  0
   -0.9447   -7.5370    2.8837 H   0  0  0  0  0  0  0  0  0  0  0  0
   -0.7210   -9.2866    2.7793 H   0  0  0  0  0  0  0  0  0  0  0  0
   -2.1983   -9.5549    4.4466 H   0  0  0  0  0  0  0  0  0  0  0  0
  2  1  1  1
  1 27  1  0
  1 28  1  0
  1 29  1  0
  2  8  1  0
  2 12  1  0
  2  3  1  0
  3  4  1  0
  3 30  1  0
  3 31  1  0
  4  5  1  0
  4 32  1  0
  4 33  1  0
  5  6  2  0
  5  7  1  0
  7  8  2  0
  7 34  1  0
  8  9  1  0
  9 10  1  0
  9 35  1  0
  9 36  1  0
 10 11  1  0
 10 37  1  0
 10 38  1  0
 11 18  1  0
 11 12  1  0
 11 39  1  1
 12 13  1  0
 12 40  1  6
 13 14  1  0
 13 15  1  0
 13 41  1  1
 14 42  1  0
 15 16  1  0
 15 43  1  0
 15 44  1  0
 16 21  1  0
 16 17  1  6
 16 18  1  0
 17 45  1  0
 17 46  1  0
 17 47  1  0
 18 19  1  0
 18 48  1  6
 19 20  1  0
 19 49  1  0
 19 50  1  0
 20 21  1  0
 20 51  1  0
 20 52  1  0
 21 22  1  6
 21 23  1  0
 22 53  1  0
 23 24  2  0
 23 25  1  0
 25 26  1  0
 25 54  1  0
 25 55  1  0
 26 56  1  0
M  END
>  <i_m_ct_stereo_status>  (144) 
1

>  <s_m_source_file>  (144) 
/var/tmp/pbs.5076255.sched01/tmpqwfmwtcs/46j3o47u_k.sdf

>  <i_m_source_file_index>  (144) 
8

>  <i_lp_mmshare_version>  (144) 
48012

>  <i_f3d_flags>  (144) 
0

>  <s_epik_input>  (144) 
W0NIMl0xW0NIMl1DKD1PKVtDSF09QyhbQ0BAXTEyW0NIM10pW0NIMl1bQ0gyXVtDQEhdM1tDQEhdMltDQEBIXShbT0hdKVtDSDJdW0NAQF00KFtDSDNdKVtDQEBIXTNbQ0gyXVtDSDJdW0NAXTQoW09IXSlDKD1PKVtDSDJdW09IXQ==

>  <s_epik_cmdline>  (144) 
J2VwaWtfcHl0aG9uJywgJy1waHQnLCAnMi4wJywgJy1waCcsICc3LjAnLCAnLXRuJywgJzgnLCAnLW1hJywgJzIwMCcsICctaW1hZScsICc8aW5maWxlLm1hZT4nLCAnLW9tYWUnLCAnPG91dGZpbGUubWFlPic=

>  <r_lp_tautomer_probability>  (144) 
1

>  <r_epik_Ionization_Penalty>  (144) 
5.92854e-06

>  <r_epik_Ionization_Penalty_Charging>  (144) 
0

>  <r_epik_Ionization_Penalty_Neutral>  (144) 
5.92854e-06

>  <r_epik_State_Penalty>  (144) 
-0

>  <r_epik_Charging_Adjusted_Penalty>  (144) 
0

>  <i_epik_Tot_Q>  (144) 
0

>  <i_epik_Tot_abs_Q>  (144) 
0

>  <s_lp_Force_Field>  (144) 
OPLS3e

>  <r_lp_Energy>  (144) 
51.2099

>  <b_lp_Chiralities_Consistent>  (144) 
1

>  <s_lp_Variant>  (144) 
37:0-1

>  <s_i_glide_gridfile>  (144) 
pfpi4k_grid

>  <i_i_glide_lignum>  (144) 
8

>  <i_i_glide_rotatable_bonds>  (144) 
5

>  <r_i_docking_score>  (144) 
-4.20218

>  <r_i_glide_ligand_efficiency>  (144) 
-0.161622

>  <r_i_glide_ligand_efficiency_sa>  (144) 
-0.478806

>  <r_i_glide_ligand_efficiency_ln>  (144) 
-0.986869

>  <r_i_glide_gscore>  (144) 
-4.20218

>  <r_i_glide_lipo>  (144) 
-0.147181

>  <r_i_glide_hbond>  (144) 
-0.607493

>  <r_i_glide_metal>  (144) 
-0

>  <r_i_glide_rewards>  (144) 
-0.937773

>  <r_i_glide_evdw>  (144) 
-16.6437

>  <r_i_glide_ecoul>  (144) 
-12.8155

>  <r_i_glide_erotb>  (144) 
0.292322

>  <r_i_glide_esite>  (144) 
-0.0475526

>  <r_i_glide_emodel>  (144) 
-35.3057

>  <r_i_glide_energy>  (144) 
-29.4592

>  <r_i_glide_einternal>  (144) 
4.54365

>  <r_i_glide_intrahb_reward>  (144) 
-0

>  <i_i_glide_confnum>  (144) 
1

>  <i_i_glide_posenum>  (144) 
1

>  <r_i_glide_eff_state_penalty>  (144) 
0

>  <ligand_id>  (144) 
37

>  <original_smiles>  (144) 
CC12CCC(=O)C=C1CCC1C2C(O)CC2(C)C1CCC2(O)C(=O)CO

>  <smiles>  (144) 
[H]OC([H])([H])C(=O)C1(O[H])C([H])([H])C([H])([H])C2([H])C3([H])C([H])([H])C([H])([H])C4=C([H])C(=O)C([H])([H])C([H])([H])C4(C([H])([H])[H])C3([H])C([H])(O[H])C([H])([H])C12C([H])([H])[H]

$$$$
37:0:2
     RDKit          3D

 56 59  0  0  1  0  0  0  0  0999 V2000
    3.1395   -3.5926    2.1704 C   0  0  0  0  0  0  0  0  0  0  0  0
    3.7562   -4.4236    1.0150 C   0  0  1  0  0  0  0  0  0  0  0  0
    3.1575   -3.9091   -0.3216 C   0  0  0  0  0  0  0  0  0  0  0  0
    3.7480   -2.5715   -0.8059 C   0  0  0  0  0  0  0  0  0  0  0  0
    5.2667   -2.6637   -0.8969 C   0  0  0  0  0  0  0  0  0  0  0  0
    5.8669   -2.0933   -1.8101 O   0  0  0  0  0  0  0  0  0  0  0  0
    5.9550   -3.4065    0.1623 C   0  0  0  0  0  0  0  0  0  0  0  0
    5.2786   -4.1762    1.0492 C   0  0  0  0  0  0  0  0  0  0  0  0
    6.0179   -4.8350    2.2013 C   0  0  0  0  0  0  0  0  0  0  0  0
    5.6924   -6.3278    2.3041 C   0  0  0  0  0  0  0  0  0  0  0  0
    4.1669   -6.5755    2.4195 C   0  0  1  0  0  0  0  0  0  0  0  0
    3.4355   -5.9577    1.1859 C   0  0  1  0  0  0  0  0  0  0  0  0
    1.9054   -6.2761    1.2443 C   0  0  1  0  0  0  0  0  0  0  0  0
    1.2100   -5.8652    0.0691 O   0  0  0  0  0  0  0  0  0  0  0  0
    1.5992   -7.7788    1.4362 C   0  0  0  0  0  0  0  0  0  0  0  0
    2.3441   -8.4439    2.6128 C   0  0  1  0  0  0  0  0  0  0  0  0
    2.2385   -9.9716    2.3458 C   0  0  0  0  0  0  0  0  0  0  0  0
    3.8495   -8.0857    2.6488 C   0  0  2  0  0  0  0  0  0  0  0  0
    4.2598   -8.5661    4.0600 C   0  0  0  0  0  0  0  0  0  0  0  0
    3.0500   -8.3271    4.9784 C   0  0  0  0  0  0  0  0  0  0  0  0
    1.8268   -8.1100    4.0479 C   0  0  1  0  0  0  0  0  0  0  0  0
    1.4638   -6.7441    4.1935 O   0  0  0  0  0  0  0  0  0  0  0  0
    0.5851   -8.9419    4.4247 C   0  0  0  0  0  0  0  0  0  0  0  0
    0.5983   -9.7603    5.3353 O   0  0  0  0  0  0  0  0  0  0  0  0
   -0.7046   -8.6754    3.6214 C   0  0  0  0  0  0  0  0  0  0  0  0
   -1.8072   -8.6548    4.4934 O   0  0  0  0  0  0  0  0  0  0  0  0
    2.0479   -3.6121    2.1728 H   0  0  0  0  0  0  0  0  0  0  0  0
    3.4198   -2.5359    2.1105 H   0  0  0  0  0  0  0  0  0  0  0  0
    3.4550   -3.9285    3.1582 H   0  0  0  0  0  0  0  0  0  0  0  0
    3.3227   -4.6459   -1.1144 H   0  0  0  0  0  0  0  0  0  0  0  0
    2.0748   -3.8126   -0.2256 H   0  0  0  0  0  0  0  0  0  0  0  0
    3.3259   -2.2982   -1.7742 H   0  0  0  0  0  0  0  0  0  0  0  0
    3.4863   -1.7700   -0.1136 H   0  0  0  0  0  0  0  0  0  0  0  0
    7.0254   -3.2732    0.2486 H   0  0  0  0  0  0  0  0  0  0  0  0
    7.0964   -4.6941    2.1023 H   0  0  0  0  0  0  0  0  0  0  0  0
    5.7397   -4.3329    3.1282 H   0  0  0  0  0  0  0  0  0  0  0  0
    6.1019   -6.8505    1.4395 H   0  0  0  0  0  0  0  0  0  0  0  0
    6.2244   -6.7259    3.1677 H   0  0  0  0  0  0  0  0  0  0  0  0
    3.8303   -6.0568    3.3152 H   0  0  0  0  0  0  0  0  0  0  0  0
    3.8338   -6.4697    0.3082 H   0  0  0  0  0  0  0  0  0  0  0  0
    1.4365   -5.7202    2.0598 H   0  0  0  0  0  0  0  0  0  0  0  0
    1.8212   -5.8730   -0.6668 H   0  0  0  0  0  0  0  0  0  0  0  0
    0.5170   -7.9123    1.5077 H   0  0  0  0  0  0  0  0  0  0  0  0
    1.8586   -8.3496    0.5440 H   0  0  0  0  0  0  0  0  0  0  0  0
    2.6194  -10.5948    3.1587 H   0  0  0  0  0  0  0  0  0  0  0  0
    2.8020  -10.2605    1.4537 H   0  0  0  0  0  0  0  0  0  0  0  0
    1.2116  -10.2993    2.1584 H   0  0  0  0  0  0  0  0  0  0  0  0
    4.3999   -8.6470    1.8910 H   0  0  0  0  0  0  0  0  0  0  0  0
    4.4664   -9.6351    4.0220 H   0  0  0  0  0  0  0  0  0  0  0  0
    5.1706   -8.1057    4.4518 H   0  0  0  0  0  0  0  0  0  0  0  0
    2.9280   -9.1705    5.6618 H   0  0  0  0  0  0  0  0  0  0  0  0
    3.2437   -7.4451    5.5983 H   0  0  0  0  0  0  0  0  0  0  0  0
    1.2695   -6.5638    5.1100 H   0  0  0  0  0  0  0  0  0  0  0  0
   -0.6589   -7.7324    3.0741 H   0  0  0  0  0  0  0  0  0  0  0  0
   -0.8703   -9.4921    2.9184 H   0  0  0  0  0  0  0  0  0  0  0  0
   -1.9082   -9.5487    4.8565 H   0  0  0  0  0  0  0  0  0  0  0  0
  2  1  1  1
  1 27  1  0
  1 28  1  0
  1 29  1  0
  2  8  1  0
  2 12  1  0
  2  3  1  0
  3  4  1  0
  3 30  1  0
  3 31  1  0
  4  5  1  0
  4 32  1  0
  4 33  1  0
  5  6  2  0
  5  7  1  0
  7  8  2  0
  7 34  1  0
  8  9  1  0
  9 10  1  0
  9 35  1  0
  9 36  1  0
 10 11  1  0
 10 37  1  0
 10 38  1  0
 11 18  1  0
 11 12  1  0
 11 39  1  1
 12 13  1  0
 12 40  1  6
 13 14  1  0
 13 15  1  0
 13 41  1  1
 14 42  1  0
 15 16  1  0
 15 43  1  0
 15 44  1  0
 16 21  1  0
 16 17  1  6
 16 18  1  0
 17 45  1  0
 17 46  1  0
 17 47  1  0
 18 19  1  0
 18 48  1  6
 19 20  1  0
 19 49  1  0
 19 50  1  0
 20 21  1  0
 20 51  1  0
 20 52  1  0
 21 22  1  6
 21 23  1  0
 22 53  1  0
 23 24  2  0
 23 25  1  0
 25 26  1  0
 25 54  1  0
 25 55  1  0
 26 56  1  0
M  END
>  <i_m_ct_stereo_status>  (145) 
1

>  <s_m_source_file>  (145) 
/var/tmp/pbs.5076255.sched01/tmpqwfmwtcs/46j3o47u_k.sdf

>  <i_m_source_file_index>  (145) 
8

>  <i_lp_mmshare_version>  (145) 
48012

>  <i_f3d_flags>  (145) 
0

>  <s_epik_input>  (145) 
W0NIMl0xW0NIMl1DKD1PKVtDSF09QyhbQ0BAXTEyW0NIM10pW0NIMl1bQ0gyXVtDQEhdM1tDQEhdMltDQEBIXShbT0hdKVtDSDJdW0NAQF00KFtDSDNdKVtDQEBIXTNbQ0gyXVtDSDJdW0NAXTQoW09IXSlDKD1PKVtDSDJdW09IXQ==

>  <s_epik_cmdline>  (145) 
J2VwaWtfcHl0aG9uJywgJy1waHQnLCAnMi4wJywgJy1waCcsICc3LjAnLCAnLXRuJywgJzgnLCAnLW1hJywgJzIwMCcsICctaW1hZScsICc8aW5maWxlLm1hZT4nLCAnLW9tYWUnLCAnPG91dGZpbGUubWFlPic=

>  <r_lp_tautomer_probability>  (145) 
1

>  <r_epik_Ionization_Penalty>  (145) 
5.92854e-06

>  <r_epik_Ionization_Penalty_Charging>  (145) 
0

>  <r_epik_Ionization_Penalty_Neutral>  (145) 
5.92854e-06

>  <r_epik_State_Penalty>  (145) 
-0

>  <r_epik_Charging_Adjusted_Penalty>  (145) 
0

>  <i_epik_Tot_Q>  (145) 
0

>  <i_epik_Tot_abs_Q>  (145) 
0

>  <s_lp_Force_Field>  (145) 
OPLS3e

>  <r_lp_Energy>  (145) 
51.2099

>  <b_lp_Chiralities_Consistent>  (145) 
1

>  <s_lp_Variant>  (145) 
37:0-1

>  <s_i_glide_gridfile>  (145) 
pfpi4k_grid

>  <i_i_glide_lignum>  (145) 
8

>  <i_i_glide_rotatable_bonds>  (145) 
5

>  <r_i_docking_score>  (145) 
-4.05288

>  <r_i_glide_ligand_efficiency>  (145) 
-0.15588

>  <r_i_glide_ligand_efficiency_sa>  (145) 
-0.461794

>  <r_i_glide_ligand_efficiency_ln>  (145) 
-0.951806

>  <r_i_glide_gscore>  (145) 
-4.05288

>  <r_i_glide_lipo>  (145) 
-0.251171

>  <r_i_glide_hbond>  (145) 
-0.481826

>  <r_i_glide_metal>  (145) 
-0

>  <r_i_glide_rewards>  (145) 
-0.937773

>  <r_i_glide_evdw>  (145) 
-15.7317

>  <r_i_glide_ecoul>  (145) 
-12.3058

>  <r_i_glide_erotb>  (145) 
0.292322

>  <r_i_glide_esite>  (145) 
-0.0419792

>  <r_i_glide_emodel>  (145) 
-33.5299

>  <r_i_glide_energy>  (145) 
-28.0375

>  <r_i_glide_einternal>  (145) 
5.56738

>  <r_i_glide_intrahb_reward>  (145) 
-0

>  <i_i_glide_confnum>  (145) 
1

>  <i_i_glide_posenum>  (145) 
21

>  <r_i_glide_eff_state_penalty>  (145) 
0

>  <ligand_id>  (145) 
37

>  <original_smiles>  (145) 
CC12CCC(=O)C=C1CCC1C2C(O)CC2(C)C1CCC2(O)C(=O)CO

>  <smiles>  (145) 
[H]OC([H])([H])C(=O)C1(O[H])C([H])([H])C([H])([H])C2([H])C3([H])C([H])([H])C([H])([H])C4=C([H])C(=O)C([H])([H])C([H])([H])C4(C([H])([H])[H])C3([H])C([H])(O[H])C([H])([H])C12C([H])([H])[H]

$$$$
39:0:0
     RDKit          3D

 42 45  0  0  1  0  0  0  0  0999 V2000
    3.2678   -0.9739   -2.8917 C   0  0  0  0  0  0  0  0  0  0  0  0
    3.5862   -2.3933   -2.7983 N   0  0  0  0  0  0  0  0  0  0  0  0
    4.5328   -2.9278   -3.7730 C   0  0  0  0  0  0  0  0  0  0  0  0
    3.5308   -2.9908   -1.5364 C   0  0  0  0  0  0  0  0  0  0  0  0
    4.3088   -3.9974   -1.0287 C   0  0  0  0  0  0  0  0  0  0  0  0
    3.8468   -4.2481    0.2440 N   0  0  0  0  0  0  0  0  0  0  0  0
    4.4018   -5.2449    1.2034 C   0  0  2  0  0  0  0  0  0  0  0  0
    5.7414   -4.7304    1.8035 C   0  0  0  0  0  0  0  0  0  0  0  0
    6.3315   -5.7889    2.7634 C   0  0  1  0  0  0  0  0  0  0  0  0
    5.3364   -6.0496    3.9100 C   0  0  0  0  0  0  0  0  0  0  0  0
    4.0194   -6.5989    3.3253 C   0  0  2  0  0  0  0  0  0  0  0  0
    4.2786   -7.9062    2.5516 C   0  0  0  0  0  0  0  0  0  0  0  0
    5.2827   -7.6324    1.4214 C   0  0  2  0  0  0  0  0  0  0  0  0
    6.6047   -7.1018    2.0035 C   0  0  0  0  0  0  0  0  0  0  0  0
    4.6925   -6.5842    0.4659 C   0  0  0  0  0  0  0  0  0  0  0  0
    3.4139   -5.5504    2.3741 C   0  0  0  0  0  0  0  0  0  0  0  0
    2.8370   -3.3951    0.5208 C   0  0  0  0  0  0  0  0  0  0  0  0
    2.6179   -2.6576   -0.5768 N   0  0  0  0  0  0  0  0  0  0  0  0
    2.3263   -0.7360   -2.4011 H   0  0  0  0  0  0  0  0  0  0  0  0
    3.2046   -0.6832   -3.9378 H   0  0  0  0  0  0  0  0  0  0  0  0
    4.0537   -0.4004   -2.4057 H   0  0  0  0  0  0  0  0  0  0  0  0
    4.4255   -4.0035   -3.9101 H   0  0  0  0  0  0  0  0  0  0  0  0
    5.5530   -2.7103   -3.4702 H   0  0  0  0  0  0  0  0  0  0  0  0
    4.3308   -2.4313   -4.7168 H   0  0  0  0  0  0  0  0  0  0  0  0
    6.4570   -4.5239    1.0078 H   0  0  0  0  0  0  0  0  0  0  0  0
    5.5881   -3.7903    2.3329 H   0  0  0  0  0  0  0  0  0  0  0  0
    7.2700   -5.4338    3.1770 H   0  0  0  0  0  0  0  0  0  0  0  0
    5.7581   -6.7501    4.6371 H   0  0  0  0  0  0  0  0  0  0  0  0
    5.1475   -5.1226    4.4541 H   0  0  0  0  0  0  0  0  0  0  0  0
    3.3206   -6.7951    4.1347 H   0  0  0  0  0  0  0  0  0  0  0  0
    4.6592   -8.6859    3.2171 H   0  0  0  0  0  0  0  0  0  0  0  0
    3.3454   -8.2873    2.1350 H   0  0  0  0  0  0  0  0  0  0  0  0
    5.4705   -8.5513    0.8726 H   0  0  0  0  0  0  0  0  0  0  0  0
    7.3346   -6.9373    1.2103 H   0  0  0  0  0  0  0  0  0  0  0  0
    7.0492   -7.8468    2.6692 H   0  0  0  0  0  0  0  0  0  0  0  0
    3.7860   -6.9670    0.0047 H   0  0  0  0  0  0  0  0  0  0  0  0
    5.4075   -6.4226   -0.3343 H   0  0  0  0  0  0  0  0  0  0  0  0
    3.2070   -4.6557    2.9581 H   0  0  0  0  0  0  0  0  0  0  0  0
    2.4652   -5.9177    1.9825 H   0  0  0  0  0  0  0  0  0  0  0  0
    2.2861   -3.3181    1.4389 H   0  0  0  0  0  0  0  0  0  0  0  0
    5.1258   -4.5374   -1.4798 H   0  0  0  0  0  0  0  0  0  0  0  0
    1.8884   -1.9252   -0.6786 H   0  0  0  0  0  0  0  0  0  0  0  0
  1 19  1  0
  1 20  1  0
  1 21  1  0
  1  2  1  0
  2  4  1  0
  2  3  1  0
  3 22  1  0
  3 23  1  0
  3 24  1  0
  4  5  2  0
  4 18  1  0
  5 41  1  0
  5  6  1  0
  7  6  1  6
  6 17  2  0
  7 15  1  0
  7 16  1  0
  7  8  1  0
  8  9  1  0
  8 25  1  0
  8 26  1  0
  9 14  1  0
  9 10  1  0
  9 27  1  1
 10 11  1  0
 10 28  1  0
 10 29  1  0
 11 12  1  0
 11 16  1  0
 11 30  1  1
 12 13  1  0
 12 31  1  0
 12 32  1  0
 13 14  1  0
 13 15  1  0
 13 33  1  6
 14 34  1  0
 14 35  1  0
 15 36  1  0
 15 37  1  0
 16 38  1  0
 16 39  1  0
 17 40  1  0
 17 18  1  0
 18 42  1  0
M  CHG  1   6   1
M  END
>  <i_m_ct_stereo_status>  (146) 
1

>  <s_m_source_file>  (146) 
/var/tmp/pbs.5076255.sched01/tmpqwfmwtcs/46j3o47u_k.sdf

>  <i_m_source_file_index>  (146) 
10

>  <i_lp_mmshare_version>  (146) 
48012

>  <i_f3d_flags>  (146) 
0

>  <s_epik_input>  (146) 
W0NIM11OKFtDSDNdKWMxW2NIXW4oW2NIXW4xKUMyM1tDSDJdW0NAQEhdNFtDSDJdW0NASF0oW0NIMl0zKVtDSDJdW0NAQEhdKFtDSDJdNClbQ0gyXTI=

>  <s_epik_cmdline>  (146) 
J2VwaWtfcHl0aG9uJywgJy1waHQnLCAnMi4wJywgJy1waCcsICc3LjAnLCAnLXRuJywgJzgnLCAnLW1hJywgJzIwMCcsICctaW1hZScsICc8aW5maWxlLm1hZT4nLCAnLW9tYWUnLCAnPG91dGZpbGUubWFlPic=

>  <r_lp_tautomer_probability>  (146) 
1

>  <r_epik_Ionization_Penalty>  (146) 
0.171227

>  <r_epik_Ionization_Penalty_Charging>  (146) 
0

>  <r_epik_Ionization_Penalty_Neutral>  (146) 
0.171227

>  <r_epik_State_Penalty>  (146) 
0.160617

>  <r_epik_Charging_Adjusted_Penalty>  (146) 
0.160617

>  <i_epik_Tot_Q>  (146) 
1

>  <i_epik_Tot_abs_Q>  (146) 
1

>  <s_lp_Force_Field>  (146) 
OPLS3e

>  <r_lp_Energy>  (146) 
10.7562

>  <b_lp_Chiralities_Consistent>  (146) 
1

>  <s_lp_Variant>  (146) 
39:0-1

>  <s_i_glide_gridfile>  (146) 
pfpi4k_grid

>  <i_i_glide_lignum>  (146) 
10

>  <i_i_glide_rotatable_bonds>  (146) 
2

>  <r_i_docking_score>  (146) 
-4.2029

>  <r_i_glide_ligand_efficiency>  (146) 
-0.233495

>  <r_i_glide_ligand_efficiency_sa>  (146) 
-0.611929

>  <r_i_glide_ligand_efficiency_ln>  (146) 
-1.08033

>  <r_i_glide_gscore>  (146) 
-4.2029

>  <r_i_glide_lipo>  (146) 
-0.503034

>  <r_i_glide_hbond>  (146) 
-0.14246

>  <r_i_glide_metal>  (146) 
-0

>  <r_i_glide_rewards>  (146) 
-1.7638

>  <r_i_glide_evdw>  (146) 
-13.2128

>  <r_i_glide_ecoul>  (146) 
-8.88892

>  <r_i_glide_erotb>  (146) 
0.287101

>  <r_i_glide_esite>  (146) 
-0.0867333

>  <r_i_glide_emodel>  (146) 
-28.1632

>  <r_i_glide_energy>  (146) 
-22.1017

>  <r_i_glide_einternal>  (146) 
0.809982

>  <r_i_glide_intrahb_reward>  (146) 
-0

>  <i_i_glide_confnum>  (146) 
3

>  <i_i_glide_posenum>  (146) 
32

>  <r_i_glide_eff_state_penalty>  (146) 
0

>  <ligand_id>  (146) 
39

>  <original_smiles>  (146) 
CN(C)c1cn(C23CC4CC(CC(C4)C2)C3)cn1

>  <smiles>  (146) 
[H]c1c(N(C([H])([H])[H])C([H])([H])[H])n([H])c([H])[n+]1C12C([H])([H])C3([H])C([H])([H])C([H])(C([H])([H])C([H])(C3([H])[H])C1([H])[H])C2([H])[H]

$$$$
39:0:1
     RDKit          3D

 42 45  0  0  1  0  0  0  0  0999 V2000
    4.2813   -4.1719    5.2849 C   0  0  0  0  0  0  0  0  0  0  0  0
    4.9597   -4.3660    4.0127 N   0  0  0  0  0  0  0  0  0  0  0  0
    5.5035   -5.6924    3.7602 C   0  0  0  0  0  0  0  0  0  0  0  0
    4.5244   -3.5967    2.9161 C   0  0  0  0  0  0  0  0  0  0  0  0
    4.7391   -3.8249    1.5824 C   0  0  0  0  0  0  0  0  0  0  0  0
    4.1413   -2.7760    0.9153 N   0  0  0  0  0  0  0  0  0  0  0  0
    4.0778   -2.5895   -0.5582 C   0  0  2  0  0  0  0  0  0  0  0  0
    3.6229   -1.1576   -0.9527 C   0  0  0  0  0  0  0  0  0  0  0  0
    3.5722   -1.0135   -2.4852 C   0  0  1  0  0  0  0  0  0  0  0  0
    4.9739   -1.2477   -3.0389 C   0  0  0  0  0  0  0  0  0  0  0  0
    5.4393   -2.6736   -2.7040 C   0  0  2  0  0  0  0  0  0  0  0  0
    4.4670   -3.7082   -3.3023 C   0  0  0  0  0  0  0  0  0  0  0  0
    3.0624   -3.4534   -2.7279 C   0  0  2  0  0  0  0  0  0  0  0  0
    2.6184   -2.0416   -3.1063 C   0  0  0  0  0  0  0  0  0  0  0  0
    3.0843   -3.6074   -1.1865 C   0  0  0  0  0  0  0  0  0  0  0  0
    5.4870   -2.8334   -1.1759 C   0  0  0  0  0  0  0  0  0  0  0  0
    3.5540   -1.9558    1.8129 C   0  0  0  0  0  0  0  0  0  0  0  0
    3.8045   -2.4392    3.0331 N   0  0  0  0  0  0  0  0  0  0  0  0
    4.2418   -3.1205    5.5766 H   0  0  0  0  0  0  0  0  0  0  0  0
    4.8029   -4.7229    6.0720 H   0  0  0  0  0  0  0  0  0  0  0  0
    3.2592   -4.5504    5.2179 H   0  0  0  0  0  0  0  0  0  0  0  0
    6.3026   -5.6829    3.0190 H   0  0  0  0  0  0  0  0  0  0  0  0
    4.7167   -6.3630    3.4147 H   0  0  0  0  0  0  0  0  0  0  0  0
    5.9110   -6.0992    4.6888 H   0  0  0  0  0  0  0  0  0  0  0  0
    2.6388   -0.9423   -0.5436 H   0  0  0  0  0  0  0  0  0  0  0  0
    4.2903   -0.4039   -0.5260 H   0  0  0  0  0  0  0  0  0  0  0  0
    3.2431   -0.0100   -2.7482 H   0  0  0  0  0  0  0  0  0  0  0  0
    4.9884   -1.0821   -4.1155 H   0  0  0  0  0  0  0  0  0  0  0  0
    5.6275   -0.5220   -2.5595 H   0  0  0  0  0  0  0  0  0  0  0  0
    6.4340   -2.8503   -3.1112 H   0  0  0  0  0  0  0  0  0  0  0  0
    4.4498   -3.6460   -4.3878 H   0  0  0  0  0  0  0  0  0  0  0  0
    4.8015   -4.7125   -3.0524 H   0  0  0  0  0  0  0  0  0  0  0  0
    2.3374   -4.1388   -3.1660 H   0  0  0  0  0  0  0  0  0  0  0  0
    1.6249   -1.9093   -2.7161 H   0  0  0  0  0  0  0  0  0  0  0  0
    2.5509   -1.9196   -4.1862 H   0  0  0  0  0  0  0  0  0  0  0  0
    3.3762   -4.6236   -0.9192 H   0  0  0  0  0  0  0  0  0  0  0  0
    2.0797   -3.4626   -0.7808 H   0  0  0  0  0  0  0  0  0  0  0  0
    6.2075   -2.1347   -0.7437 H   0  0  0  0  0  0  0  0  0  0  0  0
    5.8492   -3.8373   -0.9522 H   0  0  0  0  0  0  0  0  0  0  0  0
    2.9880   -1.0635    1.6095 H   0  0  0  0  0  0  0  0  0  0  0  0
    5.2562   -4.6243    1.0703 H   0  0  0  0  0  0  0  0  0  0  0  0
    3.5124   -2.0135    3.9015 H   0  0  0  0  0  0  0  0  0  0  0  0
  1 19  1  0
  1 20  1  0
  1 21  1  0
  1  2  1  0
  2  4  1  0
  2  3  1  0
  3 22  1  0
  3 23  1  0
  3 24  1  0
  4  5  2  0
  4 18  1  0
  5 41  1  0
  5  6  1  0
  7  6  1  1
  6 17  2  0
  7 15  1  0
  7 16  1  0
  7  8  1  0
  8  9  1  0
  8 25  1  0
  8 26  1  0
  9 14  1  0
  9 10  1  0
  9 27  1  1
 10 11  1  0
 10 28  1  0
 10 29  1  0
 11 12  1  0
 11 16  1  0
 11 30  1  6
 12 13  1  0
 12 31  1  0
 12 32  1  0
 13 14  1  0
 13 15  1  0
 13 33  1  6
 14 34  1  0
 14 35  1  0
 15 36  1  0
 15 37  1  0
 16 38  1  0
 16 39  1  0
 17 40  1  0
 17 18  1  0
 18 42  1  0
M  CHG  1   6   1
M  END
>  <i_m_ct_stereo_status>  (147) 
1

>  <s_m_source_file>  (147) 
/var/tmp/pbs.5076255.sched01/tmpqwfmwtcs/46j3o47u_k.sdf

>  <i_m_source_file_index>  (147) 
10

>  <i_lp_mmshare_version>  (147) 
48012

>  <i_f3d_flags>  (147) 
0

>  <s_epik_input>  (147) 
W0NIM11OKFtDSDNdKWMxW2NIXW4oW2NIXW4xKUMyM1tDSDJdW0NAQEhdNFtDSDJdW0NASF0oW0NIMl0zKVtDSDJdW0NAQEhdKFtDSDJdNClbQ0gyXTI=

>  <s_epik_cmdline>  (147) 
J2VwaWtfcHl0aG9uJywgJy1waHQnLCAnMi4wJywgJy1waCcsICc3LjAnLCAnLXRuJywgJzgnLCAnLW1hJywgJzIwMCcsICctaW1hZScsICc8aW5maWxlLm1hZT4nLCAnLW9tYWUnLCAnPG91dGZpbGUubWFlPic=

>  <r_lp_tautomer_probability>  (147) 
1

>  <r_epik_Ionization_Penalty>  (147) 
0.171227

>  <r_epik_Ionization_Penalty_Charging>  (147) 
0

>  <r_epik_Ionization_Penalty_Neutral>  (147) 
0.171227

>  <r_epik_State_Penalty>  (147) 
0.160617

>  <r_epik_Charging_Adjusted_Penalty>  (147) 
0.160617

>  <i_epik_Tot_Q>  (147) 
1

>  <i_epik_Tot_abs_Q>  (147) 
1

>  <s_lp_Force_Field>  (147) 
OPLS3e

>  <r_lp_Energy>  (147) 
10.7562

>  <b_lp_Chiralities_Consistent>  (147) 
1

>  <s_lp_Variant>  (147) 
39:0-1

>  <s_i_glide_gridfile>  (147) 
pfpi4k_grid

>  <i_i_glide_lignum>  (147) 
10

>  <i_i_glide_rotatable_bonds>  (147) 
2

>  <r_i_docking_score>  (147) 
-2.66856

>  <r_i_glide_ligand_efficiency>  (147) 
-0.148253

>  <r_i_glide_ligand_efficiency_sa>  (147) 
-0.388533

>  <r_i_glide_ligand_efficiency_ln>  (147) 
-0.685939

>  <r_i_glide_gscore>  (147) 
-2.66856

>  <r_i_glide_lipo>  (147) 
-0.27108

>  <r_i_glide_hbond>  (147) 
0

>  <r_i_glide_metal>  (147) 
-0

>  <r_i_glide_rewards>  (147) 
-1.73508

>  <r_i_glide_evdw>  (147) 
-10.403

>  <r_i_glide_ecoul>  (147) 
-2.80397

>  <r_i_glide_erotb>  (147) 
0.287101

>  <r_i_glide_esite>  (147) 
-0.00875388

>  <r_i_glide_emodel>  (147) 
-17.1586

>  <r_i_glide_energy>  (147) 
-13.2069

>  <r_i_glide_einternal>  (147) 
0.237056

>  <r_i_glide_intrahb_reward>  (147) 
-0

>  <i_i_glide_confnum>  (147) 
3

>  <i_i_glide_posenum>  (147) 
24

>  <r_i_glide_eff_state_penalty>  (147) 
0

>  <ligand_id>  (147) 
39

>  <original_smiles>  (147) 
CN(C)c1cn(C23CC4CC(CC(C4)C2)C3)cn1

>  <smiles>  (147) 
[H]c1c(N(C([H])([H])[H])C([H])([H])[H])n([H])c([H])[n+]1C12C([H])([H])C3([H])C([H])([H])C([H])(C([H])([H])C([H])(C3([H])[H])C1([H])[H])C2([H])[H]

$$$$
39:1:0
     RDKit          3D

 41 44  0  0  1  0  0  0  0  0999 V2000
    3.2551   -9.0635    1.4252 C   0  0  0  0  0  0  0  0  0  0  0  0
    2.2432   -8.0670    1.7301 N   0  0  0  0  0  0  0  0  0  0  0  0
    1.2760   -8.4467    2.7413 C   0  0  0  0  0  0  0  0  0  0  0  0
    2.5675   -6.7030    1.5968 C   0  0  0  0  0  0  0  0  0  0  0  0
    3.5661   -6.1461    0.8288 C   0  0  0  0  0  0  0  0  0  0  0  0
    3.5321   -4.7680    1.0304 N   0  0  0  0  0  0  0  0  0  0  0  0
    4.4012   -3.7453    0.4567 C   0  0  1  0  0  0  0  0  0  0  0  0
    5.3912   -3.2234    1.5286 C   0  0  0  0  0  0  0  0  0  0  0  0
    6.2919   -2.1248    0.9222 C   0  0  2  0  0  0  0  0  0  0  0  0
    5.4166   -0.9548    0.4257 C   0  0  0  0  0  0  0  0  0  0  0  0
    4.4392   -1.4711   -0.6519 C   0  0  1  0  0  0  0  0  0  0  0  0
    5.2257   -2.0490   -1.8389 C   0  0  0  0  0  0  0  0  0  0  0  0
    6.1159   -3.2063   -1.3427 C   0  0  1  0  0  0  0  0  0  0  0  0
    7.0945   -2.7158   -0.2550 C   0  0  0  0  0  0  0  0  0  0  0  0
    5.2203   -4.3067   -0.7429 C   0  0  0  0  0  0  0  0  0  0  0  0
    3.5382   -2.5613   -0.0519 C   0  0  0  0  0  0  0  0  0  0  0  0
    2.5496   -4.5818    1.9216 C   0  0  0  0  0  0  0  0  0  0  0  0
    1.9000   -5.6823    2.2751 N   0  0  0  0  0  0  0  0  0  0  0  0
    3.7287   -8.8953    0.4646 H   0  0  0  0  0  0  0  0  0  0  0  0
    2.8304  -10.0679    1.4186 H   0  0  0  0  0  0  0  0  0  0  0  0
    4.0333   -9.0268    2.1825 H   0  0  0  0  0  0  0  0  0  0  0  0
    0.3751   -7.8348    2.6801 H   0  0  0  0  0  0  0  0  0  0  0  0
    1.7152   -8.2948    3.7293 H   0  0  0  0  0  0  0  0  0  0  0  0
    0.9876   -9.4961    2.6419 H   0  0  0  0  0  0  0  0  0  0  0  0
    4.8484   -2.8215    2.3849 H   0  0  0  0  0  0  0  0  0  0  0  0
    6.0027   -4.0411    1.9145 H   0  0  0  0  0  0  0  0  0  0  0  0
    6.9806   -1.7561    1.6801 H   0  0  0  0  0  0  0  0  0  0  0  0
    4.8630   -0.5173    1.2572 H   0  0  0  0  0  0  0  0  0  0  0  0
    6.0443   -0.1611    0.0247 H   0  0  0  0  0  0  0  0  0  0  0  0
    3.8086   -0.6534   -1.0026 H   0  0  0  0  0  0  0  0  0  0  0  0
    4.5347   -2.4145   -2.6000 H   0  0  0  0  0  0  0  0  0  0  0  0
    5.8191   -1.2683   -2.3067 H   0  0  0  0  0  0  0  0  0  0  0  0
    6.6779   -3.6143   -2.1843 H   0  0  0  0  0  0  0  0  0  0  0  0
    7.7818   -1.9778   -0.6620 H   0  0  0  0  0  0  0  0  0  0  0  0
    7.7077   -3.5468    0.0972 H   0  0  0  0  0  0  0  0  0  0  0  0
    5.8518   -5.1389   -0.4248 H   0  0  0  0  0  0  0  0  0  0  0  0
    4.5549   -4.6911   -1.5189 H   0  0  0  0  0  0  0  0  0  0  0  0
    2.8143   -2.9062   -0.7943 H   0  0  0  0  0  0  0  0  0  0  0  0
    2.9547   -2.1171    0.7559 H   0  0  0  0  0  0  0  0  0  0  0  0
    2.2932   -3.6100    2.3113 H   0  0  0  0  0  0  0  0  0  0  0  0
    4.2686   -6.6291    0.1636 H   0  0  0  0  0  0  0  0  0  0  0  0
  1 19  1  0
  1 20  1  0
  1 21  1  0
  1  2  1  0
  2  4  1  0
  2  3  1  0
  3 22  1  0
  3 23  1  0
  3 24  1  0
  4  5  2  0
  4 18  1  0
  5 41  1  0
  5  6  1  0
  7  6  1  1
  6 17  1  0
  7 15  1  0
  7 16  1  0
  7  8  1  0
  8  9  1  0
  8 25  1  0
  8 26  1  0
  9 14  1  0
  9 10  1  0
  9 27  1  1
 10 11  1  0
 10 28  1  0
 10 29  1  0
 11 12  1  0
 11 16  1  0
 11 30  1  6
 12 13  1  0
 12 31  1  0
 12 32  1  0
 13 14  1  0
 13 15  1  0
 13 33  1  6
 14 34  1  0
 14 35  1  0
 15 36  1  0
 15 37  1  0
 16 38  1  0
 16 39  1  0
 17 40  1  0
 17 18  2  0
M  END
>  <i_m_ct_stereo_status>  (148) 
1

>  <s_m_source_file>  (148) 
/var/tmp/pbs.5076255.sched01/tmpqwfmwtcs/46j3o47u_k.sdf

>  <i_m_source_file_index>  (148) 
11

>  <i_lp_mmshare_version>  (148) 
48012

>  <i_f3d_flags>  (148) 
0

>  <s_epik_input>  (148) 
W0NIM11OKFtDSDNdKWMxW2NIXW4oW2NIXW4xKUMyM1tDSDJdW0NAQEhdNFtDSDJdW0NASF0oW0NIMl0zKVtDSDJdW0NAQEhdKFtDSDJdNClbQ0gyXTI=

>  <s_epik_cmdline>  (148) 
J2VwaWtfcHl0aG9uJywgJy1waHQnLCAnMi4wJywgJy1waCcsICc3LjAnLCAnLXRuJywgJzgnLCAnLW1hJywgJzIwMCcsICctaW1hZScsICc8aW5maWxlLm1hZT4nLCAnLW9tYWUnLCAnPG91dGZpbGUubWFlPic=

>  <r_lp_tautomer_probability>  (148) 
1

>  <r_epik_Ionization_Penalty>  (148) 
0.819225

>  <r_epik_Ionization_Penalty_Charging>  (148) 
0.819026

>  <r_epik_Ionization_Penalty_Neutral>  (148) 
0.000198972

>  <r_epik_State_Penalty>  (148) 
0.85187

>  <r_epik_Charging_Adjusted_Penalty>  (148) 
1.6709

>  <i_epik_Tot_Q>  (148) 
0

>  <i_epik_Tot_abs_Q>  (148) 
0

>  <s_lp_Force_Field>  (148) 
OPLS3e

>  <r_lp_Energy>  (148) 
5.30352

>  <b_lp_Chiralities_Consistent>  (148) 
1

>  <s_lp_Variant>  (148) 
39:0-2

>  <s_i_glide_gridfile>  (148) 
pfpi4k_grid

>  <i_i_glide_lignum>  (148) 
11

>  <i_i_glide_rotatable_bonds>  (148) 
2

>  <r_i_docking_score>  (148) 
-3.10152

>  <r_i_glide_ligand_efficiency>  (148) 
-0.172306

>  <r_i_glide_ligand_efficiency_sa>  (148) 
-0.451571

>  <r_i_glide_ligand_efficiency_ln>  (148) 
-0.797229

>  <r_i_glide_gscore>  (148) 
-3.10152

>  <r_i_glide_lipo>  (148) 
-0.500759

>  <r_i_glide_hbond>  (148) 
0

>  <r_i_glide_metal>  (148) 
-0

>  <r_i_glide_rewards>  (148) 
-1.73616

>  <r_i_glide_evdw>  (148) 
-18.9031

>  <r_i_glide_ecoul>  (148) 
-1.17762

>  <r_i_glide_erotb>  (148) 
0.289122

>  <r_i_glide_esite>  (148) 
-0.0319201

>  <r_i_glide_emodel>  (148) 
-23.9813

>  <r_i_glide_energy>  (148) 
-20.0807

>  <r_i_glide_einternal>  (148) 
0.210377

>  <r_i_glide_intrahb_reward>  (148) 
-0

>  <i_i_glide_confnum>  (148) 
5

>  <i_i_glide_posenum>  (148) 
11

>  <r_i_glide_eff_state_penalty>  (148) 
0

>  <ligand_id>  (148) 
39

>  <original_smiles>  (148) 
CN(C)c1cn(C23CC4CC(CC(C4)C2)C3)cn1

>  <smiles>  (148) 
[H]c1nc(N(C([H])([H])[H])C([H])([H])[H])c([H])n1C12C([H])([H])C3([H])C([H])([H])C([H])(C([H])([H])C([H])(C3([H])[H])C1([H])[H])C2([H])[H]

$$$$
39:1:1
     RDKit          3D

 41 44  0  0  1  0  0  0  0  0999 V2000
    2.0354    3.0699    2.4935 C   0  0  0  0  0  0  0  0  0  0  0  0
    1.3371    1.8761    2.9264 N   0  0  0  0  0  0  0  0  0  0  0  0
   -0.0820    2.0311    3.1684 C   0  0  0  0  0  0  0  0  0  0  0  0
    1.8000    0.6243    2.4830 C   0  0  0  0  0  0  0  0  0  0  0  0
    2.9497    0.3492    1.7750 C   0  0  0  0  0  0  0  0  0  0  0  0
    2.9856   -1.0229    1.5442 N   0  0  0  0  0  0  0  0  0  0  0  0
    3.9818   -1.7839    0.7902 C   0  0  1  0  0  0  0  0  0  0  0  0
    5.3416   -1.0291    0.7419 C   0  0  0  0  0  0  0  0  0  0  0  0
    6.3886   -1.8638   -0.0232 C   0  0  2  0  0  0  0  0  0  0  0  0
    5.9008   -2.0945   -1.4706 C   0  0  0  0  0  0  0  0  0  0  0  0
    4.5537   -2.8478   -1.4380 C   0  0  1  0  0  0  0  0  0  0  0  0
    4.7345   -4.2097   -0.7370 C   0  0  0  0  0  0  0  0  0  0  0  0
    5.2470   -3.9802    0.7010 C   0  0  1  0  0  0  0  0  0  0  0  0
    6.5836   -3.2157    0.6868 C   0  0  0  0  0  0  0  0  0  0  0  0
    4.2060   -3.1582    1.4742 C   0  0  0  0  0  0  0  0  0  0  0  0
    3.5069   -2.0131   -0.6666 C   0  0  0  0  0  0  0  0  0  0  0  0
    1.8475   -1.4791    2.0904 C   0  0  0  0  0  0  0  0  0  0  0  0
    1.1034   -0.5631    2.6909 N   0  0  0  0  0  0  0  0  0  0  0  0
    3.1050    2.9928    2.6558 H   0  0  0  0  0  0  0  0  0  0  0  0
    1.6778    3.9510    3.0250 H   0  0  0  0  0  0  0  0  0  0  0  0
    1.8574    3.2210    1.4339 H   0  0  0  0  0  0  0  0  0  0  0  0
   -0.4709    1.2283    3.7966 H   0  0  0  0  0  0  0  0  0  0  0  0
   -0.6139    2.0016    2.2143 H   0  0  0  0  0  0  0  0  0  0  0  0
   -0.2937    2.9858    3.6556 H   0  0  0  0  0  0  0  0  0  0  0  0
    5.2424   -0.0658    0.2372 H   0  0  0  0  0  0  0  0  0  0  0  0
    5.6991   -0.8184    1.7525 H   0  0  0  0  0  0  0  0  0  0  0  0
    7.3359   -1.3246   -0.0245 H   0  0  0  0  0  0  0  0  0  0  0  0
    5.7759   -1.1422   -1.9864 H   0  0  0  0  0  0  0  0  0  0  0  0
    6.6390   -2.6656   -2.0345 H   0  0  0  0  0  0  0  0  0  0  0  0
    4.2044   -3.0155   -2.4576 H   0  0  0  0  0  0  0  0  0  0  0  0
    3.7855   -4.7473   -0.7164 H   0  0  0  0  0  0  0  0  0  0  0  0
    5.4230   -4.8385   -1.2970 H   0  0  0  0  0  0  0  0  0  0  0  0
    5.3814   -4.9411    1.1994 H   0  0  0  0  0  0  0  0  0  0  0  0
    7.3568   -3.8030    0.1939 H   0  0  0  0  0  0  0  0  0  0  0  0
    6.9198   -3.0434    1.7083 H   0  0  0  0  0  0  0  0  0  0  0  0
    4.5234   -3.0175    2.5096 H   0  0  0  0  0  0  0  0  0  0  0  0
    3.2855   -3.7410    1.5069 H   0  0  0  0  0  0  0  0  0  0  0  0
    2.5522   -2.5382   -0.6762 H   0  0  0  0  0  0  0  0  0  0  0  0
    3.3346   -1.0604   -1.1727 H   0  0  0  0  0  0  0  0  0  0  0  0
    1.5488   -2.5132    2.0511 H   0  0  0  0  0  0  0  0  0  0  0  0
    3.7136    1.0259    1.4229 H   0  0  0  0  0  0  0  0  0  0  0  0
  1 19  1  0
  1 20  1  0
  1 21  1  0
  1  2  1  0
  2  4  1  0
  2  3  1  0
  3 22  1  0
  3 23  1  0
  3 24  1  0
  4  5  2  0
  4 18  1  0
  5 41  1  0
  5  6  1  0
  7  6  1  1
  6 17  1  0
  7 15  1  0
  7 16  1  0
  7  8  1  0
  8  9  1  0
  8 25  1  0
  8 26  1  0
  9 14  1  0
  9 10  1  0
  9 27  1  6
 10 11  1  0
 10 28  1  0
 10 29  1  0
 11 12  1  0
 11 16  1  0
 11 30  1  6
 12 13  1  0
 12 31  1  0
 12 32  1  0
 13 14  1  0
 13 15  1  0
 13 33  1  1
 14 34  1  0
 14 35  1  0
 15 36  1  0
 15 37  1  0
 16 38  1  0
 16 39  1  0
 17 40  1  0
 17 18  2  0
M  END
>  <i_m_ct_stereo_status>  (149) 
1

>  <s_m_source_file>  (149) 
/var/tmp/pbs.5076255.sched01/tmpqwfmwtcs/46j3o47u_k.sdf

>  <i_m_source_file_index>  (149) 
11

>  <i_lp_mmshare_version>  (149) 
48012

>  <i_f3d_flags>  (149) 
0

>  <s_epik_input>  (149) 
W0NIM11OKFtDSDNdKWMxW2NIXW4oW2NIXW4xKUMyM1tDSDJdW0NAQEhdNFtDSDJdW0NASF0oW0NIMl0zKVtDSDJdW0NAQEhdKFtDSDJdNClbQ0gyXTI=

>  <s_epik_cmdline>  (149) 
J2VwaWtfcHl0aG9uJywgJy1waHQnLCAnMi4wJywgJy1waCcsICc3LjAnLCAnLXRuJywgJzgnLCAnLW1hJywgJzIwMCcsICctaW1hZScsICc8aW5maWxlLm1hZT4nLCAnLW9tYWUnLCAnPG91dGZpbGUubWFlPic=

>  <r_lp_tautomer_probability>  (149) 
1

>  <r_epik_Ionization_Penalty>  (149) 
0.819225

>  <r_epik_Ionization_Penalty_Charging>  (149) 
0.819026

>  <r_epik_Ionization_Penalty_Neutral>  (149) 
0.000198972

>  <r_epik_State_Penalty>  (149) 
0.85187

>  <r_epik_Charging_Adjusted_Penalty>  (149) 
1.6709

>  <i_epik_Tot_Q>  (149) 
0

>  <i_epik_Tot_abs_Q>  (149) 
0

>  <s_lp_Force_Field>  (149) 
OPLS3e

>  <r_lp_Energy>  (149) 
5.30352

>  <b_lp_Chiralities_Consistent>  (149) 
1

>  <s_lp_Variant>  (149) 
39:0-2

>  <s_i_glide_gridfile>  (149) 
pfpi4k_grid

>  <i_i_glide_lignum>  (149) 
11

>  <i_i_glide_rotatable_bonds>  (149) 
2

>  <r_i_docking_score>  (149) 
-2.95181

>  <r_i_glide_ligand_efficiency>  (149) 
-0.163989

>  <r_i_glide_ligand_efficiency_sa>  (149) 
-0.429774

>  <r_i_glide_ligand_efficiency_ln>  (149) 
-0.758747

>  <r_i_glide_gscore>  (149) 
-2.95181

>  <r_i_glide_lipo>  (149) 
-0.310601

>  <r_i_glide_hbond>  (149) 
0

>  <r_i_glide_metal>  (149) 
-0

>  <r_i_glide_rewards>  (149) 
-1.73616

>  <r_i_glide_evdw>  (149) 
-19.2563

>  <r_i_glide_ecoul>  (149) 
-0.716443

>  <r_i_glide_erotb>  (149) 
0.289122

>  <r_i_glide_esite>  (149) 
-0.123889

>  <r_i_glide_emodel>  (149) 
-23.4473

>  <r_i_glide_energy>  (149) 
-19.9727

>  <r_i_glide_einternal>  (149) 
0.516425

>  <r_i_glide_intrahb_reward>  (149) 
-0

>  <i_i_glide_confnum>  (149) 
3

>  <i_i_glide_posenum>  (149) 
34

>  <r_i_glide_eff_state_penalty>  (149) 
0

>  <ligand_id>  (149) 
39

>  <original_smiles>  (149) 
CN(C)c1cn(C23CC4CC(CC(C4)C2)C3)cn1

>  <smiles>  (149) 
[H]c1nc(N(C([H])([H])[H])C([H])([H])[H])c([H])n1C12C([H])([H])C3([H])C([H])([H])C([H])(C([H])([H])C([H])(C3([H])[H])C1([H])[H])C2([H])[H]

$$$$
39:1:2
     RDKit          3D

 41 44  0  0  1  0  0  0  0  0999 V2000
    0.2915    2.1300    2.0777 C   0  0  0  0  0  0  0  0  0  0  0  0
    0.3483    0.9923    2.9708 N   0  0  0  0  0  0  0  0  0  0  0  0
   -0.8728    0.6803    3.6856 C   0  0  0  0  0  0  0  0  0  0  0  0
    1.2334   -0.0575    2.6642 C   0  0  0  0  0  0  0  0  0  0  0  0
    2.2404   -0.0893    1.7213 C   0  0  0  0  0  0  0  0  0  0  0  0
    2.8193   -1.3552    1.7658 N   0  0  0  0  0  0  0  0  0  0  0  0
    3.8957   -1.8646    0.9165 C   0  0  1  0  0  0  0  0  0  0  0  0
    5.1035   -0.8878    0.9303 C   0  0  0  0  0  0  0  0  0  0  0  0
    6.2488   -1.4539    0.0619 C   0  0  2  0  0  0  0  0  0  0  0  0
    5.7591   -1.6181   -1.3944 C   0  0  0  0  0  0  0  0  0  0  0  0
    4.5582   -2.5843   -1.4252 C   0  0  1  0  0  0  0  0  0  0  0  0
    4.9912   -3.9606   -0.8826 C   0  0  0  0  0  0  0  0  0  0  0  0
    5.5044   -3.7998    0.5619 C   0  0  1  0  0  0  0  0  0  0  0  0
    6.6914   -2.8222    0.6179 C   0  0  0  0  0  0  0  0  0  0  0  0
    4.3698   -3.2499    1.4290 C   0  0  0  0  0  0  0  0  0  0  0  0
    3.4132   -2.0170   -0.5519 C   0  0  0  0  0  0  0  0  0  0  0  0
    2.1319   -2.0004    2.7231 C   0  0  0  0  0  0  0  0  0  0  0  0
    1.1775   -1.2908    3.3044 N   0  0  0  0  0  0  0  0  0  0  0  0
    1.2790    2.5244    1.8632 H   0  0  0  0  0  0  0  0  0  0  0  0
   -0.3064    2.9339    2.5041 H   0  0  0  0  0  0  0  0  0  0  0  0
   -0.1596    1.8249    1.1356 H   0  0  0  0  0  0  0  0  0  0  0  0
   -0.6826    0.0535    4.5592 H   0  0  0  0  0  0  0  0  0  0  0  0
   -1.5406    0.1324    3.0207 H   0  0  0  0  0  0  0  0  0  0  0  0
   -1.3887    1.5857    4.0140 H   0  0  0  0  0  0  0  0  0  0  0  0
    4.8220    0.0976    0.5492 H   0  0  0  0  0  0  0  0  0  0  0  0
    5.4528   -0.7318    1.9526 H   0  0  0  0  0  0  0  0  0  0  0  0
    7.0902   -0.7620    0.0986 H   0  0  0  0  0  0  0  0  0  0  0  0
    5.4638   -0.6536   -1.8094 H   0  0  0  0  0  0  0  0  0  0  0  0
    6.5611   -2.0076   -2.0210 H   0  0  0  0  0  0  0  0  0  0  0  0
    4.2093   -2.7003   -2.4521 H   0  0  0  0  0  0  0  0  0  0  0  0
    4.1473   -4.6523   -0.9044 H   0  0  0  0  0  0  0  0  0  0  0  0
    5.7649   -4.3899   -1.5158 H   0  0  0  0  0  0  0  0  0  0  0  0
    5.8088   -4.7715    0.9537 H   0  0  0  0  0  0  0  0  0  0  0  0
    7.5349   -3.2176    0.0539 H   0  0  0  0  0  0  0  0  0  0  0  0
    7.0181   -2.7098    1.6509 H   0  0  0  0  0  0  0  0  0  0  0  0
    4.7050   -3.1776    2.4653 H   0  0  0  0  0  0  0  0  0  0  0  0
    3.5535   -3.9726    1.4026 H   0  0  0  0  0  0  0  0  0  0  0  0
    2.5492   -2.6788   -0.6016 H   0  0  0  0  0  0  0  0  0  0  0  0
    3.0816   -1.0583   -0.9581 H   0  0  0  0  0  0  0  0  0  0  0  0
    2.3129   -3.0247    3.0021 H   0  0  0  0  0  0  0  0  0  0  0  0
    2.5592    0.6676    1.0206 H   0  0  0  0  0  0  0  0  0  0  0  0
  1 19  1  0
  1 20  1  0
  1 21  1  0
  1  2  1  0
  2  4  1  0
  2  3  1  0
  3 22  1  0
  3 23  1  0
  3 24  1  0
  4  5  2  0
  4 18  1  0
  5 41  1  0
  5  6  1  0
  7  6  1  1
  6 17  1  0
  7 15  1  0
  7 16  1  0
  7  8  1  0
  8  9  1  0
  8 25  1  0
  8 26  1  0
  9 14  1  0
  9 10  1  0
  9 27  1  6
 10 11  1  0
 10 28  1  0
 10 29  1  0
 11 12  1  0
 11 16  1  0
 11 30  1  6
 12 13  1  0
 12 31  1  0
 12 32  1  0
 13 14  1  0
 13 15  1  0
 13 33  1  1
 14 34  1  0
 14 35  1  0
 15 36  1  0
 15 37  1  0
 16 38  1  0
 16 39  1  0
 17 40  1  0
 17 18  2  0
M  END
>  <i_m_ct_stereo_status>  (150) 
1

>  <s_m_source_file>  (150) 
/var/tmp/pbs.5076255.sched01/tmpqwfmwtcs/46j3o47u_k.sdf

>  <i_m_source_file_index>  (150) 
11

>  <i_lp_mmshare_version>  (150) 
48012

>  <i_f3d_flags>  (150) 
0

>  <s_epik_input>  (150) 
W0NIM11OKFtDSDNdKWMxW2NIXW4oW2NIXW4xKUMyM1tDSDJdW0NAQEhdNFtDSDJdW0NASF0oW0NIMl0zKVtDSDJdW0NAQEhdKFtDSDJdNClbQ0gyXTI=

>  <s_epik_cmdline>  (150) 
J2VwaWtfcHl0aG9uJywgJy1waHQnLCAnMi4wJywgJy1waCcsICc3LjAnLCAnLXRuJywgJzgnLCAnLW1hJywgJzIwMCcsICctaW1hZScsICc8aW5maWxlLm1hZT4nLCAnLW9tYWUnLCAnPG91dGZpbGUubWFlPic=

>  <r_lp_tautomer_probability>  (150) 
1

>  <r_epik_Ionization_Penalty>  (150) 
0.819225

>  <r_epik_Ionization_Penalty_Charging>  (150) 
0.819026

>  <r_epik_Ionization_Penalty_Neutral>  (150) 
0.000198972

>  <r_epik_State_Penalty>  (150) 
0.85187

>  <r_epik_Charging_Adjusted_Penalty>  (150) 
1.6709

>  <i_epik_Tot_Q>  (150) 
0

>  <i_epik_Tot_abs_Q>  (150) 
0

>  <s_lp_Force_Field>  (150) 
OPLS3e

>  <r_lp_Energy>  (150) 
5.30352

>  <b_lp_Chiralities_Consistent>  (150) 
1

>  <s_lp_Variant>  (150) 
39:0-2

>  <s_i_glide_gridfile>  (150) 
pfpi4k_grid

>  <i_i_glide_lignum>  (150) 
11

>  <i_i_glide_rotatable_bonds>  (150) 
2

>  <r_i_docking_score>  (150) 
-2.73422

>  <r_i_glide_ligand_efficiency>  (150) 
-0.151901

>  <r_i_glide_ligand_efficiency_sa>  (150) 
-0.398094

>  <r_i_glide_ligand_efficiency_ln>  (150) 
-0.702818

>  <r_i_glide_gscore>  (150) 
-2.73422

>  <r_i_glide_lipo>  (150) 
-0.316233

>  <r_i_glide_hbond>  (150) 
0

>  <r_i_glide_metal>  (150) 
-0

>  <r_i_glide_rewards>  (150) 
-1.73616

>  <r_i_glide_evdw>  (150) 
-18.8097

>  <r_i_glide_ecoul>  (150) 
0.357988

>  <r_i_glide_erotb>  (150) 
0.289122

>  <r_i_glide_esite>  (150) 
-0.0841646

>  <r_i_glide_emodel>  (150) 
-21.5758

>  <r_i_glide_energy>  (150) 
-18.4517

>  <r_i_glide_einternal>  (150) 
0.602113

>  <r_i_glide_intrahb_reward>  (150) 
-0

>  <i_i_glide_confnum>  (150) 
3

>  <i_i_glide_posenum>  (150) 
2

>  <r_i_glide_eff_state_penalty>  (150) 
0

>  <ligand_id>  (150) 
39

>  <original_smiles>  (150) 
CN(C)c1cn(C23CC4CC(CC(C4)C2)C3)cn1

>  <smiles>  (150) 
[H]c1nc(N(C([H])([H])[H])C([H])([H])[H])c([H])n1C12C([H])([H])C3([H])C([H])([H])C([H])(C([H])([H])C([H])(C3([H])[H])C1([H])[H])C2([H])[H]

$$$$
40:0:0
     RDKit          3D

 71 76  0  0  1  0  0  0  0  0999 V2000
   -1.7789    4.5721    2.9590 C   0  0  0  0  0  0  0  0  0  0  0  0
   -2.0645    3.7158    3.9565 C   0  0  0  0  0  0  0  0  0  0  0  0
   -3.3858    2.9839    3.9206 C   0  0  0  0  0  0  0  0  0  0  0  0
   -1.1494    3.4016    5.1592 C   0  0  2  0  0  0  0  0  0  0  0  0
    0.2539    4.0857    5.1973 C   0  0  1  0  0  0  0  0  0  0  0  0
    0.0885    5.5049    5.1067 O   0  0  0  0  0  0  0  0  0  0  0  0
    1.1307    6.1790    4.3955 C   0  0  0  0  0  0  0  0  0  0  0  0
    1.1570    3.7247    6.4576 C   0  0  1  0  0  0  0  0  0  0  0  0
    1.2655    4.8990    7.4646 C   0  0  0  0  0  0  0  0  0  0  0  0
    0.7947    2.3941    7.2174 C   0  0  1  0  0  0  0  0  0  0  0  0
   -0.6815    1.9720    7.1438 C   0  0  2  0  0  0  0  0  0  0  0  0
   -1.5906    2.7659    8.1302 C   0  0  0  0  0  0  0  0  0  0  0  0
   -2.9668    2.4953    7.9086 O   0  0  0  0  0  0  0  0  0  0  0  0
   -3.8238    3.2063    8.7882 C   0  0  0  0  0  0  0  0  0  0  0  0
   -0.7139    0.6722    7.6806 O   0  0  0  0  0  0  0  0  0  0  0  0
    0.4326    0.0285    7.1952 C   0  0  2  0  0  0  0  0  0  0  0  0
    1.5772    1.0489    7.0814 C   0  0  2  0  0  0  0  0  0  0  0  0
    2.4358    0.9133    8.1990 O   0  0  0  0  0  0  0  0  0  0  0  0
    2.3632    0.5127    5.8340 C   0  0  2  0  0  0  0  0  0  0  0  0
    2.4603    1.3273    4.5306 C   0  0  1  0  0  0  0  0  0  0  0  0
    3.8200    1.5766    4.2403 O   0  0  0  0  0  0  0  0  0  0  0  0
    1.7460    0.5124    3.4301 C   0  0  1  0  0  0  0  0  0  0  0  0
    2.3660    0.6808    2.0208 C   0  0  0  0  0  0  0  0  0  0  0  0
    1.9022   -0.9198    3.9059 C   0  0  0  0  0  0  0  0  0  0  0  0
    1.6351   -0.7700    5.3930 C   0  0  1  0  0  0  0  0  0  0  0  0
    2.1707   -1.9071    6.0473 O   0  0  0  0  0  0  0  0  0  0  0  0
    0.1572   -0.4970    5.7753 C   0  0  1  0  0  0  0  0  0  0  0  0
   -0.6569   -1.8224    5.8808 C   0  0  0  0  0  0  0  0  0  0  0  0
   -0.5350    0.6321    4.8455 C   0  0  2  0  0  0  0  0  0  0  0  0
   -1.7374    0.0300    4.3810 O   0  0  0  0  0  0  0  0  0  0  0  0
    0.2156    0.7899    3.4433 C   0  0  1  0  0  0  0  0  0  0  0  0
   -0.0431    2.0033    2.7952 O   0  0  0  0  0  0  0  0  0  0  0  0
   -1.1387    1.9067    5.6674 C   0  0  2  0  0  0  0  0  0  0  0  0
   -2.4798    4.7332    2.1527 H   0  0  0  0  0  0  0  0  0  0  0  0
   -0.8515    5.1140    2.8958 H   0  0  0  0  0  0  0  0  0  0  0  0
   -3.9036    3.0344    4.8802 H   0  0  0  0  0  0  0  0  0  0  0  0
   -3.1885    1.9514    3.6821 H   0  0  0  0  0  0  0  0  0  0  0  0
   -4.0552    3.3640    3.1510 H   0  0  0  0  0  0  0  0  0  0  0  0
   -1.7084    3.9564    5.9074 H   0  0  0  0  0  0  0  0  0  0  0  0
    0.7523    3.8128    4.2756 H   0  0  0  0  0  0  0  0  0  0  0  0
    0.9507    7.2545    4.4258 H   0  0  0  0  0  0  0  0  0  0  0  0
    1.1606    5.8786    3.3470 H   0  0  0  0  0  0  0  0  0  0  0  0
    2.1166    5.9878    4.8231 H   0  0  0  0  0  0  0  0  0  0  0  0
    2.1920    3.6442    6.1263 H   0  0  0  0  0  0  0  0  0  0  0  0
    0.2977    5.2121    7.8506 H   0  0  0  0  0  0  0  0  0  0  0  0
    1.7330    5.7758    7.0170 H   0  0  0  0  0  0  0  0  0  0  0  0
    1.8993    4.6359    8.3121 H   0  0  0  0  0  0  0  0  0  0  0  0
    0.9185    2.6417    8.2722 H   0  0  0  0  0  0  0  0  0  0  0  0
   -1.3331    2.5057    9.1581 H   0  0  0  0  0  0  0  0  0  0  0  0
   -1.4250    3.8373    8.0494 H   0  0  0  0  0  0  0  0  0  0  0  0
   -4.8601    2.9480    8.5665 H   0  0  0  0  0  0  0  0  0  0  0  0
   -3.7145    4.2850    8.6662 H   0  0  0  0  0  0  0  0  0  0  0  0
   -3.6329    2.9517    9.8319 H   0  0  0  0  0  0  0  0  0  0  0  0
    0.6956   -0.7839    7.8743 H   0  0  0  0  0  0  0  0  0  0  0  0
    3.1188    1.5637    8.1292 H   0  0  0  0  0  0  0  0  0  0  0  0
    3.3831    0.2462    6.1265 H   0  0  0  0  0  0  0  0  0  0  0  0
    1.9934    2.2820    4.5882 H   0  0  0  0  0  0  0  0  0  0  0  0
    3.8801    2.1066    3.4552 H   0  0  0  0  0  0  0  0  0  0  0  0
    1.8115    0.1114    1.2734 H   0  0  0  0  0  0  0  0  0  0  0  0
    3.3945    0.3179    1.9934 H   0  0  0  0  0  0  0  0  0  0  0  0
    2.3871    1.7236    1.7056 H   0  0  0  0  0  0  0  0  0  0  0  0
    1.2195   -1.6214    3.4229 H   0  0  0  0  0  0  0  0  0  0  0  0
    2.9194   -1.2742    3.7248 H   0  0  0  0  0  0  0  0  0  0  0  0
    3.0901   -1.9742    5.8363 H   0  0  0  0  0  0  0  0  0  0  0  0
   -0.7489   -2.3129    4.9115 H   0  0  0  0  0  0  0  0  0  0  0  0
   -1.6640   -1.6335    6.2539 H   0  0  0  0  0  0  0  0  0  0  0  0
   -0.2088   -2.5401    6.5700 H   0  0  0  0  0  0  0  0  0  0  0  0
   -2.1187    0.6100    3.7367 H   0  0  0  0  0  0  0  0  0  0  0  0
   -0.1804    0.0496    2.7409 H   0  0  0  0  0  0  0  0  0  0  0  0
    0.2825    1.9709    1.9038 H   0  0  0  0  0  0  0  0  0  0  0  0
   -2.1889    1.6653    5.8016 H   0  0  0  0  0  0  0  0  0  0  0  0
  1  2  2  0
  1 34  1  0
  1 35  1  0
  2  3  1  0
  2  4  1  0
  3 36  1  0
  3 37  1  0
  3 38  1  0
  4 33  1  0
  4  5  1  0
  4 39  1  1
  5  6  1  0
  5  8  1  0
  5 40  1  6
  6  7  1  0
  7 41  1  0
  7 42  1  0
  7 43  1  0
  8  9  1  0
  8 10  1  0
  8 44  1  6
  9 45  1  0
  9 46  1  0
  9 47  1  0
 10 17  1  0
 10 11  1  0
 10 48  1  1
 11 33  1  0
 11 12  1  1
 11 15  1  0
 12 13  1  0
 12 49  1  0
 12 50  1  0
 13 14  1  0
 14 51  1  0
 14 52  1  0
 14 53  1  0
 15 16  1  0
 16 27  1  0
 16 17  1  0
 16 54  1  1
 17 18  1  1
 17 19  1  0
 18 55  1  0
 19 25  1  0
 19 20  1  0
 19 56  1  1
 20 21  1  0
 20 22  1  0
 20 57  1  1
 21 58  1  0
 22 31  1  0
 22 23  1  6
 22 24  1  0
 23 59  1  0
 23 60  1  0
 23 61  1  0
 24 25  1  0
 24 62  1  0
 24 63  1  0
 25 26  1  1
 25 27  1  0
 26 64  1  0
 27 28  1  1
 27 29  1  0
 28 65  1  0
 28 66  1  0
 28 67  1  0
 29 30  1  6
 29 31  1  0
 29 33  1  0
 30 68  1  0
 31 32  1  0
 31 69  1  6
 32 70  1  0
 33 71  1  1
M  END
>  <i_m_ct_stereo_status>  (151) 
1

>  <s_m_source_file>  (151) 
/var/tmp/pbs.5076255.sched01/tmpqwfmwtcs/46j3o47u_k.sdf

>  <i_m_source_file_index>  (151) 
12

>  <i_lp_mmshare_version>  (151) 
48012

>  <i_f3d_flags>  (151) 
0

>  <s_epik_input>  (151) 
W0NIM11PW0NAQEhdKFtDQEhdMVtDSDNdKVtDQEBIXShDKD1bQ0gyXSlbQ0gzXSlbQ0BIXTJbQ0BAXTMoW09IXSlbQ0BASF0oW09IXSlbQ0BdKFtDSDNdKShbQ0gyXTQpW0NASF0oW09IXSlbQ0BASF01W0NAQF00KFtPSF0pW0NAQF0zKFtDSDNdKVtDQEhdKE82KVtDQF01KFtPSF0pW0NAQEhdMVtDQEBdMjZbQ0gyXU9bQ0gzXQ==

>  <s_epik_cmdline>  (151) 
J2VwaWtfcHl0aG9uJywgJy1waHQnLCAnMi4wJywgJy1waCcsICc3LjAnLCAnLXRuJywgJzgnLCAnLW1hJywgJzIwMCcsICctaW1hZScsICc8aW5maWxlLm1hZT4nLCAnLW9tYWUnLCAnPG91dGZpbGUubWFlPic=

>  <r_lp_tautomer_probability>  (151) 
1

>  <r_epik_Ionization_Penalty>  (151) 
9.51406e-07

>  <r_epik_Ionization_Penalty_Charging>  (151) 
0

>  <r_epik_Ionization_Penalty_Neutral>  (151) 
9.51406e-07

>  <r_epik_State_Penalty>  (151) 
-0

>  <r_epik_Charging_Adjusted_Penalty>  (151) 
0

>  <i_epik_Tot_Q>  (151) 
0

>  <i_epik_Tot_abs_Q>  (151) 
0

>  <s_lp_Force_Field>  (151) 
OPLS3e

>  <r_lp_Energy>  (151) 
112.543

>  <b_lp_Chiralities_Consistent>  (151) 
1

>  <s_lp_Variant>  (151) 
40:0-1

>  <s_i_glide_gridfile>  (151) 
pfpi4k_grid

>  <i_i_glide_lignum>  (151) 
12

>  <i_i_glide_rotatable_bonds>  (151) 
9

>  <r_i_docking_score>  (151) 
-2.61846

>  <r_i_glide_ligand_efficiency>  (151) 
-0.0793473

>  <r_i_glide_ligand_efficiency_sa>  (151) 
-0.254509

>  <r_i_glide_ligand_efficiency_ln>  (151) 
-0.582332

>  <r_i_glide_gscore>  (151) 
-2.61846

>  <r_i_glide_lipo>  (151) 
-0.0054331

>  <r_i_glide_hbond>  (151) 
-0.174382

>  <r_i_glide_metal>  (151) 
-0

>  <r_i_glide_rewards>  (151) 
-0.22797

>  <r_i_glide_evdw>  (151) 
-22.0819

>  <r_i_glide_ecoul>  (151) 
-8.613

>  <r_i_glide_erotb>  (151) 
0.185368

>  <r_i_glide_esite>  (151) 
0

>  <r_i_glide_emodel>  (151) 
-34.7557

>  <r_i_glide_energy>  (151) 
-30.6949

>  <r_i_glide_einternal>  (151) 
2.23128

>  <r_i_glide_intrahb_reward>  (151) 
-0

>  <i_i_glide_confnum>  (151) 
3

>  <i_i_glide_posenum>  (151) 
20

>  <r_i_glide_eff_state_penalty>  (151) 
0

>  <ligand_id>  (151) 
40

>  <original_smiles>  (151) 
C=C(C)C1C(OC)C(C)C2C3(COC)OC4C2(O)C2C(O)C5(C)CC2(O)C4(C)C(O)(C5O)C13

>  <smiles>  (151) 
[H]OC1([H])C2([H])C3(O[H])C4([H])OC5(C([H])([H])OC([H])([H])[H])C3([H])C([H])(C([H])([H])[H])C([H])(OC([H])([H])[H])C([H])(C(=C([H])[H])C([H])([H])[H])C5([H])C3(O[H])C([H])(O[H])C1(C([H])([H])[H])C([H])([H])C2(O[H])C43C([H])([H])[H]

$$$$
41:0:0
     RDKit          3D

 45 47  0  0  1  0  0  0  0  0999 V2000
    1.6141   -5.5460    6.8728 C   0  0  0  0  0  0  0  0  0  0  0  0
    1.7475   -6.7759    6.2049 O   0  0  0  0  0  0  0  0  0  0  0  0
    1.5998   -6.7888    4.8817 C   0  0  0  0  0  0  0  0  0  0  0  0
    1.3385   -5.7992    4.1888 O   0  0  0  0  0  0  0  0  0  0  0  0
    1.7272   -8.2086    4.2884 C   0  0  2  0  0  0  0  0  0  0  0  0
    2.0491   -8.2299    2.7533 C   0  0  1  0  0  0  0  0  0  0  0  0
    3.4612   -7.7301    2.4697 C   0  0  0  0  0  0  0  0  0  0  0  0
    3.6397   -6.5319    1.7626 C   0  0  0  0  0  0  0  0  0  0  0  0
    4.9291   -6.0427    1.5295 C   0  0  0  0  0  0  0  0  0  0  0  0
    6.0633   -6.7432    2.0017 C   0  0  0  0  0  0  0  0  0  0  0  0
    7.7085   -6.1382    1.7120 S   0  0  0  0  0  0  0  0  0  0  0  0
    7.5260   -4.5301    0.9077 C   0  0  0  0  0  0  0  0  0  0  0  0
    5.8860   -7.9402    2.7177 C   0  0  0  0  0  0  0  0  0  0  0  0
    4.5897   -8.4311    2.9618 C   0  0  0  0  0  0  0  0  0  0  0  0
    1.8064   -9.6076    2.0823 C   0  0  0  0  0  0  0  0  0  0  0  0
    0.5165  -10.2782    2.6252 C   0  0  2  0  0  0  0  0  0  0  0  0
   -0.7163   -9.3543    2.4898 C   0  0  0  0  0  0  0  0  0  0  0  0
   -0.7628   -8.5696    3.8136 C   0  0  0  0  0  0  0  0  0  0  0  0
    0.4741   -9.0785    4.5976 C   0  0  1  0  0  0  0  0  0  0  0  0
    0.6209  -10.4569    4.0861 N   0  0  2  0  0  0  0  0  0  0  0  0
    1.7616  -11.2771    4.6077 C   0  0  0  0  0  0  0  0  0  0  0  0
    1.7686   -5.6923    7.9357 H   0  0  0  0  0  0  0  0  0  0  0  0
    0.6173   -5.1347    6.7170 H   0  0  0  0  0  0  0  0  0  0  0  0
    2.3447   -4.8251    6.5064 H   0  0  0  0  0  0  0  0  0  0  0  0
    2.5606   -8.6841    4.7971 H   0  0  0  0  0  0  0  0  0  0  0  0
    1.3558   -7.5636    2.2401 H   0  0  0  0  0  0  0  0  0  0  0  0
    2.7858   -5.9615    1.3960 H   0  0  0  0  0  0  0  0  0  0  0  0
    4.9857   -5.1108    0.9839 H   0  0  0  0  0  0  0  0  0  0  0  0
    8.4938   -4.0838    0.6820 H   0  0  0  0  0  0  0  0  0  0  0  0
    6.9701   -3.8587    1.5603 H   0  0  0  0  0  0  0  0  0  0  0  0
    6.9802   -4.6445   -0.0261 H   0  0  0  0  0  0  0  0  0  0  0  0
    6.7432   -8.4957    3.1021 H   0  0  0  0  0  0  0  0  0  0  0  0
    4.4560   -9.3524    3.5243 H   0  0  0  0  0  0  0  0  0  0  0  0
    1.8122   -9.4485    0.9985 H   0  0  0  0  0  0  0  0  0  0  0  0
    2.6506  -10.2813    2.2209 H   0  0  0  0  0  0  0  0  0  0  0  0
    0.3345  -11.2298    2.1275 H   0  0  0  0  0  0  0  0  0  0  0  0
   -0.6725   -8.7004    1.6126 H   0  0  0  0  0  0  0  0  0  0  0  0
   -1.6183   -9.9578    2.4067 H   0  0  0  0  0  0  0  0  0  0  0  0
   -0.7848   -7.4851    3.6506 H   0  0  0  0  0  0  0  0  0  0  0  0
   -1.6701   -8.8201    4.3670 H   0  0  0  0  0  0  0  0  0  0  0  0
    0.2798   -9.1109    5.6738 H   0  0  0  0  0  0  0  0  0  0  0  0
    2.7497  -10.9031    4.3721 H   0  0  0  0  0  0  0  0  0  0  0  0
    1.7186  -12.2840    4.2252 H   0  0  0  0  0  0  0  0  0  0  0  0
    1.7310  -11.3543    5.6791 H   0  0  0  0  0  0  0  0  0  0  0  0
   -0.2631  -10.8750    4.3587 H   0  0  0  0  0  0  0  0  0  0  0  0
  1  2  1  0
  1 22  1  0
  1 23  1  0
  1 24  1  0
  2  3  1  0
  3  4  2  0
  3  5  1  0
  5 19  1  0
  5  6  1  0
  5 25  1  1
  6  7  1  0
  6 15  1  0
  6 26  1  6
  7 14  1  0
  7  8  2  0
  8  9  1  0
  8 27  1  0
  9 10  2  0
  9 28  1  0
 10 11  1  0
 10 13  1  0
 11 12  1  0
 12 29  1  0
 12 30  1  0
 12 31  1  0
 13 14  2  0
 13 32  1  0
 14 33  1  0
 15 16  1  0
 15 34  1  0
 15 35  1  0
 16 20  1  0
 16 17  1  0
 16 36  1  6
 17 18  1  0
 17 37  1  0
 17 38  1  0
 18 19  1  0
 18 39  1  0
 18 40  1  0
 19 20  1  0
 19 41  1  1
 20 21  1  0
 20 45  1  1
 21 42  1  0
 21 43  1  0
 21 44  1  0
M  CHG  1  20   1
M  END
>  <i_m_ct_stereo_status>  (152) 
1

>  <s_m_source_file>  (152) 
/var/tmp/pbs.5076255.sched01/tmpqwfmwtcs/46j3o47u_k.sdf

>  <i_m_source_file_index>  (152) 
13

>  <i_lp_mmshare_version>  (152) 
48012

>  <i_f3d_flags>  (152) 
0

>  <s_epik_input>  (152) 
W0NIM11PQyg9TylbQ0BASF0oW0NAQEhdKFtDSDJdW0NIMl0xKU4yW0NIM10pW0NASF0oW0NIMl1bQ0BIXTEyKWMzW2NIXVtjSF1jKFNbQ0gzXSlbY0hdW2NIXTM=

>  <s_epik_cmdline>  (152) 
J2VwaWtfcHl0aG9uJywgJy1waHQnLCAnMi4wJywgJy1waCcsICc3LjAnLCAnLXRuJywgJzgnLCAnLW1hJywgJzIwMCcsICctaW1hZScsICc8aW5maWxlLm1hZT4nLCAnLW9tYWUnLCAnPG91dGZpbGUubWFlPic=

>  <r_epik_Ionization_Penalty>  (152) 
0.0142062

>  <r_epik_Ionization_Penalty_Charging>  (152) 
0.0142062

>  <r_epik_Ionization_Penalty_Neutral>  (152) 
0

>  <r_epik_State_Penalty>  (152) 
0.0110991

>  <r_epik_Charging_Adjusted_Penalty>  (152) 
0.0253053

>  <i_epik_Tot_Q>  (152) 
1

>  <i_epik_Tot_abs_Q>  (152) 
1

>  <s_epik_Chemistry_Notes>  (152) 
This compound has an ester and may undergo hydrolysis at high or low pH.

>  <s_lp_Force_Field>  (152) 
OPLS3e

>  <r_lp_Energy>  (152) 
33.1976

>  <b_lp_Chiralities_Consistent>  (152) 
1

>  <s_lp_Variant>  (152) 
41:0-1

>  <s_i_glide_gridfile>  (152) 
pfpi4k_grid

>  <i_i_glide_lignum>  (152) 
13

>  <i_i_glide_rotatable_bonds>  (152) 
4

>  <r_i_docking_score>  (152) 
-3.43413

>  <r_i_glide_ligand_efficiency>  (152) 
-0.16353

>  <r_i_glide_ligand_efficiency_sa>  (152) 
-0.451167

>  <r_i_glide_ligand_efficiency_ln>  (152) 
-0.849083

>  <r_i_glide_gscore>  (152) 
-3.43413

>  <r_i_glide_lipo>  (152) 
-0.697035

>  <r_i_glide_hbond>  (152) 
-0.18128

>  <r_i_glide_metal>  (152) 
-0

>  <r_i_glide_rewards>  (152) 
-1.3197

>  <r_i_glide_evdw>  (152) 
-19.6932

>  <r_i_glide_ecoul>  (152) 
-4.00389

>  <r_i_glide_erotb>  (152) 
0.393409

>  <r_i_glide_esite>  (152) 
-0.0442851

>  <r_i_glide_emodel>  (152) 
-31.9188

>  <r_i_glide_energy>  (152) 
-23.6971

>  <r_i_glide_einternal>  (152) 
0.308615

>  <r_i_glide_intrahb_reward>  (152) 
-0

>  <i_i_glide_confnum>  (152) 
4

>  <i_i_glide_posenum>  (152) 
29

>  <r_i_glide_eff_state_penalty>  (152) 
0

>  <ligand_id>  (152) 
41

>  <original_smiles>  (152) 
COC(=O)C1C(c2ccc(SC)cc2)CC2CCC1N2C

>  <smiles>  (152) 
[H]c1c([H])c(C2([H])C([H])([H])C3([H])C([H])([H])C([H])([H])C([H])(C2([H])C(=O)OC([H])([H])[H])[N+]3([H])C([H])([H])[H])c([H])c([H])c1SC([H])([H])[H]

$$$$
41:0:1
     RDKit          3D

 45 47  0  0  1  0  0  0  0  0999 V2000
    2.5663   -6.7594    7.7162 C   0  0  0  0  0  0  0  0  0  0  0  0
    2.3451   -7.6145    6.6173 O   0  0  0  0  0  0  0  0  0  0  0  0
    1.7251   -7.1197    5.5451 C   0  0  0  0  0  0  0  0  0  0  0  0
    1.3268   -5.9568    5.4322 O   0  0  0  0  0  0  0  0  0  0  0  0
    1.4949   -8.1846    4.4552 C   0  0  2  0  0  0  0  0  0  0  0  0
    1.1433   -7.5745    3.0627 C   0  0  1  0  0  0  0  0  0  0  0  0
    2.3414   -6.8765    2.4318 C   0  0  0  0  0  0  0  0  0  0  0  0
    2.3152   -5.4834    2.2347 C   0  0  0  0  0  0  0  0  0  0  0  0
    3.4246   -4.8289    1.6911 C   0  0  0  0  0  0  0  0  0  0  0  0
    4.5880   -5.5568    1.3589 C   0  0  0  0  0  0  0  0  0  0  0  0
    6.0132   -4.7326    0.7085 S   0  0  0  0  0  0  0  0  0  0  0  0
    6.0037   -3.0723    1.4279 C   0  0  0  0  0  0  0  0  0  0  0  0
    4.6230   -6.9492    1.5541 C   0  0  0  0  0  0  0  0  0  0  0  0
    3.5080   -7.6080    2.0973 C   0  0  0  0  0  0  0  0  0  0  0  0
    0.5263   -8.6027    2.0755 C   0  0  0  0  0  0  0  0  0  0  0  0
   -0.4563   -9.5595    2.7805 C   0  0  2  0  0  0  0  0  0  0  0  0
   -1.5591   -8.7744    3.5169 C   0  0  0  0  0  0  0  0  0  0  0  0
   -0.9850   -8.5449    4.9236 C   0  0  0  0  0  0  0  0  0  0  0  0
    0.4104   -9.2064    4.8916 C   0  0  1  0  0  0  0  0  0  0  0  0
    0.2284  -10.2688    3.8780 N   0  0  2  0  0  0  0  0  0  0  0  0
    1.3982  -11.1325    3.5449 C   0  0  0  0  0  0  0  0  0  0  0  0
    3.0857   -7.3022    8.4993 H   0  0  0  0  0  0  0  0  0  0  0  0
    1.6177   -6.3960    8.1103 H   0  0  0  0  0  0  0  0  0  0  0  0
    3.1681   -5.9003    7.4211 H   0  0  0  0  0  0  0  0  0  0  0  0
    2.4254   -8.7324    4.3570 H   0  0  0  0  0  0  0  0  0  0  0  0
    0.3580   -6.8267    3.1910 H   0  0  0  0  0  0  0  0  0  0  0  0
    1.4445   -4.9024    2.5146 H   0  0  0  0  0  0  0  0  0  0  0  0
    3.3546   -3.7641    1.5499 H   0  0  0  0  0  0  0  0  0  0  0  0
    6.8564   -2.4952    1.0741 H   0  0  0  0  0  0  0  0  0  0  0  0
    6.0510   -3.1484    2.5122 H   0  0  0  0  0  0  0  0  0  0  0  0
    5.1037   -2.5239    1.1576 H   0  0  0  0  0  0  0  0  0  0  0  0
    5.5117   -7.5217    1.3122 H   0  0  0  0  0  0  0  0  0  0  0  0
    3.5463   -8.6778    2.2638 H   0  0  0  0  0  0  0  0  0  0  0  0
    0.0143   -8.0555    1.2800 H   0  0  0  0  0  0  0  0  0  0  0  0
    1.3023   -9.1833    1.5795 H   0  0  0  0  0  0  0  0  0  0  0  0
   -0.8801  -10.2609    2.0636 H   0  0  0  0  0  0  0  0  0  0  0  0
   -1.8388   -7.8460    3.0068 H   0  0  0  0  0  0  0  0  0  0  0  0
   -2.4532   -9.3857    3.5868 H   0  0  0  0  0  0  0  0  0  0  0  0
   -0.9811   -7.4950    5.2170 H   0  0  0  0  0  0  0  0  0  0  0  0
   -1.6051   -9.0473    5.6705 H   0  0  0  0  0  0  0  0  0  0  0  0
    0.6680   -9.6712    5.8471 H   0  0  0  0  0  0  0  0  0  0  0  0
    2.2255  -10.6022    3.0767 H   0  0  0  0  0  0  0  0  0  0  0  0
    1.1213  -11.9271    2.8644 H   0  0  0  0  0  0  0  0  0  0  0  0
    1.8133  -11.6122    4.4247 H   0  0  0  0  0  0  0  0  0  0  0  0
   -0.5080  -10.8297    4.3000 H   0  0  0  0  0  0  0  0  0  0  0  0
  1  2  1  0
  1 22  1  0
  1 23  1  0
  1 24  1  0
  2  3  1  0
  3  4  2  0
  3  5  1  0
  5 19  1  0
  5  6  1  0
  5 25  1  6
  6  7  1  0
  6 15  1  0
  6 26  1  1
  7 14  1  0
  7  8  2  0
  8  9  1  0
  8 27  1  0
  9 10  2  0
  9 28  1  0
 10 11  1  0
 10 13  1  0
 11 12  1  0
 12 29  1  0
 12 30  1  0
 12 31  1  0
 13 14  2  0
 13 32  1  0
 14 33  1  0
 15 16  1  0
 15 34  1  0
 15 35  1  0
 16 20  1  0
 16 17  1  0
 16 36  1  6
 17 18  1  0
 17 37  1  0
 17 38  1  0
 18 19  1  0
 18 39  1  0
 18 40  1  0
 19 20  1  0
 19 41  1  1
 20 21  1  0
 20 45  1  1
 21 42  1  0
 21 43  1  0
 21 44  1  0
M  CHG  1  20   1
M  END
>  <i_m_ct_stereo_status>  (153) 
1

>  <s_m_source_file>  (153) 
/var/tmp/pbs.5076255.sched01/tmpqwfmwtcs/46j3o47u_k.sdf

>  <i_m_source_file_index>  (153) 
13

>  <i_lp_mmshare_version>  (153) 
48012

>  <i_f3d_flags>  (153) 
0

>  <s_epik_input>  (153) 
W0NIM11PQyg9TylbQ0BASF0oW0NAQEhdKFtDSDJdW0NIMl0xKU4yW0NIM10pW0NASF0oW0NIMl1bQ0BIXTEyKWMzW2NIXVtjSF1jKFNbQ0gzXSlbY0hdW2NIXTM=

>  <s_epik_cmdline>  (153) 
J2VwaWtfcHl0aG9uJywgJy1waHQnLCAnMi4wJywgJy1waCcsICc3LjAnLCAnLXRuJywgJzgnLCAnLW1hJywgJzIwMCcsICctaW1hZScsICc8aW5maWxlLm1hZT4nLCAnLW9tYWUnLCAnPG91dGZpbGUubWFlPic=

>  <r_epik_Ionization_Penalty>  (153) 
0.0142062

>  <r_epik_Ionization_Penalty_Charging>  (153) 
0.0142062

>  <r_epik_Ionization_Penalty_Neutral>  (153) 
0

>  <r_epik_State_Penalty>  (153) 
0.0110991

>  <r_epik_Charging_Adjusted_Penalty>  (153) 
0.0253053

>  <i_epik_Tot_Q>  (153) 
1

>  <i_epik_Tot_abs_Q>  (153) 
1

>  <s_epik_Chemistry_Notes>  (153) 
This compound has an ester and may undergo hydrolysis at high or low pH.

>  <s_lp_Force_Field>  (153) 
OPLS3e

>  <r_lp_Energy>  (153) 
33.1976

>  <b_lp_Chiralities_Consistent>  (153) 
1

>  <s_lp_Variant>  (153) 
41:0-1

>  <s_i_glide_gridfile>  (153) 
pfpi4k_grid

>  <i_i_glide_lignum>  (153) 
13

>  <i_i_glide_rotatable_bonds>  (153) 
4

>  <r_i_docking_score>  (153) 
-3.298

>  <r_i_glide_ligand_efficiency>  (153) 
-0.157048

>  <r_i_glide_ligand_efficiency_sa>  (153) 
-0.433283

>  <r_i_glide_ligand_efficiency_ln>  (153) 
-0.815424

>  <r_i_glide_gscore>  (153) 
-3.298

>  <r_i_glide_lipo>  (153) 
-0.49893

>  <r_i_glide_hbond>  (153) 
-0.2

>  <r_i_glide_metal>  (153) 
-0

>  <r_i_glide_rewards>  (153) 
-1.3197

>  <r_i_glide_evdw>  (153) 
-18.8599

>  <r_i_glide_ecoul>  (153) 
-4.45051

>  <r_i_glide_erotb>  (153) 
0.393409

>  <r_i_glide_esite>  (153) 
-0.0622104

>  <r_i_glide_emodel>  (153) 
-31.2435

>  <r_i_glide_energy>  (153) 
-23.3104

>  <r_i_glide_einternal>  (153) 
0.289222

>  <r_i_glide_intrahb_reward>  (153) 
-0

>  <i_i_glide_confnum>  (153) 
5

>  <i_i_glide_posenum>  (153) 
35

>  <r_i_glide_eff_state_penalty>  (153) 
0

>  <ligand_id>  (153) 
41

>  <original_smiles>  (153) 
COC(=O)C1C(c2ccc(SC)cc2)CC2CCC1N2C

>  <smiles>  (153) 
[H]c1c([H])c(C2([H])C([H])([H])C3([H])C([H])([H])C([H])([H])C([H])(C2([H])C(=O)OC([H])([H])[H])[N+]3([H])C([H])([H])[H])c([H])c([H])c1SC([H])([H])[H]

$$$$
41:0:2
     RDKit          3D

 45 47  0  0  1  0  0  0  0  0999 V2000
    2.1763   -6.3917    7.7350 C   0  0  0  0  0  0  0  0  0  0  0  0
    2.0621   -7.3507    6.7067 O   0  0  0  0  0  0  0  0  0  0  0  0
    1.6448   -6.9479    5.5010 C   0  0  0  0  0  0  0  0  0  0  0  0
    1.3386   -5.7862    5.2154 O   0  0  0  0  0  0  0  0  0  0  0  0
    1.5248   -8.1130    4.5001 C   0  0  2  0  0  0  0  0  0  0  0  0
    1.4578   -7.6257    3.0205 C   0  0  1  0  0  0  0  0  0  0  0  0
    2.7936   -7.0597    2.5491 C   0  0  0  0  0  0  0  0  0  0  0  0
    2.9405   -5.6861    2.2544 C   0  0  0  0  0  0  0  0  0  0  0  0
    4.1898   -5.1776    1.8626 C   0  0  0  0  0  0  0  0  0  0  0  0
    5.3003   -6.0381    1.7683 C   0  0  0  0  0  0  0  0  0  0  0  0
    6.8742   -5.3835    1.2836 S   0  0  0  0  0  0  0  0  0  0  0  0
    8.0625   -6.7280    1.5218 C   0  0  0  0  0  0  0  0  0  0  0  0
    5.1515   -7.4059    2.0689 C   0  0  0  0  0  0  0  0  0  0  0  0
    3.9140   -7.9105    2.4626 C   0  0  0  0  0  0  0  0  0  0  0  0
    0.9507   -8.7283    2.0542 C   0  0  0  0  0  0  0  0  0  0  0  0
   -0.2098   -9.5511    2.6571 C   0  0  2  0  0  0  0  0  0  0  0  0
   -1.3622   -8.6387    3.1052 C   0  0  0  0  0  0  0  0  0  0  0  0
   -1.0255   -8.2896    4.5683 C   0  0  0  0  0  0  0  0  0  0  0  0
    0.3099   -9.0165    4.8420 C   0  0  1  0  0  0  0  0  0  0  0  0
    0.2157  -10.1769    3.9265 N   0  0  2  0  0  0  0  0  0  0  0  0
    1.3610  -11.1258    3.8800 C   0  0  0  0  0  0  0  0  0  0  0  0
    2.5336   -6.8735    8.6389 H   0  0  0  0  0  0  0  0  0  0  0  0
    1.2079   -5.9374    7.9373 H   0  0  0  0  0  0  0  0  0  0  0  0
    2.8751   -5.6060    7.4522 H   0  0  0  0  0  0  0  0  0  0  0  0
    2.4194   -8.7120    4.6209 H   0  0  0  0  0  0  0  0  0  0  0  0
    0.7233   -6.8235    2.9366 H   0  0  0  0  0  0  0  0  0  0  0  0
    2.0900   -5.0179    2.3464 H   0  0  0  0  0  0  0  0  0  0  0  0
    4.2951   -4.1197    1.6471 H   0  0  0  0  0  0  0  0  0  0  0  0
    9.0654   -6.3897    1.2828 H   0  0  0  0  0  0  0  0  0  0  0  0
    7.8242   -7.5689    0.8734 H   0  0  0  0  0  0  0  0  0  0  0  0
    8.0475   -7.0665    2.5566 H   0  0  0  0  0  0  0  0  0  0  0  0
    5.9684   -8.1138    2.0237 H   0  0  0  0  0  0  0  0  0  0  0  0
    3.8330   -8.9633    2.7018 H   0  0  0  0  0  0  0  0  0  0  0  0
    0.6324   -8.2340    1.1317 H   0  0  0  0  0  0  0  0  0  0  0  0
    1.7455   -9.4064    1.7406 H   0  0  0  0  0  0  0  0  0  0  0  0
   -0.5536  -10.3116    1.9558 H   0  0  0  0  0  0  0  0  0  0  0  0
   -1.4755   -7.7548    2.4683 H   0  0  0  0  0  0  0  0  0  0  0  0
   -2.3012   -9.1877    3.0761 H   0  0  0  0  0  0  0  0  0  0  0  0
   -0.9937   -7.2098    4.7494 H   0  0  0  0  0  0  0  0  0  0  0  0
   -1.8006   -8.6872    5.2231 H   0  0  0  0  0  0  0  0  0  0  0  0
    0.3697   -9.3854    5.8681 H   0  0  0  0  0  0  0  0  0  0  0  0
    2.2945  -10.6887    3.5192 H   0  0  0  0  0  0  0  0  0  0  0  0
    1.1528  -11.9694    3.2233 H   0  0  0  0  0  0  0  0  0  0  0  0
    1.5844  -11.5372    4.8638 H   0  0  0  0  0  0  0  0  0  0  0  0
   -0.6213  -10.6521    4.2692 H   0  0  0  0  0  0  0  0  0  0  0  0
  1  2  1  0
  1 22  1  0
  1 23  1  0
  1 24  1  0
  2  3  1  0
  3  4  2  0
  3  5  1  0
  5 19  1  0
  5  6  1  0
  5 25  1  6
  6  7  1  0
  6 15  1  0
  6 26  1  1
  7 14  1  0
  7  8  2  0
  8  9  1  0
  8 27  1  0
  9 10  2  0
  9 28  1  0
 10 11  1  0
 10 13  1  0
 11 12  1  0
 12 29  1  0
 12 30  1  0
 12 31  1  0
 13 14  2  0
 13 32  1  0
 14 33  1  0
 15 16  1  0
 15 34  1  0
 15 35  1  0
 16 20  1  0
 16 17  1  0
 16 36  1  6
 17 18  1  0
 17 37  1  0
 17 38  1  0
 18 19  1  0
 18 39  1  0
 18 40  1  0
 19 20  1  0
 19 41  1  1
 20 21  1  0
 20 45  1  1
 21 42  1  0
 21 43  1  0
 21 44  1  0
M  CHG  1  20   1
M  END
>  <i_m_ct_stereo_status>  (154) 
1

>  <s_m_source_file>  (154) 
/var/tmp/pbs.5076255.sched01/tmpqwfmwtcs/46j3o47u_k.sdf

>  <i_m_source_file_index>  (154) 
13

>  <i_lp_mmshare_version>  (154) 
48012

>  <i_f3d_flags>  (154) 
0

>  <s_epik_input>  (154) 
W0NIM11PQyg9TylbQ0BASF0oW0NAQEhdKFtDSDJdW0NIMl0xKU4yW0NIM10pW0NASF0oW0NIMl1bQ0BIXTEyKWMzW2NIXVtjSF1jKFNbQ0gzXSlbY0hdW2NIXTM=

>  <s_epik_cmdline>  (154) 
J2VwaWtfcHl0aG9uJywgJy1waHQnLCAnMi4wJywgJy1waCcsICc3LjAnLCAnLXRuJywgJzgnLCAnLW1hJywgJzIwMCcsICctaW1hZScsICc8aW5maWxlLm1hZT4nLCAnLW9tYWUnLCAnPG91dGZpbGUubWFlPic=

>  <r_epik_Ionization_Penalty>  (154) 
0.0142062

>  <r_epik_Ionization_Penalty_Charging>  (154) 
0.0142062

>  <r_epik_Ionization_Penalty_Neutral>  (154) 
0

>  <r_epik_State_Penalty>  (154) 
0.0110991

>  <r_epik_Charging_Adjusted_Penalty>  (154) 
0.0253053

>  <i_epik_Tot_Q>  (154) 
1

>  <i_epik_Tot_abs_Q>  (154) 
1

>  <s_epik_Chemistry_Notes>  (154) 
This compound has an ester and may undergo hydrolysis at high or low pH.

>  <s_lp_Force_Field>  (154) 
OPLS3e

>  <r_lp_Energy>  (154) 
33.1976

>  <b_lp_Chiralities_Consistent>  (154) 
1

>  <s_lp_Variant>  (154) 
41:0-1

>  <s_i_glide_gridfile>  (154) 
pfpi4k_grid

>  <i_i_glide_lignum>  (154) 
13

>  <i_i_glide_rotatable_bonds>  (154) 
4

>  <r_i_docking_score>  (154) 
-3.21204

>  <r_i_glide_ligand_efficiency>  (154) 
-0.152954

>  <r_i_glide_ligand_efficiency_sa>  (154) 
-0.421989

>  <r_i_glide_ligand_efficiency_ln>  (154) 
-0.79417

>  <r_i_glide_gscore>  (154) 
-3.21204

>  <r_i_glide_lipo>  (154) 
-0.320286

>  <r_i_glide_hbond>  (154) 
-0.2

>  <r_i_glide_metal>  (154) 
-0

>  <r_i_glide_rewards>  (154) 
-1.3197

>  <r_i_glide_evdw>  (154) 
-19.0895

>  <r_i_glide_ecoul>  (154) 
-4.97995

>  <r_i_glide_erotb>  (154) 
0.393409

>  <r_i_glide_esite>  (154) 
-0.0639928

>  <r_i_glide_emodel>  (154) 
-31.7815

>  <r_i_glide_energy>  (154) 
-24.0695

>  <r_i_glide_einternal>  (154) 
0.182192

>  <r_i_glide_intrahb_reward>  (154) 
-0

>  <i_i_glide_confnum>  (154) 
5

>  <i_i_glide_posenum>  (154) 
33

>  <r_i_glide_eff_state_penalty>  (154) 
0

>  <ligand_id>  (154) 
41

>  <original_smiles>  (154) 
COC(=O)C1C(c2ccc(SC)cc2)CC2CCC1N2C

>  <smiles>  (154) 
[H]c1c([H])c(C2([H])C([H])([H])C3([H])C([H])([H])C([H])([H])C([H])(C2([H])C(=O)OC([H])([H])[H])[N+]3([H])C([H])([H])[H])c([H])c([H])c1SC([H])([H])[H]

$$$$
41:1:0
     RDKit          3D

 44 46  0  0  1  0  0  0  0  0999 V2000
    4.7056   -8.3716    1.4963 C   0  0  0  0  0  0  0  0  0  0  0  0
    4.3903   -7.0053    1.6364 O   0  0  0  0  0  0  0  0  0  0  0  0
    5.2643   -6.0550    1.2722 C   0  0  0  0  0  0  0  0  0  0  0  0
    6.4161   -6.2757    0.8972 O   0  0  0  0  0  0  0  0  0  0  0  0
    4.6914   -4.6244    1.4140 C   0  0  2  0  0  0  0  0  0  0  0  0
    3.3185   -4.4542    0.6928 C   0  0  1  0  0  0  0  0  0  0  0  0
    2.2018   -5.2373    1.3750 C   0  0  0  0  0  0  0  0  0  0  0  0
    1.4163   -6.1378    0.6275 C   0  0  0  0  0  0  0  0  0  0  0  0
    0.4177   -6.8959    1.2507 C   0  0  0  0  0  0  0  0  0  0  0  0
    0.2017   -6.7791    2.6364 C   0  0  0  0  0  0  0  0  0  0  0  0
   -1.0723   -7.7033    3.4363 S   0  0  0  0  0  0  0  0  0  0  0  0
   -1.2895   -9.2366    2.4903 C   0  0  0  0  0  0  0  0  0  0  0  0
    0.9763   -5.8785    3.3919 C   0  0  0  0  0  0  0  0  0  0  0  0
    1.9649   -5.1030    2.7607 C   0  0  0  0  0  0  0  0  0  0  0  0
    2.9212   -2.9669    0.5321 C   0  0  0  0  0  0  0  0  0  0  0  0
    4.1208   -2.0663    0.1733 C   0  0  2  0  0  0  0  0  0  0  0  0
    4.8630   -2.5367   -1.0878 C   0  0  0  0  0  0  0  0  0  0  0  0
    5.9201   -3.5065   -0.5652 C   0  0  0  0  0  0  0  0  0  0  0  0
    5.6933   -3.5286    0.9610 C   0  0  1  0  0  0  0  0  0  0  0  0
    5.0866   -2.2270    1.2553 N   0  0  0  0  0  0  0  0  0  0  0  0
    6.0693   -1.1480    1.2760 C   0  0  0  0  0  0  0  0  0  0  0  0
    3.8497   -8.9687    1.8069 H   0  0  0  0  0  0  0  0  0  0  0  0
    5.5555   -8.6272    2.1228 H   0  0  0  0  0  0  0  0  0  0  0  0
    4.9338   -8.6190    0.4618 H   0  0  0  0  0  0  0  0  0  0  0  0
    4.5498   -4.4557    2.4787 H   0  0  0  0  0  0  0  0  0  0  0  0
    3.4259   -4.8512   -0.3205 H   0  0  0  0  0  0  0  0  0  0  0  0
    1.5774   -6.2379   -0.4331 H   0  0  0  0  0  0  0  0  0  0  0  0
   -0.1760   -7.5677    0.6484 H   0  0  0  0  0  0  0  0  0  0  0  0
   -2.0626   -9.8549    2.9494 H   0  0  0  0  0  0  0  0  0  0  0  0
   -0.3551   -9.7990    2.4734 H   0  0  0  0  0  0  0  0  0  0  0  0
   -1.5934   -9.0253    1.4673 H   0  0  0  0  0  0  0  0  0  0  0  0
    0.8246   -5.7892    4.4555 H   0  0  0  0  0  0  0  0  0  0  0  0
    2.5463   -4.4130    3.3461 H   0  0  0  0  0  0  0  0  0  0  0  0
    2.1470   -2.8685   -0.2274 H   0  0  0  0  0  0  0  0  0  0  0  0
    2.4831   -2.5885    1.4575 H   0  0  0  0  0  0  0  0  0  0  0  0
    3.7773   -1.0349    0.0814 H   0  0  0  0  0  0  0  0  0  0  0  0
    4.1916   -3.0134   -1.8017 H   0  0  0  0  0  0  0  0  0  0  0  0
    5.3400   -1.6976   -1.5944 H   0  0  0  0  0  0  0  0  0  0  0  0
    5.8161   -4.4902   -1.0221 H   0  0  0  0  0  0  0  0  0  0  0  0
    6.9267   -3.1469   -0.7879 H   0  0  0  0  0  0  0  0  0  0  0  0
    6.6272   -3.6434    1.5192 H   0  0  0  0  0  0  0  0  0  0  0  0
    6.7846   -1.3042    2.0802 H   0  0  0  0  0  0  0  0  0  0  0  0
    5.5798   -0.1901    1.4542 H   0  0  0  0  0  0  0  0  0  0  0  0
    6.6260   -1.0704    0.3445 H   0  0  0  0  0  0  0  0  0  0  0  0
  1  2  1  0
  1 22  1  0
  1 23  1  0
  1 24  1  0
  2  3  1  0
  3  4  2  0
  3  5  1  0
  5 19  1  0
  5  6  1  0
  5 25  1  1
  6  7  1  0
  6 15  1  0
  6 26  1  6
  7 14  1  0
  7  8  2  0
  8  9  1  0
  8 27  1  0
  9 10  2  0
  9 28  1  0
 10 11  1  0
 10 13  1  0
 11 12  1  0
 12 29  1  0
 12 30  1  0
 12 31  1  0
 13 14  2  0
 13 32  1  0
 14 33  1  0
 15 16  1  0
 15 34  1  0
 15 35  1  0
 16 20  1  0
 16 17  1  0
 16 36  1  6
 17 18  1  0
 17 37  1  0
 17 38  1  0
 18 19  1  0
 18 39  1  0
 18 40  1  0
 19 20  1  0
 19 41  1  1
 20 21  1  0
 21 42  1  0
 21 43  1  0
 21 44  1  0
M  END
>  <i_m_ct_stereo_status>  (155) 
1

>  <s_m_source_file>  (155) 
/var/tmp/pbs.5076255.sched01/tmpqwfmwtcs/46j3o47u_k.sdf

>  <i_m_source_file_index>  (155) 
14

>  <i_lp_mmshare_version>  (155) 
48012

>  <i_f3d_flags>  (155) 
0

>  <s_epik_input>  (155) 
W0NIM11PQyg9TylbQ0BASF0oW0NAQEhdKFtDSDJdW0NIMl0xKU4yW0NIM10pW0NASF0oW0NIMl1bQ0BIXTEyKWMzW2NIXVtjSF1jKFNbQ0gzXSlbY0hdW2NIXTM=

>  <s_epik_cmdline>  (155) 
J2VwaWtfcHl0aG9uJywgJy1waHQnLCAnMi4wJywgJy1waCcsICc3LjAnLCAnLXRuJywgJzgnLCAnLW1hJywgJzIwMCcsICctaW1hZScsICc8aW5maWxlLm1hZT4nLCAnLW9tYWUnLCAnPG91dGZpbGUubWFlPic=

>  <r_epik_Ionization_Penalty>  (155) 
2.21744

>  <r_epik_Ionization_Penalty_Charging>  (155) 
0

>  <r_epik_Ionization_Penalty_Neutral>  (155) 
2.21744

>  <r_epik_State_Penalty>  (155) 
2.36213

>  <r_epik_Charging_Adjusted_Penalty>  (155) 
2.36213

>  <i_epik_Tot_Q>  (155) 
0

>  <i_epik_Tot_abs_Q>  (155) 
0

>  <s_epik_Chemistry_Notes>  (155) 
This compound has an ester and may undergo hydrolysis at high or low pH.

>  <s_lp_Force_Field>  (155) 
OPLS3e

>  <r_lp_Energy>  (155) 
31.3072

>  <b_lp_Chiralities_Consistent>  (155) 
1

>  <s_lp_Variant>  (155) 
41:0-2

>  <s_i_glide_gridfile>  (155) 
pfpi4k_grid

>  <i_i_glide_lignum>  (155) 
14

>  <i_i_glide_rotatable_bonds>  (155) 
4

>  <r_i_docking_score>  (155) 
-3.11476

>  <r_i_glide_ligand_efficiency>  (155) 
-0.148322

>  <r_i_glide_ligand_efficiency_sa>  (155) 
-0.409209

>  <r_i_glide_ligand_efficiency_ln>  (155) 
-0.770119

>  <r_i_glide_gscore>  (155) 
-3.11476

>  <r_i_glide_lipo>  (155) 
-0.541162

>  <r_i_glide_hbond>  (155) 
0

>  <r_i_glide_metal>  (155) 
-0

>  <r_i_glide_rewards>  (155) 
-1.4367

>  <r_i_glide_evdw>  (155) 
-24.2075

>  <r_i_glide_ecoul>  (155) 
-2.14812

>  <r_i_glide_erotb>  (155) 
0.395689

>  <r_i_glide_esite>  (155) 
0

>  <r_i_glide_emodel>  (155) 
-30.572

>  <r_i_glide_energy>  (155) 
-26.3556

>  <r_i_glide_einternal>  (155) 
2.12598

>  <r_i_glide_intrahb_reward>  (155) 
-0

>  <i_i_glide_confnum>  (155) 
2

>  <i_i_glide_posenum>  (155) 
34

>  <r_i_glide_eff_state_penalty>  (155) 
0

>  <ligand_id>  (155) 
41

>  <original_smiles>  (155) 
COC(=O)C1C(c2ccc(SC)cc2)CC2CCC1N2C

>  <smiles>  (155) 
[H]c1c([H])c(C2([H])C([H])([H])C3([H])N(C([H])([H])[H])C([H])(C([H])([H])C3([H])[H])C2([H])C(=O)OC([H])([H])[H])c([H])c([H])c1SC([H])([H])[H]

$$$$
41:1:1
     RDKit          3D

 44 46  0  0  1  0  0  0  0  0999 V2000
    6.9842   -7.5324    1.9133 C   0  0  0  0  0  0  0  0  0  0  0  0
    6.2724   -6.3122    1.9678 O   0  0  0  0  0  0  0  0  0  0  0  0
    5.1534   -6.1802    1.2420 C   0  0  0  0  0  0  0  0  0  0  0  0
    4.6603   -7.0550    0.5259 O   0  0  0  0  0  0  0  0  0  0  0  0
    4.5410   -4.7738    1.3730 C   0  0  2  0  0  0  0  0  0  0  0  0
    3.1260   -4.6678    0.7318 C   0  0  1  0  0  0  0  0  0  0  0  0
    2.0865   -5.4489    1.5307 C   0  0  0  0  0  0  0  0  0  0  0  0
    1.2766   -6.4045    0.8888 C   0  0  0  0  0  0  0  0  0  0  0  0
    0.3225   -7.1341    1.6181 C   0  0  0  0  0  0  0  0  0  0  0  0
    0.1867   -6.9298    3.0006 C   0  0  0  0  0  0  0  0  0  0  0  0
   -1.0432   -7.8275    3.8923 S   0  0  0  0  0  0  0  0  0  0  0  0
   -0.2379   -8.4577    5.3911 C   0  0  0  0  0  0  0  0  0  0  0  0
    0.9873   -5.9742    3.6522 C   0  0  0  0  0  0  0  0  0  0  0  0
    1.9280   -5.2320    2.9156 C   0  0  0  0  0  0  0  0  0  0  0  0
    2.6956   -3.1947    0.5268 C   0  0  0  0  0  0  0  0  0  0  0  0
    3.8601   -2.3003    0.0480 C   0  0  2  0  0  0  0  0  0  0  0  0
    4.5409   -2.8289   -1.2263 C   0  0  0  0  0  0  0  0  0  0  0  0
    5.6486   -3.7489   -0.7128 C   0  0  0  0  0  0  0  0  0  0  0  0
    5.5003   -3.6884    0.8187 C   0  0  1  0  0  0  0  0  0  0  0  0
    4.8911   -2.3833    1.0796 N   0  0  0  0  0  0  0  0  0  0  0  0
    5.8509   -1.2883    0.9878 C   0  0  0  0  0  0  0  0  0  0  0  0
    7.8714   -7.4707    2.5421 H   0  0  0  0  0  0  0  0  0  0  0  0
    7.3036   -7.7367    0.8896 H   0  0  0  0  0  0  0  0  0  0  0  0
    6.3644   -8.3611    2.2536 H   0  0  0  0  0  0  0  0  0  0  0  0
    4.4625   -4.5760    2.4358 H   0  0  0  0  0  0  0  0  0  0  0  0
    3.1731   -5.1018   -0.2708 H   0  0  0  0  0  0  0  0  0  0  0  0
    1.3857   -6.5698   -0.1682 H   0  0  0  0  0  0  0  0  0  0  0  0
   -0.2926   -7.8615    1.1122 H   0  0  0  0  0  0  0  0  0  0  0  0
   -0.9503   -9.0606    5.9572 H   0  0  0  0  0  0  0  0  0  0  0  0
    0.1025   -7.6418    6.0262 H   0  0  0  0  0  0  0  0  0  0  0  0
    0.6156   -9.0867    5.1389 H   0  0  0  0  0  0  0  0  0  0  0  0
    0.8822   -5.8015    4.7118 H   0  0  0  0  0  0  0  0  0  0  0  0
    2.5206   -4.4865    3.4216 H   0  0  0  0  0  0  0  0  0  0  0  0
    1.8755   -3.1466   -0.1921 H   0  0  0  0  0  0  0  0  0  0  0  0
    2.3049   -2.7788    1.4593 H   0  0  0  0  0  0  0  0  0  0  0  0
    3.4943   -1.2801   -0.0826 H   0  0  0  0  0  0  0  0  0  0  0  0
    3.8424   -3.3564   -1.8767 H   0  0  0  0  0  0  0  0  0  0  0  0
    4.9744   -2.0113   -1.8028 H   0  0  0  0  0  0  0  0  0  0  0  0
    5.5381   -4.7596   -1.1069 H   0  0  0  0  0  0  0  0  0  0  0  0
    6.6331   -3.3857   -1.0145 H   0  0  0  0  0  0  0  0  0  0  0  0
    6.4653   -3.7573    1.3265 H   0  0  0  0  0  0  0  0  0  0  0  0
    6.6152   -1.3897    1.7573 H   0  0  0  0  0  0  0  0  0  0  0  0
    5.3548   -0.3290    1.1418 H   0  0  0  0  0  0  0  0  0  0  0  0
    6.3515   -1.2526    0.0225 H   0  0  0  0  0  0  0  0  0  0  0  0
  1  2  1  0
  1 22  1  0
  1 23  1  0
  1 24  1  0
  2  3  1  0
  3  4  2  0
  3  5  1  0
  5 19  1  0
  5  6  1  0
  5 25  1  1
  6  7  1  0
  6 15  1  0
  6 26  1  6
  7 14  1  0
  7  8  2  0
  8  9  1  0
  8 27  1  0
  9 10  2  0
  9 28  1  0
 10 11  1  0
 10 13  1  0
 11 12  1  0
 12 29  1  0
 12 30  1  0
 12 31  1  0
 13 14  2  0
 13 32  1  0
 14 33  1  0
 15 16  1  0
 15 34  1  0
 15 35  1  0
 16 20  1  0
 16 17  1  0
 16 36  1  6
 17 18  1  0
 17 37  1  0
 17 38  1  0
 18 19  1  0
 18 39  1  0
 18 40  1  0
 19 20  1  0
 19 41  1  1
 20 21  1  0
 21 42  1  0
 21 43  1  0
 21 44  1  0
M  END
>  <i_m_ct_stereo_status>  (156) 
1

>  <s_m_source_file>  (156) 
/var/tmp/pbs.5076255.sched01/tmpqwfmwtcs/46j3o47u_k.sdf

>  <i_m_source_file_index>  (156) 
14

>  <i_lp_mmshare_version>  (156) 
48012

>  <i_f3d_flags>  (156) 
0

>  <s_epik_input>  (156) 
W0NIM11PQyg9TylbQ0BASF0oW0NAQEhdKFtDSDJdW0NIMl0xKU4yW0NIM10pW0NASF0oW0NIMl1bQ0BIXTEyKWMzW2NIXVtjSF1jKFNbQ0gzXSlbY0hdW2NIXTM=

>  <s_epik_cmdline>  (156) 
J2VwaWtfcHl0aG9uJywgJy1waHQnLCAnMi4wJywgJy1waCcsICc3LjAnLCAnLXRuJywgJzgnLCAnLW1hJywgJzIwMCcsICctaW1hZScsICc8aW5maWxlLm1hZT4nLCAnLW9tYWUnLCAnPG91dGZpbGUubWFlPic=

>  <r_epik_Ionization_Penalty>  (156) 
2.21744

>  <r_epik_Ionization_Penalty_Charging>  (156) 
0

>  <r_epik_Ionization_Penalty_Neutral>  (156) 
2.21744

>  <r_epik_State_Penalty>  (156) 
2.36213

>  <r_epik_Charging_Adjusted_Penalty>  (156) 
2.36213

>  <i_epik_Tot_Q>  (156) 
0

>  <i_epik_Tot_abs_Q>  (156) 
0

>  <s_epik_Chemistry_Notes>  (156) 
This compound has an ester and may undergo hydrolysis at high or low pH.

>  <s_lp_Force_Field>  (156) 
OPLS3e

>  <r_lp_Energy>  (156) 
31.3072

>  <b_lp_Chiralities_Consistent>  (156) 
1

>  <s_lp_Variant>  (156) 
41:0-2

>  <s_i_glide_gridfile>  (156) 
pfpi4k_grid

>  <i_i_glide_lignum>  (156) 
14

>  <i_i_glide_rotatable_bonds>  (156) 
4

>  <r_i_docking_score>  (156) 
-2.77674

>  <r_i_glide_ligand_efficiency>  (156) 
-0.132226

>  <r_i_glide_ligand_efficiency_sa>  (156) 
-0.364801

>  <r_i_glide_ligand_efficiency_ln>  (156) 
-0.686544

>  <r_i_glide_gscore>  (156) 
-2.77674

>  <r_i_glide_lipo>  (156) 
-0.357263

>  <r_i_glide_hbond>  (156) 
0

>  <r_i_glide_metal>  (156) 
-0

>  <r_i_glide_rewards>  (156) 
-1.44447

>  <r_i_glide_evdw>  (156) 
-23.5979

>  <r_i_glide_ecoul>  (156) 
-1.27202

>  <r_i_glide_erotb>  (156) 
0.395689

>  <r_i_glide_esite>  (156) 
0

>  <r_i_glide_emodel>  (156) 
-29.0408

>  <r_i_glide_energy>  (156) 
-24.8699

>  <r_i_glide_einternal>  (156) 
1.19548

>  <r_i_glide_intrahb_reward>  (156) 
-0

>  <i_i_glide_confnum>  (156) 
2

>  <i_i_glide_posenum>  (156) 
2

>  <r_i_glide_eff_state_penalty>  (156) 
0

>  <ligand_id>  (156) 
41

>  <original_smiles>  (156) 
COC(=O)C1C(c2ccc(SC)cc2)CC2CCC1N2C

>  <smiles>  (156) 
[H]c1c([H])c(C2([H])C([H])([H])C3([H])N(C([H])([H])[H])C([H])(C([H])([H])C3([H])[H])C2([H])C(=O)OC([H])([H])[H])c([H])c([H])c1SC([H])([H])[H]

$$$$
41:1:2
     RDKit          3D

 44 46  0  0  1  0  0  0  0  0999 V2000
    1.8032    0.0761    2.6830 C   0  0  0  0  0  0  0  0  0  0  0  0
    2.1701   -0.8475    1.6821 O   0  0  0  0  0  0  0  0  0  0  0  0
    2.6772   -2.0319    2.0412 C   0  0  0  0  0  0  0  0  0  0  0  0
    2.8339   -2.3924    3.2042 O   0  0  0  0  0  0  0  0  0  0  0  0
    3.0915   -2.9025    0.8324 C   0  0  2  0  0  0  0  0  0  0  0  0
    3.6606   -4.3029    1.2275 C   0  0  1  0  0  0  0  0  0  0  0  0
    2.5649   -5.2380    1.7620 C   0  0  0  0  0  0  0  0  0  0  0  0
    2.4085   -5.4195    3.1506 C   0  0  0  0  0  0  0  0  0  0  0  0
    1.3711   -6.2267    3.6535 C   0  0  0  0  0  0  0  0  0  0  0  0
    0.5051   -6.8878    2.7694 C   0  0  0  0  0  0  0  0  0  0  0  0
   -0.8203   -7.8580    3.4208 S   0  0  0  0  0  0  0  0  0  0  0  0
   -1.0986   -9.2063    2.2418 C   0  0  0  0  0  0  0  0  0  0  0  0
    0.6646   -6.7253    1.3841 C   0  0  0  0  0  0  0  0  0  0  0  0
    1.6807   -5.8900    0.8821 C   0  0  0  0  0  0  0  0  0  0  0  0
    4.4658   -4.9618    0.0705 C   0  0  0  0  0  0  0  0  0  0  0  0
    5.3110   -3.9426   -0.7131 C   0  0  2  0  0  0  0  0  0  0  0  0
    6.2799   -3.1536    0.1770 C   0  0  0  0  0  0  0  0  0  0  0  0
    5.4723   -1.9253    0.6032 C   0  0  0  0  0  0  0  0  0  0  0  0
    4.0958   -2.1266   -0.0675 C   0  0  1  0  0  0  0  0  0  0  0  0
    4.3826   -2.9517   -1.2382 N   0  0  0  0  0  0  0  0  0  0  0  0
    4.9574   -2.1795   -2.3375 C   0  0  0  0  0  0  0  0  0  0  0  0
    1.4468    0.9989    2.2247 H   0  0  0  0  0  0  0  0  0  0  0  0
    2.6620    0.3037    3.3142 H   0  0  0  0  0  0  0  0  0  0  0  0
    1.0152   -0.3406    3.3096 H   0  0  0  0  0  0  0  0  0  0  0  0
    2.2006   -3.0631    0.2340 H   0  0  0  0  0  0  0  0  0  0  0  0
    4.3791   -4.1558    2.0352 H   0  0  0  0  0  0  0  0  0  0  0  0
    3.0630   -4.9130    3.8435 H   0  0  0  0  0  0  0  0  0  0  0  0
    1.2428   -6.3260    4.7254 H   0  0  0  0  0  0  0  0  0  0  0  0
   -1.8794   -9.8611    2.6249 H   0  0  0  0  0  0  0  0  0  0  0  0
   -0.1911   -9.7936    2.0866 H   0  0  0  0  0  0  0  0  0  0  0  0
   -1.4242   -8.8187    1.2805 H   0  0  0  0  0  0  0  0  0  0  0  0
    0.0033   -7.2236    0.6883 H   0  0  0  0  0  0  0  0  0  0  0  0
    1.7602   -5.7496   -0.1850 H   0  0  0  0  0  0  0  0  0  0  0  0
    5.0979   -5.7597    0.4684 H   0  0  0  0  0  0  0  0  0  0  0  0
    3.8204   -5.4313   -0.6720 H   0  0  0  0  0  0  0  0  0  0  0  0
    5.8134   -4.4607   -1.5249 H   0  0  0  0  0  0  0  0  0  0  0  0
    6.6132   -3.7407    1.0326 H   0  0  0  0  0  0  0  0  0  0  0  0
    7.1643   -2.8497   -0.3844 H   0  0  0  0  0  0  0  0  0  0  0  0
    5.4064   -1.8437    1.6904 H   0  0  0  0  0  0  0  0  0  0  0  0
    5.9392   -1.0073    0.2394 H   0  0  0  0  0  0  0  0  0  0  0  0
    3.6511   -1.1803   -0.3840 H   0  0  0  0  0  0  0  0  0  0  0  0
    4.2508   -1.4280   -2.6841 H   0  0  0  0  0  0  0  0  0  0  0  0
    5.1866   -2.8320   -3.1781 H   0  0  0  0  0  0  0  0  0  0  0  0
    5.8722   -1.6718   -2.0489 H   0  0  0  0  0  0  0  0  0  0  0  0
  1  2  1  0
  1 22  1  0
  1 23  1  0
  1 24  1  0
  2  3  1  0
  3  4  2  0
  3  5  1  0
  5 19  1  0
  5  6  1  0
  5 25  1  6
  6  7  1  0
  6 15  1  0
  6 26  1  1
  7 14  1  0
  7  8  2  0
  8  9  1  0
  8 27  1  0
  9 10  2  0
  9 28  1  0
 10 11  1  0
 10 13  1  0
 11 12  1  0
 12 29  1  0
 12 30  1  0
 12 31  1  0
 13 14  2  0
 13 32  1  0
 14 33  1  0
 15 16  1  0
 15 34  1  0
 15 35  1  0
 16 20  1  0
 16 17  1  0
 16 36  1  6
 17 18  1  0
 17 37  1  0
 17 38  1  0
 18 19  1  0
 18 39  1  0
 18 40  1  0
 19 20  1  0
 19 41  1  6
 20 21  1  0
 21 42  1  0
 21 43  1  0
 21 44  1  0
M  END
>  <i_m_ct_stereo_status>  (157) 
1

>  <s_m_source_file>  (157) 
/var/tmp/pbs.5076255.sched01/tmpqwfmwtcs/46j3o47u_k.sdf

>  <i_m_source_file_index>  (157) 
14

>  <i_lp_mmshare_version>  (157) 
48012

>  <i_f3d_flags>  (157) 
0

>  <s_epik_input>  (157) 
W0NIM11PQyg9TylbQ0BASF0oW0NAQEhdKFtDSDJdW0NIMl0xKU4yW0NIM10pW0NASF0oW0NIMl1bQ0BIXTEyKWMzW2NIXVtjSF1jKFNbQ0gzXSlbY0hdW2NIXTM=

>  <s_epik_cmdline>  (157) 
J2VwaWtfcHl0aG9uJywgJy1waHQnLCAnMi4wJywgJy1waCcsICc3LjAnLCAnLXRuJywgJzgnLCAnLW1hJywgJzIwMCcsICctaW1hZScsICc8aW5maWxlLm1hZT4nLCAnLW9tYWUnLCAnPG91dGZpbGUubWFlPic=

>  <r_epik_Ionization_Penalty>  (157) 
2.21744

>  <r_epik_Ionization_Penalty_Charging>  (157) 
0

>  <r_epik_Ionization_Penalty_Neutral>  (157) 
2.21744

>  <r_epik_State_Penalty>  (157) 
2.36213

>  <r_epik_Charging_Adjusted_Penalty>  (157) 
2.36213

>  <i_epik_Tot_Q>  (157) 
0

>  <i_epik_Tot_abs_Q>  (157) 
0

>  <s_epik_Chemistry_Notes>  (157) 
This compound has an ester and may undergo hydrolysis at high or low pH.

>  <s_lp_Force_Field>  (157) 
OPLS3e

>  <r_lp_Energy>  (157) 
31.3072

>  <b_lp_Chiralities_Consistent>  (157) 
1

>  <s_lp_Variant>  (157) 
41:0-2

>  <s_i_glide_gridfile>  (157) 
pfpi4k_grid

>  <i_i_glide_lignum>  (157) 
14

>  <i_i_glide_rotatable_bonds>  (157) 
4

>  <r_i_docking_score>  (157) 
-2.65664

>  <r_i_glide_ligand_efficiency>  (157) 
-0.126506

>  <r_i_glide_ligand_efficiency_sa>  (157) 
-0.349022

>  <r_i_glide_ligand_efficiency_ln>  (157) 
-0.656848

>  <r_i_glide_gscore>  (157) 
-2.65664

>  <r_i_glide_lipo>  (157) 
-0.455477

>  <r_i_glide_hbond>  (157) 
0

>  <r_i_glide_metal>  (157) 
-0

>  <r_i_glide_rewards>  (157) 
-1.32657

>  <r_i_glide_evdw>  (157) 
-24.0839

>  <r_i_glide_ecoul>  (157) 
-0.313884

>  <r_i_glide_erotb>  (157) 
0.395689

>  <r_i_glide_esite>  (157) 
-0.0189975

>  <r_i_glide_emodel>  (157) 
-27.8843

>  <r_i_glide_energy>  (157) 
-24.3978

>  <r_i_glide_einternal>  (157) 
1.86374

>  <r_i_glide_intrahb_reward>  (157) 
-0

>  <i_i_glide_confnum>  (157) 
4

>  <i_i_glide_posenum>  (157) 
35

>  <r_i_glide_eff_state_penalty>  (157) 
0

>  <ligand_id>  (157) 
41

>  <original_smiles>  (157) 
COC(=O)C1C(c2ccc(SC)cc2)CC2CCC1N2C

>  <smiles>  (157) 
[H]c1c([H])c(C2([H])C([H])([H])C3([H])N(C([H])([H])[H])C([H])(C([H])([H])C3([H])[H])C2([H])C(=O)OC([H])([H])[H])c([H])c([H])c1SC([H])([H])[H]

$$$$
42:0:0
     RDKit          3D

 39 43  0  0  1  0  0  0  0  0999 V2000
    5.7306   -1.9964    0.0649 C   0  0  0  0  0  0  0  0  0  0  0  0
    5.1858   -3.1961    0.5688 C   0  0  0  0  0  0  0  0  0  0  0  0
    6.0126   -4.3336    0.6821 C   0  0  0  0  0  0  0  0  0  0  0  0
    5.4864   -5.5970    1.1885 C   0  0  0  0  0  0  0  0  0  0  0  0
    4.3141   -5.9225    1.8542 C   0  0  0  0  0  0  0  0  0  0  0  0
    4.4472   -7.3374    2.0389 C   0  0  0  0  0  0  0  0  0  0  0  0
    3.6165   -8.3333    2.6629 C   0  0  0  0  0  0  0  0  0  0  0  0
    2.3384   -8.1810    3.2638 N   0  0  0  0  0  0  0  0  0  0  0  0
    1.6397   -6.9024    3.2544 C   0  0  0  0  0  0  0  0  0  0  0  0
    0.1195   -7.0816    3.4256 C   0  0  1  0  0  0  0  0  0  0  0  0
   -0.5431   -7.9170    2.3252 C   0  0  0  0  0  0  0  0  0  0  0  0
   -0.4666   -9.3415    2.8701 C   0  0  0  0  0  0  0  0  0  0  0  0
    0.2366   -9.1661    4.2164 C   0  0  1  0  0  0  0  0  0  0  0  0
    1.7759   -9.2450    4.1287 C   0  0  0  0  0  0  0  0  0  0  0  0
   -0.1119   -7.8465    4.5897 O   0  0  0  0  0  0  0  0  0  0  0  0
    4.1065   -9.5917    2.6580 N   0  0  0  0  0  0  0  0  0  0  0  0
    5.2680   -9.8925    2.0743 C   0  0  0  0  0  0  0  0  0  0  0  0
    6.1267   -9.0716    1.4681 N   0  0  0  0  0  0  0  0  0  0  0  0
    5.6590   -7.7956    1.4953 C   0  0  0  0  0  0  0  0  0  0  0  0
    6.3000   -6.6906    0.9753 O   0  0  0  0  0  0  0  0  0  0  0  0
    7.3602   -4.1941    0.2750 C   0  0  0  0  0  0  0  0  0  0  0  0
    7.8085   -2.9485   -0.2192 C   0  0  0  0  0  0  0  0  0  0  0  0
    7.0149   -1.8633   -0.3261 N   0  0  0  0  0  0  0  0  0  0  0  0
    5.1177   -1.1119   -0.0288 H   0  0  0  0  0  0  0  0  0  0  0  0
    4.1447   -3.2325    0.8491 H   0  0  0  0  0  0  0  0  0  0  0  0
    3.5034   -5.2943    2.1769 H   0  0  0  0  0  0  0  0  0  0  0  0
    2.0502   -6.2466    4.0261 H   0  0  0  0  0  0  0  0  0  0  0  0
    1.7849   -6.4469    2.2815 H   0  0  0  0  0  0  0  0  0  0  0  0
   -0.3511   -6.1114    3.5193 H   0  0  0  0  0  0  0  0  0  0  0  0
   -1.5901   -7.6292    2.1981 H   0  0  0  0  0  0  0  0  0  0  0  0
   -0.0315   -7.8132    1.3652 H   0  0  0  0  0  0  0  0  0  0  0  0
   -1.4741   -9.7446    3.0072 H   0  0  0  0  0  0  0  0  0  0  0  0
    0.0854  -10.0139    2.2098 H   0  0  0  0  0  0  0  0  0  0  0  0
   -0.1478   -9.8718    4.9459 H   0  0  0  0  0  0  0  0  0  0  0  0
    2.0068  -10.2357    3.7453 H   0  0  0  0  0  0  0  0  0  0  0  0
    2.2048   -9.1976    5.1306 H   0  0  0  0  0  0  0  0  0  0  0  0
    5.5591  -10.9240    2.1125 H   0  0  0  0  0  0  0  0  0  0  0  0
    8.0550   -5.0211    0.3254 H   0  0  0  0  0  0  0  0  0  0  0  0
    8.8344   -2.8131   -0.5348 H   0  0  0  0  0  0  0  0  0  0  0  0
  1 23  2  0
  1  2  1  0
  1 24  1  0
  2  3  2  0
  2 25  1  0
  3  4  1  0
  3 21  1  0
  4 20  1  0
  4  5  2  0
  5  6  1  0
  5 26  1  0
  6 19  2  0
  6  7  1  0
  7  8  1  0
  7 16  2  0
  8 14  1  0
  8  9  1  0
  9 10  1  0
  9 27  1  0
  9 28  1  0
 10 15  1  0
 10 11  1  0
 10 29  1  1
 11 12  1  0
 11 30  1  0
 11 31  1  0
 12 13  1  0
 12 32  1  0
 12 33  1  0
 13 14  1  0
 13 15  1  0
 13 34  1  1
 14 35  1  0
 14 36  1  0
 16 17  1  0
 17 18  2  0
 17 37  1  0
 18 19  1  0
 19 20  1  0
 21 22  2  0
 21 38  1  0
 22 23  1  0
 22 39  1  0
M  END
>  <i_m_ct_stereo_status>  (158) 
1

>  <s_m_source_file>  (158) 
/var/tmp/pbs.5076255.sched01/tmpqwfmwtcs/46j3o47u_k.sdf

>  <i_m_source_file_index>  (158) 
15

>  <i_lp_mmshare_version>  (158) 
48012

>  <i_f3d_flags>  (158) 
0

>  <s_epik_input>  (158) 
W2NIXTFbY0hdbltjSF1bY0hdYzEtYyhbY0hdMilvYyhjMjMpbltjSF1uYzNOKFtDSDJdW0NAQEhdNDUpW0NIMl1bQ0hdKE81KVtDSDJdW0NIMl00

>  <s_epik_cmdline>  (158) 
J2VwaWtfcHl0aG9uJywgJy1waHQnLCAnMi4wJywgJy1waCcsICc3LjAnLCAnLXRuJywgJzgnLCAnLW1hJywgJzIwMCcsICctaW1hZScsICc8aW5maWxlLm1hZT4nLCAnLW9tYWUnLCAnPG91dGZpbGUubWFlPic=

>  <r_epik_Ionization_Penalty>  (158) 
0.00590411

>  <r_epik_Ionization_Penalty_Charging>  (158) 
0

>  <r_epik_Ionization_Penalty_Neutral>  (158) 
0.00590411

>  <r_epik_State_Penalty>  (158) 
0.00429215

>  <r_epik_Charging_Adjusted_Penalty>  (158) 
0.00429215

>  <i_epik_Tot_Q>  (158) 
0

>  <i_epik_Tot_abs_Q>  (158) 
0

>  <s_lp_Force_Field>  (158) 
OPLS3e

>  <r_lp_Energy>  (158) 
51.6149

>  <b_lp_Chiralities_Consistent>  (158) 
1

>  <s_lp_Variant>  (158) 
42:0-1

>  <s_i_glide_gridfile>  (158) 
pfpi4k_grid

>  <i_i_glide_lignum>  (158) 
15

>  <i_i_glide_rotatable_bonds>  (158) 
2

>  <r_i_docking_score>  (158) 
-3.57609

>  <r_i_glide_ligand_efficiency>  (158) 
-0.155482

>  <r_i_glide_ligand_efficiency_sa>  (158) 
-0.44217

>  <r_i_glide_ligand_efficiency_ln>  (158) 
-0.86473

>  <r_i_glide_gscore>  (158) 
-3.57609

>  <r_i_glide_lipo>  (158) 
-0.616506

>  <r_i_glide_hbond>  (158) 
-0.151437

>  <r_i_glide_metal>  (158) 
-0

>  <r_i_glide_rewards>  (158) 
-1.30681

>  <r_i_glide_evdw>  (158) 
-26.0149

>  <r_i_glide_ecoul>  (158) 
-3.4973

>  <r_i_glide_erotb>  (158) 
0.389187

>  <r_i_glide_esite>  (158) 
-0.0651826

>  <r_i_glide_emodel>  (158) 
-36.9347

>  <r_i_glide_energy>  (158) 
-29.5122

>  <r_i_glide_einternal>  (158) 
0.221974

>  <r_i_glide_intrahb_reward>  (158) 
-0

>  <i_i_glide_confnum>  (158) 
5

>  <i_i_glide_posenum>  (158) 
4

>  <r_i_glide_eff_state_penalty>  (158) 
0

>  <ligand_id>  (158) 
42

>  <original_smiles>  (158) 
c1cc(-c2cc3c(N4CC5CCC(C4)O5)ncnc3o2)ccn1

>  <smiles>  (158) 
[H]c1nc(N2C([H])([H])C3([H])OC([H])(C2([H])[H])C([H])([H])C3([H])[H])c2c([H])c(-c3c([H])c([H])nc([H])c3[H])oc2n1

$$$$
42:0:1
     RDKit          3D

 39 43  0  0  1  0  0  0  0  0999 V2000
   -1.2976    2.5418    2.8813 C   0  0  0  0  0  0  0  0  0  0  0  0
   -0.3951    1.5290    2.4976 C   0  0  0  0  0  0  0  0  0  0  0  0
   -0.0643    0.5152    3.4178 C   0  0  0  0  0  0  0  0  0  0  0  0
    0.8717   -0.5502    3.0665 C   0  0  0  0  0  0  0  0  0  0  0  0
    1.8865   -0.6258    2.1304 C   0  0  0  0  0  0  0  0  0  0  0  0
    2.3691   -1.9653    2.3053 C   0  0  0  0  0  0  0  0  0  0  0  0
    3.4072   -2.7297    1.6638 C   0  0  0  0  0  0  0  0  0  0  0  0
    4.2631   -2.3574    0.5895 N   0  0  0  0  0  0  0  0  0  0  0  0
    5.4522   -3.1661    0.2440 C   0  0  0  0  0  0  0  0  0  0  0  0
    5.8700   -2.9787   -1.2326 C   0  0  1  0  0  0  0  0  0  0  0  0
    4.8024   -3.4125   -2.2378 C   0  0  0  0  0  0  0  0  0  0  0  0
    3.9695   -2.1462   -2.4335 C   0  0  0  0  0  0  0  0  0  0  0  0
    4.6609   -1.1230   -1.5287 C   0  0  1  0  0  0  0  0  0  0  0  0
    4.1076   -1.0785   -0.0895 C   0  0  0  0  0  0  0  0  0  0  0  0
    5.9957   -1.5914   -1.4772 O   0  0  0  0  0  0  0  0  0  0  0  0
    3.5838   -3.9851    2.1368 N   0  0  0  0  0  0  0  0  0  0  0  0
    2.8202   -4.4825    3.1086 C   0  0  0  0  0  0  0  0  0  0  0  0
    1.8114   -3.8974    3.7558 N   0  0  0  0  0  0  0  0  0  0  0  0
    1.6456   -2.6230    3.3134 C   0  0  0  0  0  0  0  0  0  0  0  0
    0.7080   -1.7224    3.7788 O   0  0  0  0  0  0  0  0  0  0  0  0
   -0.6931    0.5636    4.6838 C   0  0  0  0  0  0  0  0  0  0  0  0
   -1.5783    1.6240    4.9730 C   0  0  0  0  0  0  0  0  0  0  0  0
   -1.8793    2.6037    4.0977 N   0  0  0  0  0  0  0  0  0  0  0  0
   -1.5620    3.3358    2.1976 H   0  0  0  0  0  0  0  0  0  0  0  0
    0.0281    1.5476    1.5021 H   0  0  0  0  0  0  0  0  0  0  0  0
    2.2395    0.1136    1.4339 H   0  0  0  0  0  0  0  0  0  0  0  0
    6.2880   -2.9182    0.8999 H   0  0  0  0  0  0  0  0  0  0  0  0
    5.2671   -4.2284    0.3746 H   0  0  0  0  0  0  0  0  0  0  0  0
    6.8132   -3.4759   -1.4339 H   0  0  0  0  0  0  0  0  0  0  0  0
    5.2584   -3.7101   -3.1863 H   0  0  0  0  0  0  0  0  0  0  0  0
    4.2115   -4.2494   -1.8630 H   0  0  0  0  0  0  0  0  0  0  0  0
    4.0187   -1.8263   -3.4775 H   0  0  0  0  0  0  0  0  0  0  0  0
    2.9208   -2.2867   -2.1627 H   0  0  0  0  0  0  0  0  0  0  0  0
    4.6224   -0.1335   -1.9682 H   0  0  0  0  0  0  0  0  0  0  0  0
    3.0488   -0.8673   -0.1852 H   0  0  0  0  0  0  0  0  0  0  0  0
    4.5846   -0.2850    0.4925 H   0  0  0  0  0  0  0  0  0  0  0  0
    3.0289   -5.4949    3.3995 H   0  0  0  0  0  0  0  0  0  0  0  0
   -0.4948   -0.1832    5.4383 H   0  0  0  0  0  0  0  0  0  0  0  0
   -2.0602    1.6959    5.9375 H   0  0  0  0  0  0  0  0  0  0  0  0
  1 23  2  0
  1  2  1  0
  1 24  1  0
  2  3  2  0
  2 25  1  0
  3  4  1  0
  3 21  1  0
  4 20  1  0
  4  5  2  0
  5  6  1  0
  5 26  1  0
  6 19  2  0
  6  7  1  0
  7  8  1  0
  7 16  2  0
  8 14  1  0
  8  9  1  0
  9 10  1  0
  9 27  1  0
  9 28  1  0
 10 15  1  0
 10 11  1  0
 10 29  1  6
 11 12  1  0
 11 30  1  0
 11 31  1  0
 12 13  1  0
 12 32  1  0
 12 33  1  0
 13 14  1  0
 13 15  1  0
 13 34  1  6
 14 35  1  0
 14 36  1  0
 16 17  1  0
 17 18  2  0
 17 37  1  0
 18 19  1  0
 19 20  1  0
 21 22  2  0
 21 38  1  0
 22 23  1  0
 22 39  1  0
M  END
>  <i_m_ct_stereo_status>  (159) 
1

>  <s_m_source_file>  (159) 
/var/tmp/pbs.5076255.sched01/tmpqwfmwtcs/46j3o47u_k.sdf

>  <i_m_source_file_index>  (159) 
15

>  <i_lp_mmshare_version>  (159) 
48012

>  <i_f3d_flags>  (159) 
0

>  <s_epik_input>  (159) 
W2NIXTFbY0hdbltjSF1bY0hdYzEtYyhbY0hdMilvYyhjMjMpbltjSF1uYzNOKFtDSDJdW0NAQEhdNDUpW0NIMl1bQ0hdKE81KVtDSDJdW0NIMl00

>  <s_epik_cmdline>  (159) 
J2VwaWtfcHl0aG9uJywgJy1waHQnLCAnMi4wJywgJy1waCcsICc3LjAnLCAnLXRuJywgJzgnLCAnLW1hJywgJzIwMCcsICctaW1hZScsICc8aW5maWxlLm1hZT4nLCAnLW9tYWUnLCAnPG91dGZpbGUubWFlPic=

>  <r_epik_Ionization_Penalty>  (159) 
0.00590411

>  <r_epik_Ionization_Penalty_Charging>  (159) 
0

>  <r_epik_Ionization_Penalty_Neutral>  (159) 
0.00590411

>  <r_epik_State_Penalty>  (159) 
0.00429215

>  <r_epik_Charging_Adjusted_Penalty>  (159) 
0.00429215

>  <i_epik_Tot_Q>  (159) 
0

>  <i_epik_Tot_abs_Q>  (159) 
0

>  <s_lp_Force_Field>  (159) 
OPLS3e

>  <r_lp_Energy>  (159) 
51.6149

>  <b_lp_Chiralities_Consistent>  (159) 
1

>  <s_lp_Variant>  (159) 
42:0-1

>  <s_i_glide_gridfile>  (159) 
pfpi4k_grid

>  <i_i_glide_lignum>  (159) 
15

>  <i_i_glide_rotatable_bonds>  (159) 
2

>  <r_i_docking_score>  (159) 
-3.05198

>  <r_i_glide_ligand_efficiency>  (159) 
-0.132695

>  <r_i_glide_ligand_efficiency_sa>  (159) 
-0.377366

>  <r_i_glide_ligand_efficiency_ln>  (159) 
-0.737995

>  <r_i_glide_gscore>  (159) 
-3.05198

>  <r_i_glide_lipo>  (159) 
-0.179678

>  <r_i_glide_hbond>  (159) 
-0.114799

>  <r_i_glide_metal>  (159) 
-0

>  <r_i_glide_rewards>  (159) 
-1.30681

>  <r_i_glide_evdw>  (159) 
-27.705

>  <r_i_glide_ecoul>  (159) 
-2.99176

>  <r_i_glide_erotb>  (159) 
0.389187

>  <r_i_glide_esite>  (159) 
-0.00586033

>  <r_i_glide_emodel>  (159) 
-36.7974

>  <r_i_glide_energy>  (159) 
-30.6968

>  <r_i_glide_einternal>  (159) 
0.585215

>  <r_i_glide_intrahb_reward>  (159) 
-0

>  <i_i_glide_confnum>  (159) 
3

>  <i_i_glide_posenum>  (159) 
26

>  <r_i_glide_eff_state_penalty>  (159) 
0

>  <ligand_id>  (159) 
42

>  <original_smiles>  (159) 
c1cc(-c2cc3c(N4CC5CCC(C4)O5)ncnc3o2)ccn1

>  <smiles>  (159) 
[H]c1nc(N2C([H])([H])C3([H])OC([H])(C2([H])[H])C([H])([H])C3([H])[H])c2c([H])c(-c3c([H])c([H])nc([H])c3[H])oc2n1

$$$$
42:0:2
     RDKit          3D

 39 43  0  0  1  0  0  0  0  0999 V2000
   -2.0475    2.9294    4.2113 C   0  0  0  0  0  0  0  0  0  0  0  0
   -1.3832    1.7090    3.9655 C   0  0  0  0  0  0  0  0  0  0  0  0
   -0.0364    1.7245    3.5323 C   0  0  0  0  0  0  0  0  0  0  0  0
    0.6921    0.4892    3.2521 C   0  0  0  0  0  0  0  0  0  0  0  0
    1.7551    0.1886    2.4168 C   0  0  0  0  0  0  0  0  0  0  0  0
    1.9433   -1.2141    2.6542 C   0  0  0  0  0  0  0  0  0  0  0  0
    2.8542   -2.1882    2.1183 C   0  0  0  0  0  0  0  0  0  0  0  0
    3.8503   -2.0279    1.1136 N   0  0  0  0  0  0  0  0  0  0  0  0
    4.9694   -2.9834    0.9830 C   0  0  0  0  0  0  0  0  0  0  0  0
    5.5467   -3.0133   -0.4521 C   0  0  1  0  0  0  0  0  0  0  0  0
    4.5433   -3.4677   -1.5128 C   0  0  0  0  0  0  0  0  0  0  0  0
    3.8681   -2.1666   -1.9386 C   0  0  0  0  0  0  0  0  0  0  0  0
    4.5664   -1.1087   -1.0816 C   0  0  1  0  0  0  0  0  0  0  0  0
    3.8854   -0.8360    0.2798 C   0  0  0  0  0  0  0  0  0  0  0  0
    5.8389   -1.6826   -0.8388 O   0  0  0  0  0  0  0  0  0  0  0  0
    2.7415   -3.4394    2.6223 N   0  0  0  0  0  0  0  0  0  0  0  0
    1.8284   -3.7389    3.5442 C   0  0  0  0  0  0  0  0  0  0  0  0
    0.9149   -2.9467    4.1032 N   0  0  0  0  0  0  0  0  0  0  0  0
    1.0308   -1.6819    3.6130 C   0  0  0  0  0  0  0  0  0  0  0  0
    0.2465   -0.6037    3.9706 O   0  0  0  0  0  0  0  0  0  0  0  0
    0.5769    2.9851    3.4096 C   0  0  0  0  0  0  0  0  0  0  0  0
   -0.1720    4.1501    3.6815 C   0  0  0  0  0  0  0  0  0  0  0  0
   -1.4642    4.1388    4.0820 N   0  0  0  0  0  0  0  0  0  0  0  0
   -3.0813    2.9421    4.5270 H   0  0  0  0  0  0  0  0  0  0  0  0
   -1.9227    0.7821    4.0869 H   0  0  0  0  0  0  0  0  0  0  0  0
    2.3138    0.8116    1.7379 H   0  0  0  0  0  0  0  0  0  0  0  0
    5.7586   -2.7365    1.6934 H   0  0  0  0  0  0  0  0  0  0  0  0
    4.6622   -3.9994    1.2104 H   0  0  0  0  0  0  0  0  0  0  0  0
    6.4441   -3.6215   -0.4917 H   0  0  0  0  0  0  0  0  0  0  0  0
    5.0552   -3.9205   -2.3672 H   0  0  0  0  0  0  0  0  0  0  0  0
    3.8340   -4.1957   -1.1163 H   0  0  0  0  0  0  0  0  0  0  0  0
    4.0538   -1.9835   -3.0005 H   0  0  0  0  0  0  0  0  0  0  0  0
    2.7895   -2.1779   -1.7722 H   0  0  0  0  0  0  0  0  0  0  0  0
    4.6664   -0.1860   -1.6365 H   0  0  0  0  0  0  0  0  0  0  0  0
    2.8620   -0.5372    0.0773 H   0  0  0  0  0  0  0  0  0  0  0  0
    4.3877   -0.0250    0.8114 H   0  0  0  0  0  0  0  0  0  0  0  0
    1.8057   -4.7648    3.8650 H   0  0  0  0  0  0  0  0  0  0  0  0
    1.6040    3.0789    3.0857 H   0  0  0  0  0  0  0  0  0  0  0  0
    0.2744    5.1291    3.5742 H   0  0  0  0  0  0  0  0  0  0  0  0
  1 23  2  0
  1  2  1  0
  1 24  1  0
  2  3  2  0
  2 25  1  0
  3  4  1  0
  3 21  1  0
  4 20  1  0
  4  5  2  0
  5  6  1  0
  5 26  1  0
  6 19  2  0
  6  7  1  0
  7  8  1  0
  7 16  2  0
  8 14  1  0
  8  9  1  0
  9 10  1  0
  9 27  1  0
  9 28  1  0
 10 15  1  0
 10 11  1  0
 10 29  1  1
 11 12  1  0
 11 30  1  0
 11 31  1  0
 12 13  1  0
 12 32  1  0
 12 33  1  0
 13 14  1  0
 13 15  1  0
 13 34  1  6
 14 35  1  0
 14 36  1  0
 16 17  1  0
 17 18  2  0
 17 37  1  0
 18 19  1  0
 19 20  1  0
 21 22  2  0
 21 38  1  0
 22 23  1  0
 22 39  1  0
M  END
>  <i_m_ct_stereo_status>  (160) 
1

>  <s_m_source_file>  (160) 
/var/tmp/pbs.5076255.sched01/tmpqwfmwtcs/46j3o47u_k.sdf

>  <i_m_source_file_index>  (160) 
15

>  <i_lp_mmshare_version>  (160) 
48012

>  <i_f3d_flags>  (160) 
0

>  <s_epik_input>  (160) 
W2NIXTFbY0hdbltjSF1bY0hdYzEtYyhbY0hdMilvYyhjMjMpbltjSF1uYzNOKFtDSDJdW0NAQEhdNDUpW0NIMl1bQ0hdKE81KVtDSDJdW0NIMl00

>  <s_epik_cmdline>  (160) 
J2VwaWtfcHl0aG9uJywgJy1waHQnLCAnMi4wJywgJy1waCcsICc3LjAnLCAnLXRuJywgJzgnLCAnLW1hJywgJzIwMCcsICctaW1hZScsICc8aW5maWxlLm1hZT4nLCAnLW9tYWUnLCAnPG91dGZpbGUubWFlPic=

>  <r_epik_Ionization_Penalty>  (160) 
0.00590411

>  <r_epik_Ionization_Penalty_Charging>  (160) 
0

>  <r_epik_Ionization_Penalty_Neutral>  (160) 
0.00590411

>  <r_epik_State_Penalty>  (160) 
0.00429215

>  <r_epik_Charging_Adjusted_Penalty>  (160) 
0.00429215

>  <i_epik_Tot_Q>  (160) 
0

>  <i_epik_Tot_abs_Q>  (160) 
0

>  <s_lp_Force_Field>  (160) 
OPLS3e

>  <r_lp_Energy>  (160) 
51.6149

>  <b_lp_Chiralities_Consistent>  (160) 
1

>  <s_lp_Variant>  (160) 
42:0-1

>  <s_i_glide_gridfile>  (160) 
pfpi4k_grid

>  <i_i_glide_lignum>  (160) 
15

>  <i_i_glide_rotatable_bonds>  (160) 
2

>  <r_i_docking_score>  (160) 
-2.95611

>  <r_i_glide_ligand_efficiency>  (160) 
-0.128527

>  <r_i_glide_ligand_efficiency_sa>  (160) 
-0.365512

>  <r_i_glide_ligand_efficiency_ln>  (160) 
-0.714814

>  <r_i_glide_gscore>  (160) 
-2.95611

>  <r_i_glide_lipo>  (160) 
-0.0612639

>  <r_i_glide_hbond>  (160) 
-0.0336234

>  <r_i_glide_metal>  (160) 
-0

>  <r_i_glide_rewards>  (160) 
-1.31547

>  <r_i_glide_evdw>  (160) 
-26.5376

>  <r_i_glide_ecoul>  (160) 
-3.9677

>  <r_i_glide_erotb>  (160) 
0.389187

>  <r_i_glide_esite>  (160) 
-0.0129019

>  <r_i_glide_emodel>  (160) 
-36.148

>  <r_i_glide_energy>  (160) 
-30.5053

>  <r_i_glide_einternal>  (160) 
1.00458

>  <r_i_glide_intrahb_reward>  (160) 
-0

>  <i_i_glide_confnum>  (160) 
4

>  <i_i_glide_posenum>  (160) 
8

>  <r_i_glide_eff_state_penalty>  (160) 
0

>  <ligand_id>  (160) 
42

>  <original_smiles>  (160) 
c1cc(-c2cc3c(N4CC5CCC(C4)O5)ncnc3o2)ccn1

>  <smiles>  (160) 
[H]c1nc(N2C([H])([H])C3([H])OC([H])(C2([H])[H])C([H])([H])C3([H])[H])c2c([H])c(-c3c([H])c([H])nc([H])c3[H])oc2n1

$$$$
43:0:0
     RDKit          3D

 79 85  0  0  1  0  0  0  0  0999 V2000
    0.2593   -9.0215    6.8630 C   0  0  0  0  0  0  0  0  0  0  0  0
    0.7877   -7.8946    5.9924 C   0  0  0  0  0  0  0  0  0  0  0  0
    2.1048   -7.4540    5.9235 C   0  0  0  0  0  0  0  0  0  0  0  0
    3.0968   -8.5365    6.1276 C   0  0  0  0  0  0  0  0  0  0  0  0
    2.7480   -9.5559    5.0146 C   0  0  0  0  0  0  0  0  0  0  0  0
    2.2124   -9.0835    3.5935 C   0  0  1  0  0  0  0  0  0  0  0  0
    1.8288  -10.4026    2.8743 C   0  0  0  0  0  0  0  0  0  0  0  0
    1.1360   -7.8781    3.2448 C   0  0  2  0  0  0  0  0  0  0  0  0
    1.5146   -7.4313    1.8240 C   0  0  0  0  0  0  0  0  0  0  0  0
    2.9286   -6.7671    1.6975 C   0  0  0  0  0  0  0  0  0  0  0  0
    3.3748   -5.5249    2.5797 C   0  0  1  0  0  0  0  0  0  0  0  0
    4.5516   -4.8988    1.6696 C   0  0  0  0  0  0  0  0  0  0  0  0
    5.7093   -4.9666    2.0721 O   0  0  0  0  0  0  0  0  0  0  0  0
    4.3395   -4.4097    0.4040 N   0  0  0  0  0  0  0  0  0  0  0  0
    3.1405   -3.7034   -0.1105 C   0  0  0  0  0  0  0  0  0  0  0  0
    3.5508   -2.3203   -0.6137 C   0  0  0  0  0  0  0  0  0  0  0  0
    4.5648   -2.4279   -1.7645 C   0  0  0  0  0  0  0  0  0  0  0  0
    5.8072   -3.1896   -1.2714 C   0  0  0  0  0  0  0  0  0  0  0  0
    5.3980   -4.5483   -0.6401 C   0  0  0  0  0  0  0  0  0  0  0  0
    3.9862   -3.0870   -2.8421 O   0  0  0  0  0  0  0  0  0  0  0  0
    3.1868   -2.1068   -3.4744 C   0  0  0  0  0  0  0  0  0  0  0  0
    4.0339   -0.8473   -3.2639 C   0  0  0  0  0  0  0  0  0  0  0  0
    4.9228   -1.1536   -2.1979 O   0  0  0  0  0  0  0  0  0  0  0  0
    2.2469   -4.4631    2.6073 C   0  0  0  0  0  0  0  0  0  0  0  0
    1.5164   -4.1970    3.8966 C   0  0  0  0  0  0  0  0  0  0  0  0
    1.2782   -5.4427    4.7394 C   0  0  1  0  0  0  0  0  0  0  0  0
    0.4658   -4.8306    5.9249 C   0  0  0  0  0  0  0  0  0  0  0  0
    0.5276   -6.5615    3.9929 C   0  0  2  0  0  0  0  0  0  0  0  0
   -0.2059   -7.4831    4.9030 C   0  0  1  0  0  0  0  0  0  0  0  0
   -0.2856   -8.3732    3.6321 C   0  0  0  0  0  0  0  0  0  0  0  0
    2.5676   -6.1132    5.2064 C   0  0  2  0  0  0  0  0  0  0  0  0
    3.8106   -5.8713    4.1371 C   0  0  0  0  0  0  0  0  0  0  0  0
    4.9303   -6.9484    4.1840 C   0  0  0  0  0  0  0  0  0  0  0  0
    4.5640   -4.6056    4.7033 C   0  0  0  0  0  0  0  0  0  0  0  0
   -0.5602   -8.6467    7.4744 H   0  0  0  0  0  0  0  0  0  0  0  0
    0.9874   -9.4176    7.5652 H   0  0  0  0  0  0  0  0  0  0  0  0
   -0.1295   -9.8459    6.2649 H   0  0  0  0  0  0  0  0  0  0  0  0
    4.1200   -8.1852    6.1360 H   0  0  0  0  0  0  0  0  0  0  0  0
    2.9937   -8.9867    7.1104 H   0  0  0  0  0  0  0  0  0  0  0  0
    3.6344  -10.1640    4.8624 H   0  0  0  0  0  0  0  0  0  0  0  0
    2.0401  -10.2748    5.4287 H   0  0  0  0  0  0  0  0  0  0  0  0
    3.1226   -8.8774    3.0640 H   0  0  0  0  0  0  0  0  0  0  0  0
    1.0559  -10.9689    3.3933 H   0  0  0  0  0  0  0  0  0  0  0  0
    2.6888  -11.0697    2.8004 H   0  0  0  0  0  0  0  0  0  0  0  0
    1.4846  -10.2455    1.8558 H   0  0  0  0  0  0  0  0  0  0  0  0
    1.4516   -8.2589    1.1181 H   0  0  0  0  0  0  0  0  0  0  0  0
    0.7725   -6.7416    1.4354 H   0  0  0  0  0  0  0  0  0  0  0  0
    3.7159   -7.5100    1.7457 H   0  0  0  0  0  0  0  0  0  0  0  0
    2.9686   -6.5127    0.6371 H   0  0  0  0  0  0  0  0  0  0  0  0
    2.6587   -4.3104   -0.8910 H   0  0  0  0  0  0  0  0  0  0  0  0
    2.3990   -3.3838    0.5998 H   0  0  0  0  0  0  0  0  0  0  0  0
    2.6510   -1.7896   -0.9246 H   0  0  0  0  0  0  0  0  0  0  0  0
    3.9873   -1.7030    0.1774 H   0  0  0  0  0  0  0  0  0  0  0  0
    6.5052   -3.3369   -2.1093 H   0  0  0  0  0  0  0  0  0  0  0  0
    6.3198   -2.5837   -0.5247 H   0  0  0  0  0  0  0  0  0  0  0  0
    6.2968   -5.0526   -0.2824 H   0  0  0  0  0  0  0  0  0  0  0  0
    5.0135   -5.2022   -1.4246 H   0  0  0  0  0  0  0  0  0  0  0  0
    2.9865   -2.3354   -4.5203 H   0  0  0  0  0  0  0  0  0  0  0  0
    2.2156   -2.0260   -2.9855 H   0  0  0  0  0  0  0  0  0  0  0  0
    4.6232   -0.6386   -4.1551 H   0  0  0  0  0  0  0  0  0  0  0  0
    3.4228    0.0268   -3.0412 H   0  0  0  0  0  0  0  0  0  0  0  0
    2.6547   -3.4876    2.3912 H   0  0  0  0  0  0  0  0  0  0  0  0
    1.4798   -4.6947    1.8827 H   0  0  0  0  0  0  0  0  0  0  0  0
    2.0619   -3.4592    4.4735 H   0  0  0  0  0  0  0  0  0  0  0  0
    0.5690   -3.7061    3.6543 H   0  0  0  0  0  0  0  0  0  0  0  0
    0.2712   -5.5208    6.7463 H   0  0  0  0  0  0  0  0  0  0  0  0
   -0.5029   -4.4565    5.5805 H   0  0  0  0  0  0  0  0  0  0  0  0
    0.9892   -3.9810    6.3690 H   0  0  0  0  0  0  0  0  0  0  0  0
   -0.1971   -6.0706    3.3441 H   0  0  0  0  0  0  0  0  0  0  0  0
   -1.1649   -7.1078    5.2707 H   0  0  0  0  0  0  0  0  0  0  0  0
   -1.0600   -8.0675    2.9198 H   0  0  0  0  0  0  0  0  0  0  0  0
   -0.3994   -9.4287    3.8569 H   0  0  0  0  0  0  0  0  0  0  0  0
    2.8542   -5.5755    6.1068 H   0  0  0  0  0  0  0  0  0  0  0  0
    5.4668   -6.9192    5.1335 H   0  0  0  0  0  0  0  0  0  0  0  0
    5.7043   -6.8326    3.4334 H   0  0  0  0  0  0  0  0  0  0  0  0
    4.5999   -7.9551    4.0301 H   0  0  0  0  0  0  0  0  0  0  0  0
    4.5647   -4.5338    5.7892 H   0  0  0  0  0  0  0  0  0  0  0  0
    4.1838   -3.6570    4.3361 H   0  0  0  0  0  0  0  0  0  0  0  0
    5.6259   -4.5958    4.4547 H   0  0  0  0  0  0  0  0  0  0  0  0
  1  2  1  0
  1 35  1  0
  1 36  1  0
  1 37  1  0
  2 29  1  0
  2  3  2  0
  3 31  1  0
  3  4  1  0
  4  5  1  0
  4 38  1  0
  4 39  1  0
  5  6  1  0
  5 40  1  0
  5 41  1  0
  6  7  1  0
  6  8  1  0
  6 42  1  6
  7 43  1  0
  7 44  1  0
  7 45  1  0
  8 28  1  0
  8 30  1  6
  8  9  1  0
  9 10  1  0
  9 46  1  0
  9 47  1  0
 10 11  1  0
 10 48  1  0
 10 49  1  0
 11 32  1  0
 11 12  1  6
 11 24  1  0
 12 13  2  0
 12 14  1  0
 14 19  1  0
 14 15  1  0
 15 16  1  0
 15 50  1  0
 15 51  1  0
 16 17  1  0
 16 52  1  0
 16 53  1  0
 17 23  1  0
 17 18  1  0
 17 20  1  0
 18 19  1  0
 18 54  1  0
 18 55  1  0
 19 56  1  0
 19 57  1  0
 20 21  1  0
 21 22  1  0
 21 58  1  0
 21 59  1  0
 22 23  1  0
 22 60  1  0
 22 61  1  0
 24 25  1  0
 24 62  1  0
 24 63  1  0
 25 26  1  0
 25 64  1  0
 25 65  1  0
 26 27  1  1
 26 28  1  0
 26 31  1  0
 27 66  1  0
 27 67  1  0
 27 68  1  0
 28 29  1  0
 28 69  1  6
 29 30  1  0
 29 70  1  1
 30 71  1  0
 30 72  1  0
 31 32  1  0
 31 73  1  1
 32 33  1  0
 32 34  1  0
 33 74  1  0
 33 75  1  0
 33 76  1  0
 34 77  1  0
 34 78  1  0
 34 79  1  0
M  END
>  <i_m_ct_stereo_status>  (161) 
1

>  <s_m_source_file>  (161) 
/var/tmp/pbs.5076255.sched01/tmpqwfmwtcs/46j3o47u_k.sdf

>  <i_m_source_file_index>  (161) 
16

>  <i_lp_mmshare_version>  (161) 
48012

>  <i_f3d_flags>  (161) 
0

>  <s_epik_input>  (161) 
W0NIM11bQ0BASF0xW0NIMl1bQ0gyXUMoPUMoW0NIM10pW0NAQEhdMltDSDJdMylbQ0BIXShbQ0BdNChbQ0gzXSlbQ0BIXTJbQ0BAXTEzNSlDKFtDSDNdKShbQ0gzXSlbQ0BAXShbQ0gyXVtDSDJdNSkoW0NIMl1bQ0gyXTQpQyg9TylOKFtDSDJdW0NIMl02KVtDSDJdW0NIMl1DNjdPW0NIMl1bQ0gyXU83

>  <s_epik_cmdline>  (161) 
J2VwaWtfcHl0aG9uJywgJy1waHQnLCAnMi4wJywgJy1waCcsICc3LjAnLCAnLXRuJywgJzgnLCAnLW1hJywgJzIwMCcsICctaW1hZScsICc8aW5maWxlLm1hZT4nLCAnLW9tYWUnLCAnPG91dGZpbGUubWFlPic=

>  <r_lp_tautomer_probability>  (161) 
1

>  <r_epik_Ionization_Penalty>  (161) 
2.07274e-08

>  <r_epik_Ionization_Penalty_Charging>  (161) 
0

>  <r_epik_Ionization_Penalty_Neutral>  (161) 
2.07274e-08

>  <r_epik_State_Penalty>  (161) 
-0

>  <r_epik_Charging_Adjusted_Penalty>  (161) 
0

>  <i_epik_Tot_Q>  (161) 
0

>  <i_epik_Tot_abs_Q>  (161) 
0

>  <s_lp_Force_Field>  (161) 
OPLS3e

>  <r_lp_Energy>  (161) 
205.156

>  <b_lp_Chiralities_Consistent>  (161) 
1

>  <s_lp_Variant>  (161) 
43:0-1

>  <s_i_glide_gridfile>  (161) 
pfpi4k_grid

>  <i_i_glide_lignum>  (161) 
16

>  <i_i_glide_rotatable_bonds>  (161) 
2

>  <r_i_docking_score>  (161) 
-2.75794

>  <r_i_glide_ligand_efficiency>  (161) 
-0.081116

>  <r_i_glide_ligand_efficiency_sa>  (161) 
-0.262784

>  <r_i_glide_ligand_efficiency_ln>  (161) 
-0.609307

>  <r_i_glide_gscore>  (161) 
-2.75794

>  <r_i_glide_lipo>  (161) 
-0.594201

>  <r_i_glide_hbond>  (161) 
0

>  <r_i_glide_metal>  (161) 
-0

>  <r_i_glide_rewards>  (161) 
-0.299385

>  <r_i_glide_evdw>  (161) 
-37.3972

>  <r_i_glide_ecoul>  (161) 
-1.11011

>  <r_i_glide_erotb>  (161) 
0.18456

>  <r_i_glide_esite>  (161) 
-0.012541

>  <r_i_glide_emodel>  (161) 
-39.4378

>  <r_i_glide_energy>  (161) 
-38.5073

>  <r_i_glide_einternal>  (161) 
7.20066

>  <r_i_glide_intrahb_reward>  (161) 
-0

>  <i_i_glide_confnum>  (161) 
5

>  <i_i_glide_posenum>  (161) 
6

>  <r_i_glide_eff_state_penalty>  (161) 
0

>  <ligand_id>  (161) 
43

>  <original_smiles>  (161) 
CC1=C2CCC(C)C34CCC5(C(=O)N6CCC7(CC6)OCCO7)CCC(C)(C3C1C4)C2C5(C)C

>  <smiles>  (161) 
[H]C([H])([H])C1=C2C([H])([H])C([H])([H])C([H])(C([H])([H])[H])C34C([H])([H])C([H])([H])C5(C(=O)N6C([H])([H])C([H])([H])C7(OC([H])([H])C([H])([H])O7)C([H])([H])C6([H])[H])C([H])([H])C([H])([H])C(C([H])([H])[H])(C2([H])C5(C([H])([H])[H])C([H])([H])[H])C3([H])C1([H])C4([H])[H]

$$$$
43:0:1
     RDKit          3D

 79 85  0  0  1  0  0  0  0  0999 V2000
    0.2191   -9.4240    6.7895 C   0  0  0  0  0  0  0  0  0  0  0  0
    0.8011   -8.2454    6.0141 C   0  0  0  0  0  0  0  0  0  0  0  0
    2.0917   -7.7474    6.1243 C   0  0  0  0  0  0  0  0  0  0  0  0
    3.0991   -8.7879    6.4354 C   0  0  0  0  0  0  0  0  0  0  0  0
    2.9455   -9.8037    5.2695 C   0  0  0  0  0  0  0  0  0  0  0  0
    2.5695   -9.3211    3.8050 C   0  0  1  0  0  0  0  0  0  0  0  0
    2.3521  -10.6421    3.0168 C   0  0  0  0  0  0  0  0  0  0  0  0
    1.4967   -8.1599    3.3476 C   0  0  2  0  0  0  0  0  0  0  0  0
    2.0275   -7.6767    1.9982 C   0  0  0  0  0  0  0  0  0  0  0  0
    3.4201   -6.9658    2.0715 C   0  0  0  0  0  0  0  0  0  0  0  0
    3.6835   -5.7001    3.0012 C   0  0  1  0  0  0  0  0  0  0  0  0
    4.9354   -5.0270    2.2716 C   0  0  0  0  0  0  0  0  0  0  0  0
    6.0364   -5.0366    2.8302 O   0  0  0  0  0  0  0  0  0  0  0  0
    4.8815   -4.4562    1.0186 N   0  0  0  0  0  0  0  0  0  0  0  0
    3.7079   -4.4069    0.1048 C   0  0  0  0  0  0  0  0  0  0  0  0
    3.3986   -2.9627   -0.2777 C   0  0  0  0  0  0  0  0  0  0  0  0
    4.6021   -2.3769   -1.0321 C   0  0  0  0  0  0  0  0  0  0  0  0
    5.8649   -2.4662   -0.1478 C   0  0  0  0  0  0  0  0  0  0  0  0
    6.0832   -3.9138    0.3515 C   0  0  0  0  0  0  0  0  0  0  0  0
    4.8143   -3.0703   -2.2161 O   0  0  0  0  0  0  0  0  0  0  0  0
    3.8679   -2.5343   -3.1202 C   0  0  0  0  0  0  0  0  0  0  0  0
    3.8012   -1.0709   -2.6660 C   0  0  0  0  0  0  0  0  0  0  0  0
    4.3595   -1.0648   -1.3586 O   0  0  0  0  0  0  0  0  0  0  0  0
    2.5255   -4.6651    2.8589 C   0  0  0  0  0  0  0  0  0  0  0  0
    1.6391   -4.4543    4.0928 C   0  0  0  0  0  0  0  0  0  0  0  0
    1.3421   -5.7405    4.8706 C   0  0  1  0  0  0  0  0  0  0  0  0
    0.3550   -5.2057    5.9556 C   0  0  0  0  0  0  0  0  0  0  0  0
    0.7336   -6.8780    4.0202 C   0  0  2  0  0  0  0  0  0  0  0  0
   -0.0632   -7.8515    4.8229 C   0  0  1  0  0  0  0  0  0  0  0  0
    0.0526   -8.7224    3.5448 C   0  0  0  0  0  0  0  0  0  0  0  0
    2.5827   -6.3716    5.4888 C   0  0  2  0  0  0  0  0  0  0  0  0
    3.9345   -6.0601    4.5904 C   0  0  0  0  0  0  0  0  0  0  0  0
    5.0884   -7.0861    4.7824 C   0  0  0  0  0  0  0  0  0  0  0  0
    4.5515   -4.7777    5.2728 C   0  0  0  0  0  0  0  0  0  0  0  0
   -0.6891   -9.0834    7.2819 H   0  0  0  0  0  0  0  0  0  0  0  0
    0.8652   -9.7961    7.5764 H   0  0  0  0  0  0  0  0  0  0  0  0
   -0.0471  -10.2543    6.1349 H   0  0  0  0  0  0  0  0  0  0  0  0
    4.0969   -8.3981    6.5902 H   0  0  0  0  0  0  0  0  0  0  0  0
    2.8858   -9.2728    7.3862 H   0  0  0  0  0  0  0  0  0  0  0  0
    3.8698  -10.3701    5.2230 H   0  0  0  0  0  0  0  0  0  0  0  0
    2.2165  -10.5537    5.5769 H   0  0  0  0  0  0  0  0  0  0  0  0
    3.5364   -9.0698    3.4029 H   0  0  0  0  0  0  0  0  0  0  0  0
    1.5441  -11.2471    3.4248 H   0  0  0  0  0  0  0  0  0  0  0  0
    3.2439  -11.2667    3.0502 H   0  0  0  0  0  0  0  0  0  0  0  0
    2.1409  -10.4779    1.9671 H   0  0  0  0  0  0  0  0  0  0  0  0
    2.0994   -8.4980    1.2841 H   0  0  0  0  0  0  0  0  0  0  0  0
    1.3191   -7.0129    1.5270 H   0  0  0  0  0  0  0  0  0  0  0  0
    4.2354   -7.6660    2.2189 H   0  0  0  0  0  0  0  0  0  0  0  0
    3.6017   -6.7435    1.0258 H   0  0  0  0  0  0  0  0  0  0  0  0
    3.9523   -5.0277   -0.7638 H   0  0  0  0  0  0  0  0  0  0  0  0
    2.7217   -4.8137    0.5217 H   0  0  0  0  0  0  0  0  0  0  0  0
    2.4711   -2.9147   -0.8678 H   0  0  0  0  0  0  0  0  0  0  0  0
    3.2007   -2.3452    0.6060 H   0  0  0  0  0  0  0  0  0  0  0  0
    6.7388   -2.0871   -0.7070 H   0  0  0  0  0  0  0  0  0  0  0  0
    5.7392   -1.7968    0.7108 H   0  0  0  0  0  0  0  0  0  0  0  0
    6.9843   -3.9044    0.9583 H   0  0  0  0  0  0  0  0  0  0  0  0
    6.3372   -4.5489   -0.4988 H   0  0  0  0  0  0  0  0  0  0  0  0
    4.1500   -2.6588   -4.1681 H   0  0  0  0  0  0  0  0  0  0  0  0
    2.9085   -3.0386   -3.0040 H   0  0  0  0  0  0  0  0  0  0  0  0
    4.4068   -0.4345   -3.3115 H   0  0  0  0  0  0  0  0  0  0  0  0
    2.7791   -0.6887   -2.6619 H   0  0  0  0  0  0  0  0  0  0  0  0
    2.8646   -3.6707    2.5880 H   0  0  0  0  0  0  0  0  0  0  0  0
    1.8532   -4.9863    2.1168 H   0  0  0  0  0  0  0  0  0  0  0  0
    2.0651   -3.7040    4.7448 H   0  0  0  0  0  0  0  0  0  0  0  0
    0.6958   -4.0082    3.7485 H   0  0  0  0  0  0  0  0  0  0  0  0
    0.0864   -5.9250    6.7253 H   0  0  0  0  0  0  0  0  0  0  0  0
   -0.5724   -4.8718    5.4917 H   0  0  0  0  0  0  0  0  0  0  0  0
    0.7707   -4.3493    6.4801 H   0  0  0  0  0  0  0  0  0  0  0  0
    0.0653   -6.4220    3.2979 H   0  0  0  0  0  0  0  0  0  0  0  0
   -1.0854   -7.5339    5.0629 H   0  0  0  0  0  0  0  0  0  0  0  0
   -0.6255   -8.4350    2.7416 H   0  0  0  0  0  0  0  0  0  0  0  0
   -0.0316   -9.7882    3.7470 H   0  0  0  0  0  0  0  0  0  0  0  0
    2.7282   -5.8524    6.4265 H   0  0  0  0  0  0  0  0  0  0  0  0
    5.4912   -7.0430    5.7967 H   0  0  0  0  0  0  0  0  0  0  0  0
    5.9548   -6.9283    4.1487 H   0  0  0  0  0  0  0  0  0  0  0  0
    4.8295   -8.1024    4.5708 H   0  0  0  0  0  0  0  0  0  0  0  0
    4.4185   -4.7370    6.3509 H   0  0  0  0  0  0  0  0  0  0  0  0
    4.1783   -3.8403    4.8745 H   0  0  0  0  0  0  0  0  0  0  0  0
    5.6352   -4.7201    5.1599 H   0  0  0  0  0  0  0  0  0  0  0  0
  1  2  1  0
  1 35  1  0
  1 36  1  0
  1 37  1  0
  2 29  1  0
  2  3  2  0
  3 31  1  0
  3  4  1  0
  4  5  1  0
  4 38  1  0
  4 39  1  0
  5  6  1  0
  5 40  1  0
  5 41  1  0
  6  7  1  0
  6  8  1  0
  6 42  1  6
  7 43  1  0
  7 44  1  0
  7 45  1  0
  8 28  1  0
  8 30  1  6
  8  9  1  0
  9 10  1  0
  9 46  1  0
  9 47  1  0
 10 11  1  0
 10 48  1  0
 10 49  1  0
 11 32  1  0
 11 12  1  6
 11 24  1  0
 12 13  2  0
 12 14  1  0
 14 19  1  0
 14 15  1  0
 15 16  1  0
 15 50  1  0
 15 51  1  0
 16 17  1  0
 16 52  1  0
 16 53  1  0
 17 23  1  0
 17 18  1  0
 17 20  1  0
 18 19  1  0
 18 54  1  0
 18 55  1  0
 19 56  1  0
 19 57  1  0
 20 21  1  0
 21 22  1  0
 21 58  1  0
 21 59  1  0
 22 23  1  0
 22 60  1  0
 22 61  1  0
 24 25  1  0
 24 62  1  0
 24 63  1  0
 25 26  1  0
 25 64  1  0
 25 65  1  0
 26 27  1  1
 26 28  1  0
 26 31  1  0
 27 66  1  0
 27 67  1  0
 27 68  1  0
 28 29  1  0
 28 69  1  6
 29 30  1  0
 29 70  1  1
 30 71  1  0
 30 72  1  0
 31 32  1  0
 31 73  1  1
 32 33  1  0
 32 34  1  0
 33 74  1  0
 33 75  1  0
 33 76  1  0
 34 77  1  0
 34 78  1  0
 34 79  1  0
M  END
>  <i_m_ct_stereo_status>  (162) 
1

>  <s_m_source_file>  (162) 
/var/tmp/pbs.5076255.sched01/tmpqwfmwtcs/46j3o47u_k.sdf

>  <i_m_source_file_index>  (162) 
16

>  <i_lp_mmshare_version>  (162) 
48012

>  <i_f3d_flags>  (162) 
0

>  <s_epik_input>  (162) 
W0NIM11bQ0BASF0xW0NIMl1bQ0gyXUMoPUMoW0NIM10pW0NAQEhdMltDSDJdMylbQ0BIXShbQ0BdNChbQ0gzXSlbQ0BIXTJbQ0BAXTEzNSlDKFtDSDNdKShbQ0gzXSlbQ0BAXShbQ0gyXVtDSDJdNSkoW0NIMl1bQ0gyXTQpQyg9TylOKFtDSDJdW0NIMl02KVtDSDJdW0NIMl1DNjdPW0NIMl1bQ0gyXU83

>  <s_epik_cmdline>  (162) 
J2VwaWtfcHl0aG9uJywgJy1waHQnLCAnMi4wJywgJy1waCcsICc3LjAnLCAnLXRuJywgJzgnLCAnLW1hJywgJzIwMCcsICctaW1hZScsICc8aW5maWxlLm1hZT4nLCAnLW9tYWUnLCAnPG91dGZpbGUubWFlPic=

>  <r_lp_tautomer_probability>  (162) 
1

>  <r_epik_Ionization_Penalty>  (162) 
2.07274e-08

>  <r_epik_Ionization_Penalty_Charging>  (162) 
0

>  <r_epik_Ionization_Penalty_Neutral>  (162) 
2.07274e-08

>  <r_epik_State_Penalty>  (162) 
-0

>  <r_epik_Charging_Adjusted_Penalty>  (162) 
0

>  <i_epik_Tot_Q>  (162) 
0

>  <i_epik_Tot_abs_Q>  (162) 
0

>  <s_lp_Force_Field>  (162) 
OPLS3e

>  <r_lp_Energy>  (162) 
205.156

>  <b_lp_Chiralities_Consistent>  (162) 
1

>  <s_lp_Variant>  (162) 
43:0-1

>  <s_i_glide_gridfile>  (162) 
pfpi4k_grid

>  <i_i_glide_lignum>  (162) 
16

>  <i_i_glide_rotatable_bonds>  (162) 
2

>  <r_i_docking_score>  (162) 
-2.21655

>  <r_i_glide_ligand_efficiency>  (162) 
-0.0651926

>  <r_i_glide_ligand_efficiency_sa>  (162) 
-0.211199

>  <r_i_glide_ligand_efficiency_ln>  (162) 
-0.489698

>  <r_i_glide_gscore>  (162) 
-2.21655

>  <r_i_glide_lipo>  (162) 
-0.24491

>  <r_i_glide_hbond>  (162) 
0

>  <r_i_glide_metal>  (162) 
-0

>  <r_i_glide_rewards>  (162) 
-0.286894

>  <r_i_glide_evdw>  (162) 
-35.931

>  <r_i_glide_ecoul>  (162) 
-0.359983

>  <r_i_glide_erotb>  (162) 
0.18456

>  <r_i_glide_esite>  (162) 
-0.0187572

>  <r_i_glide_emodel>  (162) 
-40.5088

>  <r_i_glide_energy>  (162) 
-36.291

>  <r_i_glide_einternal>  (162) 
0.0503059

>  <r_i_glide_intrahb_reward>  (162) 
-0

>  <i_i_glide_confnum>  (162) 
5

>  <i_i_glide_posenum>  (162) 
5

>  <r_i_glide_eff_state_penalty>  (162) 
0

>  <ligand_id>  (162) 
43

>  <original_smiles>  (162) 
CC1=C2CCC(C)C34CCC5(C(=O)N6CCC7(CC6)OCCO7)CCC(C)(C3C1C4)C2C5(C)C

>  <smiles>  (162) 
[H]C([H])([H])C1=C2C([H])([H])C([H])([H])C([H])(C([H])([H])[H])C34C([H])([H])C([H])([H])C5(C(=O)N6C([H])([H])C([H])([H])C7(OC([H])([H])C([H])([H])O7)C([H])([H])C6([H])[H])C([H])([H])C([H])([H])C(C([H])([H])[H])(C2([H])C5(C([H])([H])[H])C([H])([H])[H])C3([H])C1([H])C4([H])[H]

$$$$
43:0:2
     RDKit          3D

 79 85  0  0  1  0  0  0  0  0999 V2000
    0.1883   -9.5829    6.6336 C   0  0  0  0  0  0  0  0  0  0  0  0
    1.1666   -8.6363    5.9515 C   0  0  0  0  0  0  0  0  0  0  0  0
    2.1950   -8.9896    5.0965 C   0  0  0  0  0  0  0  0  0  0  0  0
    1.9001  -10.1918    4.2769 C   0  0  0  0  0  0  0  0  0  0  0  0
    0.6031   -9.8133    3.5160 C   0  0  0  0  0  0  0  0  0  0  0  0
    0.3219   -8.3185    3.0500 C   0  0  1  0  0  0  0  0  0  0  0  0
   -1.1362   -8.3448    2.5122 C   0  0  0  0  0  0  0  0  0  0  0  0
    0.6438   -6.9150    3.8585 C   0  0  2  0  0  0  0  0  0  0  0  0
    0.8396   -5.8941    2.7436 C   0  0  0  0  0  0  0  0  0  0  0  0
    2.0780   -6.1395    1.8300 C   0  0  0  0  0  0  0  0  0  0  0  0
    3.5461   -6.2488    2.4100 C   0  0  1  0  0  0  0  0  0  0  0  0
    4.4135   -5.8650    1.1283 C   0  0  0  0  0  0  0  0  0  0  0  0
    5.0349   -6.7582    0.5515 O   0  0  0  0  0  0  0  0  0  0  0  0
    4.4651   -4.6020    0.5906 N   0  0  0  0  0  0  0  0  0  0  0  0
    3.7704   -3.3941    1.0829 C   0  0  0  0  0  0  0  0  0  0  0  0
    2.9457   -2.7551   -0.0284 C   0  0  0  0  0  0  0  0  0  0  0  0
    3.8139   -2.4041   -1.2351 C   0  0  0  0  0  0  0  0  0  0  0  0
    4.5574   -3.6419   -1.7225 C   0  0  0  0  0  0  0  0  0  0  0  0
    5.3407   -4.2852   -0.5587 C   0  0  0  0  0  0  0  0  0  0  0  0
    3.0133   -1.9754   -2.2853 O   0  0  0  0  0  0  0  0  0  0  0  0
    3.6946   -0.9153   -2.9150 C   0  0  0  0  0  0  0  0  0  0  0  0
    5.0076   -0.8410   -2.1442 C   0  0  0  0  0  0  0  0  0  0  0  0
    4.6969   -1.4062   -0.8970 O   0  0  0  0  0  0  0  0  0  0  0  0
    3.8144   -5.1279    3.4661 C   0  0  0  0  0  0  0  0  0  0  0  0
    4.0052   -5.5445    4.8991 C   0  0  0  0  0  0  0  0  0  0  0  0
    3.0792   -6.6819    5.3385 C   0  0  1  0  0  0  0  0  0  0  0  0
    3.4395   -6.7856    6.8590 C   0  0  0  0  0  0  0  0  0  0  0  0
    1.5812   -6.4126    5.1015 C   0  0  2  0  0  0  0  0  0  0  0  0
    0.6846   -7.1864    6.0101 C   0  0  1  0  0  0  0  0  0  0  0  0
   -0.4068   -6.7591    4.9921 C   0  0  0  0  0  0  0  0  0  0  0  0
    3.3343   -7.9922    4.6014 C   0  0  2  0  0  0  0  0  0  0  0  0
    3.9003   -7.7246    3.0714 C   0  0  0  0  0  0  0  0  0  0  0  0
    3.6390   -8.8974    2.0721 C   0  0  0  0  0  0  0  0  0  0  0  0
    5.4675   -7.7970    3.2221 C   0  0  0  0  0  0  0  0  0  0  0  0
    0.2326   -9.3953    7.7044 H   0  0  0  0  0  0  0  0  0  0  0  0
    0.4376  -10.6273    6.4874 H   0  0  0  0  0  0  0  0  0  0  0  0
   -0.8388   -9.4338    6.3019 H   0  0  0  0  0  0  0  0  0  0  0  0
    2.7269  -10.5154    3.6589 H   0  0  0  0  0  0  0  0  0  0  0  0
    1.7297  -11.0614    4.9092 H   0  0  0  0  0  0  0  0  0  0  0  0
    0.5374  -10.4648    2.6450 H   0  0  0  0  0  0  0  0  0  0  0  0
   -0.2366  -10.1323    4.1277 H   0  0  0  0  0  0  0  0  0  0  0  0
    0.8314   -8.2888    2.1083 H   0  0  0  0  0  0  0  0  0  0  0  0
   -1.8570   -8.6403    3.2715 H   0  0  0  0  0  0  0  0  0  0  0  0
   -1.2313   -9.0754    1.7095 H   0  0  0  0  0  0  0  0  0  0  0  0
   -1.4732   -7.3992    2.0966 H   0  0  0  0  0  0  0  0  0  0  0  0
   -0.0384   -5.8766    2.1041 H   0  0  0  0  0  0  0  0  0  0  0  0
    0.8908   -4.8895    3.1615 H   0  0  0  0  0  0  0  0  0  0  0  0
    1.9161   -6.9602    1.1349 H   0  0  0  0  0  0  0  0  0  0  0  0
    1.9989   -5.3157    1.1253 H   0  0  0  0  0  0  0  0  0  0  0  0
    3.0373   -3.5431    1.8568 H   0  0  0  0  0  0  0  0  0  0  0  0
    4.5124   -2.6938    1.4669 H   0  0  0  0  0  0  0  0  0  0  0  0
    2.1777   -3.4536   -0.3594 H   0  0  0  0  0  0  0  0  0  0  0  0
    2.4314   -1.8651    0.3332 H   0  0  0  0  0  0  0  0  0  0  0  0
    3.7437   -4.2554   -2.1041 H   0  0  0  0  0  0  0  0  0  0  0  0
    5.2081   -3.4568   -2.5879 H   0  0  0  0  0  0  0  0  0  0  0  0
    6.1612   -3.6315   -0.2550 H   0  0  0  0  0  0  0  0  0  0  0  0
    5.8063   -5.1679   -0.9892 H   0  0  0  0  0  0  0  0  0  0  0  0
    3.8465   -1.1320   -3.9683 H   0  0  0  0  0  0  0  0  0  0  0  0
    3.1306    0.0115   -2.8199 H   0  0  0  0  0  0  0  0  0  0  0  0
    5.7805   -1.4337   -2.6225 H   0  0  0  0  0  0  0  0  0  0  0  0
    5.3900    0.1394   -2.0504 H   0  0  0  0  0  0  0  0  0  0  0  0
    4.6985   -4.5333    3.2289 H   0  0  0  0  0  0  0  0  0  0  0  0
    2.9842   -4.4388    3.4945 H   0  0  0  0  0  0  0  0  0  0  0  0
    5.0484   -5.8057    5.0915 H   0  0  0  0  0  0  0  0  0  0  0  0
    3.8332   -4.6693    5.5304 H   0  0  0  0  0  0  0  0  0  0  0  0
    2.9908   -7.6280    7.3797 H   0  0  0  0  0  0  0  0  0  0  0  0
    3.1348   -5.8818    7.3889 H   0  0  0  0  0  0  0  0  0  0  0  0
    4.5165   -6.8884    7.0038 H   0  0  0  0  0  0  0  0  0  0  0  0
    1.4127   -5.3489    5.2985 H   0  0  0  0  0  0  0  0  0  0  0  0
    0.5722   -6.7760    7.0173 H   0  0  0  0  0  0  0  0  0  0  0  0
   -0.7496   -5.7297    5.1313 H   0  0  0  0  0  0  0  0  0  0  0  0
   -1.2564   -7.4354    4.9697 H   0  0  0  0  0  0  0  0  0  0  0  0
    4.1498   -8.4679    5.1363 H   0  0  0  0  0  0  0  0  0  0  0  0
    4.2001   -9.7886    2.3588 H   0  0  0  0  0  0  0  0  0  0  0  0
    3.9454   -8.7167    1.0489 H   0  0  0  0  0  0  0  0  0  0  0  0
    2.6082   -9.1755    1.9596 H   0  0  0  0  0  0  0  0  0  0  0  0
    5.8075   -8.5164    3.9645 H   0  0  0  0  0  0  0  0  0  0  0  0
    5.9337   -6.8471    3.4724 H   0  0  0  0  0  0  0  0  0  0  0  0
    5.9631   -8.1234    2.3088 H   0  0  0  0  0  0  0  0  0  0  0  0
  1  2  1  0
  1 35  1  0
  1 36  1  0
  1 37  1  0
  2 29  1  0
  2  3  2  0
  3 31  1  0
  3  4  1  0
  4  5  1  0
  4 38  1  0
  4 39  1  0
  5  6  1  0
  5 40  1  0
  5 41  1  0
  6  7  1  0
  6  8  1  0
  6 42  1  6
  7 43  1  0
  7 44  1  0
  7 45  1  0
  8 28  1  0
  8 30  1  1
  8  9  1  0
  9 10  1  0
  9 46  1  0
  9 47  1  0
 10 11  1  0
 10 48  1  0
 10 49  1  0
 11 32  1  0
 11 12  1  6
 11 24  1  0
 12 13  2  0
 12 14  1  0
 14 19  1  0
 14 15  1  0
 15 16  1  0
 15 50  1  0
 15 51  1  0
 16 17  1  0
 16 52  1  0
 16 53  1  0
 17 23  1  0
 17 18  1  0
 17 20  1  0
 18 19  1  0
 18 54  1  0
 18 55  1  0
 19 56  1  0
 19 57  1  0
 20 21  1  0
 21 22  1  0
 21 58  1  0
 21 59  1  0
 22 23  1  0
 22 60  1  0
 22 61  1  0
 24 25  1  0
 24 62  1  0
 24 63  1  0
 25 26  1  0
 25 64  1  0
 25 65  1  0
 26 27  1  1
 26 28  1  0
 26 31  1  0
 27 66  1  0
 27 67  1  0
 27 68  1  0
 28 29  1  0
 28 69  1  1
 29 30  1  0
 29 70  1  1
 30 71  1  0
 30 72  1  0
 31 32  1  0
 31 73  1  1
 32 33  1  0
 32 34  1  0
 33 74  1  0
 33 75  1  0
 33 76  1  0
 34 77  1  0
 34 78  1  0
 34 79  1  0
M  END
>  <i_m_ct_stereo_status>  (163) 
1

>  <s_m_source_file>  (163) 
/var/tmp/pbs.5076255.sched01/tmpqwfmwtcs/46j3o47u_k.sdf

>  <i_m_source_file_index>  (163) 
16

>  <i_lp_mmshare_version>  (163) 
48012

>  <i_f3d_flags>  (163) 
0

>  <s_epik_input>  (163) 
W0NIM11bQ0BASF0xW0NIMl1bQ0gyXUMoPUMoW0NIM10pW0NAQEhdMltDSDJdMylbQ0BIXShbQ0BdNChbQ0gzXSlbQ0BIXTJbQ0BAXTEzNSlDKFtDSDNdKShbQ0gzXSlbQ0BAXShbQ0gyXVtDSDJdNSkoW0NIMl1bQ0gyXTQpQyg9TylOKFtDSDJdW0NIMl02KVtDSDJdW0NIMl1DNjdPW0NIMl1bQ0gyXU83

>  <s_epik_cmdline>  (163) 
J2VwaWtfcHl0aG9uJywgJy1waHQnLCAnMi4wJywgJy1waCcsICc3LjAnLCAnLXRuJywgJzgnLCAnLW1hJywgJzIwMCcsICctaW1hZScsICc8aW5maWxlLm1hZT4nLCAnLW9tYWUnLCAnPG91dGZpbGUubWFlPic=

>  <r_lp_tautomer_probability>  (163) 
1

>  <r_epik_Ionization_Penalty>  (163) 
2.07274e-08

>  <r_epik_Ionization_Penalty_Charging>  (163) 
0

>  <r_epik_Ionization_Penalty_Neutral>  (163) 
2.07274e-08

>  <r_epik_State_Penalty>  (163) 
-0

>  <r_epik_Charging_Adjusted_Penalty>  (163) 
0

>  <i_epik_Tot_Q>  (163) 
0

>  <i_epik_Tot_abs_Q>  (163) 
0

>  <s_lp_Force_Field>  (163) 
OPLS3e

>  <r_lp_Energy>  (163) 
205.156

>  <b_lp_Chiralities_Consistent>  (163) 
1

>  <s_lp_Variant>  (163) 
43:0-1

>  <s_i_glide_gridfile>  (163) 
pfpi4k_grid

>  <i_i_glide_lignum>  (163) 
16

>  <i_i_glide_rotatable_bonds>  (163) 
2

>  <r_i_docking_score>  (163) 
-1.938

>  <r_i_glide_ligand_efficiency>  (163) 
-0.0569999

>  <r_i_glide_ligand_efficiency_sa>  (163) 
-0.184658

>  <r_i_glide_ligand_efficiency_ln>  (163) 
-0.428158

>  <r_i_glide_gscore>  (163) 
-1.938

>  <r_i_glide_lipo>  (163) 
-0.0839203

>  <r_i_glide_hbond>  (163) 
0

>  <r_i_glide_metal>  (163) 
-0

>  <r_i_glide_rewards>  (163) 
-0.364504

>  <r_i_glide_evdw>  (163) 
-32.7578

>  <r_i_glide_ecoul>  (163) 
-0.000499328

>  <r_i_glide_erotb>  (163) 
0.18456

>  <r_i_glide_esite>  (163) 
-0.0361657

>  <r_i_glide_emodel>  (163) 
-35.9123

>  <r_i_glide_energy>  (163) 
-32.7583

>  <r_i_glide_einternal>  (163) 
0.598999

>  <r_i_glide_intrahb_reward>  (163) 
-0

>  <i_i_glide_confnum>  (163) 
3

>  <i_i_glide_posenum>  (163) 
15

>  <r_i_glide_eff_state_penalty>  (163) 
0

>  <ligand_id>  (163) 
43

>  <original_smiles>  (163) 
CC1=C2CCC(C)C34CCC5(C(=O)N6CCC7(CC6)OCCO7)CCC(C)(C3C1C4)C2C5(C)C

>  <smiles>  (163) 
[H]C([H])([H])C1=C2C([H])([H])C([H])([H])C([H])(C([H])([H])[H])C34C([H])([H])C([H])([H])C5(C(=O)N6C([H])([H])C([H])([H])C7(OC([H])([H])C([H])([H])O7)C([H])([H])C6([H])[H])C([H])([H])C([H])([H])C(C([H])([H])[H])(C2([H])C5(C([H])([H])[H])C([H])([H])[H])C3([H])C1([H])C4([H])[H]

$$$$
44:0:0
     RDKit          3D

 63 69  0  0  1  0  0  0  0  0999 V2000
   -1.5521   -7.7446    3.2741 C   0  0  0  0  0  0  0  0  0  0  0  0
   -0.1273   -8.2257    3.6295 C   0  0  1  0  0  0  0  0  0  0  0  0
   -0.1528   -9.6963    4.0479 C   0  0  0  0  0  0  0  0  0  0  0  0
    1.1277  -10.4874    3.7770 C   0  0  0  0  0  0  0  0  0  0  0  0
    2.4344   -9.8302    4.2342 C   0  0  2  0  0  0  0  0  0  0  0  0
    2.8809  -10.3091    5.6304 C   0  0  0  0  0  0  0  0  0  0  0  0
    4.3225   -9.8550    5.8981 C   0  0  0  0  0  0  0  0  0  0  0  0
    4.4784   -8.3378    5.7663 C   0  0  0  0  0  0  0  0  0  0  0  0
    3.9669   -7.7671    4.4122 C   0  0  1  0  0  0  0  0  0  0  0  0
    4.0000   -6.3736    4.6983 O   0  0  0  0  0  0  0  0  0  0  0  0
    4.9745   -8.0181    3.2409 C   0  0  0  0  0  0  0  0  0  0  0  0
    4.7875   -7.2356    1.8869 C   0  0  1  0  0  0  0  0  0  0  0  0
    5.1422   -8.2781    0.8421 C   0  0  0  0  0  0  0  0  0  0  0  0
    3.5444   -6.3494    1.7107 C   0  0  1  0  0  0  0  0  0  0  0  0
    2.3807   -6.5399    2.4982 O   0  0  0  0  0  0  0  0  0  0  0  0
    2.0047   -7.8479    2.6881 C   0  0  2  0  0  0  0  0  0  0  0  0
    0.6510   -8.0689    2.4826 O   0  0  0  0  0  0  0  0  0  0  0  0
    2.4793   -8.2742    4.1332 C   0  0  1  0  0  0  0  0  0  0  0  0
    1.6720   -7.7768    5.1983 O   0  0  0  0  0  0  0  0  0  0  0  0
    0.2716   -7.3561    4.6608 O   0  0  0  0  0  0  0  0  0  0  0  0
    4.2367   -5.0178    2.0765 C   0  0  2  0  0  0  0  0  0  0  0  0
    4.7453   -3.7016    1.4413 C   0  0  1  0  0  0  0  0  0  0  0  0
    5.8058   -3.8749    0.4225 C   0  0  0  0  0  0  0  0  0  0  0  0
    6.0515   -5.3763    0.4515 C   0  0  0  0  0  0  0  0  0  0  0  0
    5.4908   -5.8739    1.7929 C   0  0  2  0  0  0  0  0  0  0  0  0
    6.4830   -5.5832    2.7652 O   0  0  0  0  0  0  0  0  0  0  0  0
    3.3142   -3.9944    1.3379 C   0  0  0  0  0  0  0  0  0  0  0  0
    2.7405   -4.0940   -0.0620 C   0  0  0  0  0  0  0  0  0  0  0  0
    2.3194   -3.3174    2.2444 C   0  0  0  0  0  0  0  0  0  0  0  0
   -1.5360   -6.6858    3.0233 H   0  0  0  0  0  0  0  0  0  0  0  0
   -2.2395   -7.8752    4.1110 H   0  0  0  0  0  0  0  0  0  0  0  0
   -1.9652   -8.2832    2.4187 H   0  0  0  0  0  0  0  0  0  0  0  0
   -0.4433   -9.7825    5.0938 H   0  0  0  0  0  0  0  0  0  0  0  0
   -0.9329  -10.1907    3.4606 H   0  0  0  0  0  0  0  0  0  0  0  0
    1.0339  -11.4856    4.2069 H   0  0  0  0  0  0  0  0  0  0  0  0
    1.1923  -10.6601    2.7026 H   0  0  0  0  0  0  0  0  0  0  0  0
    3.1803  -10.2409    3.5450 H   0  0  0  0  0  0  0  0  0  0  0  0
    2.2200   -9.9196    6.4104 H   0  0  0  0  0  0  0  0  0  0  0  0
    2.8267  -11.3945    5.7031 H   0  0  0  0  0  0  0  0  0  0  0  0
    4.6195  -10.1671    6.9048 H   0  0  0  0  0  0  0  0  0  0  0  0
    4.9979  -10.3675    5.2045 H   0  0  0  0  0  0  0  0  0  0  0  0
    3.9482   -7.8677    6.6017 H   0  0  0  0  0  0  0  0  0  0  0  0
    5.5287   -8.0594    5.9038 H   0  0  0  0  0  0  0  0  0  0  0  0
    3.3823   -6.1895    5.3864 H   0  0  0  0  0  0  0  0  0  0  0  0
    5.9661   -7.8278    3.6447 H   0  0  0  0  0  0  0  0  0  0  0  0
    4.9910   -9.0917    3.0898 H   0  0  0  0  0  0  0  0  0  0  0  0
    4.9696   -7.9118   -0.1664 H   0  0  0  0  0  0  0  0  0  0  0  0
    4.5584   -9.1962    0.9186 H   0  0  0  0  0  0  0  0  0  0  0  0
    6.1949   -8.5637    0.9110 H   0  0  0  0  0  0  0  0  0  0  0  0
    3.2797   -6.4653    0.6473 H   0  0  0  0  0  0  0  0  0  0  0  0
    2.4904   -8.4845    1.9489 H   0  0  0  0  0  0  0  0  0  0  0  0
    4.9903   -2.9322    2.1966 H   0  0  0  0  0  0  0  0  0  0  0  0
    5.4928   -3.4985   -0.5527 H   0  0  0  0  0  0  0  0  0  0  0  0
    6.6856   -3.3287    0.7377 H   0  0  0  0  0  0  0  0  0  0  0  0
    5.4915   -5.7974   -0.3918 H   0  0  0  0  0  0  0  0  0  0  0  0
    7.1054   -5.6245    0.2913 H   0  0  0  0  0  0  0  0  0  0  0  0
    6.0510   -5.6419    3.5941 H   0  0  0  0  0  0  0  0  0  0  0  0
    2.5550   -3.0931   -0.4638 H   0  0  0  0  0  0  0  0  0  0  0  0
    1.8062   -4.6529   -0.0638 H   0  0  0  0  0  0  0  0  0  0  0  0
    3.4345   -4.6041   -0.7370 H   0  0  0  0  0  0  0  0  0  0  0  0
    2.0546   -2.3260    1.8828 H   0  0  0  0  0  0  0  0  0  0  0  0
    2.7462   -3.2213    3.2474 H   0  0  0  0  0  0  0  0  0  0  0  0
    1.4269   -3.9301    2.3398 H   0  0  0  0  0  0  0  0  0  0  0  0
  2  1  1  6
  1 30  1  0
  1 31  1  0
  1 32  1  0
  2 17  1  0
  2 20  1  0
  2  3  1  0
  3  4  1  0
  3 33  1  0
  3 34  1  0
  4  5  1  0
  4 35  1  0
  4 36  1  0
  5 18  1  0
  5  6  1  0
  5 37  1  6
  6  7  1  0
  6 38  1  0
  6 39  1  0
  7  8  1  0
  7 40  1  0
  7 41  1  0
  8  9  1  0
  8 42  1  0
  8 43  1  0
  9 18  1  0
  9 10  1  1
  9 11  1  0
 10 44  1  0
 11 12  1  0
 11 45  1  0
 11 46  1  0
 12 25  1  0
 12 13  1  6
 12 14  1  0
 13 47  1  0
 13 48  1  0
 13 49  1  0
 14 15  1  0
 14 21  1  0
 14 50  1  6
 15 16  1  0
 16 17  1  0
 16 18  1  0
 16 51  1  6
 18 19  1  1
 19 20  1  0
 21 25  1  0
 21 27  1  6
 21 22  1  0
 22 23  1  0
 22 27  1  0
 22 52  1  1
 23 24  1  0
 23 53  1  0
 23 54  1  0
 24 25  1  0
 24 55  1  0
 24 56  1  0
 25 26  1  1
 26 57  1  0
 27 28  1  0
 27 29  1  0
 28 58  1  0
 28 59  1  0
 28 60  1  0
 29 61  1  0
 29 62  1  0
 29 63  1  0
M  END
>  <i_m_ct_stereo_status>  (164) 
1

>  <s_m_source_file>  (164) 
/var/tmp/pbs.5076255.sched01/tmpqwfmwtcs/46j3o47u_k.sdf

>  <i_m_source_file_index>  (164) 
17

>  <i_lp_mmshare_version>  (164) 
48012

>  <i_f3d_flags>  (164) 
0

>  <s_epik_input>  (164) 
W0NAXTEyM1tDQEBIXTRbQ0gyXVtDSDJdW0NAQF0oW0NIM10pKE9PMylPW0NASF0yT1tDQEhdNVtDQEBdNjdbQ0BIXShDNyhbQ0gzXSlbQ0gzXSlbQ0gyXVtDSDJdW0NAXTYoW09IXSlbQ0BAXTUoW0NIM10pW0NIMl1bQ0BdMShbT0hdKVtDSDJdW0NIMl1bQ0gyXTQ=

>  <s_epik_cmdline>  (164) 
J2VwaWtfcHl0aG9uJywgJy1waHQnLCAnMi4wJywgJy1waCcsICc3LjAnLCAnLXRuJywgJzgnLCAnLW1hJywgJzIwMCcsICctaW1hZScsICc8aW5maWxlLm1hZT4nLCAnLW9tYWUnLCAnPG91dGZpbGUubWFlPic=

>  <r_lp_tautomer_probability>  (164) 
1

>  <r_epik_Ionization_Penalty>  (164) 
8.41872e-07

>  <r_epik_Ionization_Penalty_Charging>  (164) 
0

>  <r_epik_Ionization_Penalty_Neutral>  (164) 
8.41872e-07

>  <r_epik_State_Penalty>  (164) 
-0

>  <r_epik_Charging_Adjusted_Penalty>  (164) 
0

>  <i_epik_Tot_Q>  (164) 
0

>  <i_epik_Tot_abs_Q>  (164) 
0

>  <s_epik_Chemistry_Notes>  (164) 
This compound contains an acetal/aminal-like group ( X-CH(R)-Y where X, Y are N, S, or O) that may be acid/base labile, releasing an aldehyde.

>  <s_lp_Force_Field>  (164) 
OPLS3e

>  <r_lp_Energy>  (164) 
92.191

>  <b_lp_Chiralities_Consistent>  (164) 
1

>  <s_lp_Variant>  (164) 
44:0-1

>  <s_i_glide_gridfile>  (164) 
pfpi4k_grid

>  <i_i_glide_lignum>  (164) 
17

>  <i_i_glide_rotatable_bonds>  (164) 
2

>  <r_i_docking_score>  (164) 
-2.67455

>  <r_i_glide_ligand_efficiency>  (164) 
-0.092226

>  <r_i_glide_ligand_efficiency_sa>  (164) 
-0.283347

>  <r_i_glide_ligand_efficiency_ln>  (164) 
-0.612405

>  <r_i_glide_gscore>  (164) 
-2.67455

>  <r_i_glide_lipo>  (164) 
-0.45527

>  <r_i_glide_hbond>  (164) 
0

>  <r_i_glide_metal>  (164) 
-0

>  <r_i_glide_rewards>  (164) 
-1.13742

>  <r_i_glide_evdw>  (164) 
-18.8719

>  <r_i_glide_ecoul>  (164) 
-0.578951

>  <r_i_glide_erotb>  (164) 
0

>  <r_i_glide_esite>  (164) 
-0.051429

>  <r_i_glide_emodel>  (164) 
-26.6334

>  <r_i_glide_energy>  (164) 
-19.4509

>  <r_i_glide_einternal>  (164) 
0.376706

>  <r_i_glide_intrahb_reward>  (164) 
-0.5

>  <i_i_glide_confnum>  (164) 
1

>  <i_i_glide_posenum>  (164) 
24

>  <r_i_glide_eff_state_penalty>  (164) 
0

>  <ligand_id>  (164) 
44

>  <original_smiles>  (164) 
CC12CCC3CCCC4(O)CC5(C)C(OC(O1)C34OO2)C12C(CCC51O)C2(C)C

>  <smiles>  (164) 
[H]OC12C([H])([H])C([H])([H])C([H])([H])C3([H])C([H])([H])C([H])([H])C4(C([H])([H])[H])OOC31C([H])(OC1([H])C(C([H])([H])[H])(C2([H])[H])C2(O[H])C([H])([H])C([H])([H])C3([H])C(C([H])([H])[H])(C([H])([H])[H])C132)O4

$$$$
44:0:1
     RDKit          3D

 63 69  0  0  1  0  0  0  0  0999 V2000
    3.6959   -8.4682    1.3798 C   0  0  0  0  0  0  0  0  0  0  0  0
    4.1628   -7.1802    2.0508 C   0  0  1  0  0  0  0  0  0  0  0  0
    5.0146   -7.5353    3.2929 C   0  0  0  0  0  0  0  0  0  0  0  0
    6.0775   -6.4958    3.6512 C   0  0  0  0  0  0  0  0  0  0  0  0
    5.6087   -5.0351    3.7047 C   0  0  2  0  0  0  0  0  0  0  0  0
    5.2429   -4.5625    5.1249 C   0  0  0  0  0  0  0  0  0  0  0  0
    5.0958   -3.0408    5.1685 C   0  0  0  0  0  0  0  0  0  0  0  0
    4.0789   -2.5294    4.1390 C   0  0  0  0  0  0  0  0  0  0  0  0
    4.3214   -3.0349    2.7002 C   0  0  1  0  0  0  0  0  0  0  0  0
    3.1208   -2.6518    2.0541 O   0  0  0  0  0  0  0  0  0  0  0  0
    5.4803   -2.2294    2.0109 C   0  0  0  0  0  0  0  0  0  0  0  0
    5.6873   -2.3443    0.4550 C   0  0  1  0  0  0  0  0  0  0  0  0
    7.2141   -2.3125    0.2499 C   0  0  0  0  0  0  0  0  0  0  0  0
    4.8395   -3.3578   -0.3336 C   0  0  1  0  0  0  0  0  0  0  0  0
    4.1885   -4.4401    0.3269 O   0  0  0  0  0  0  0  0  0  0  0  0
    4.9669   -5.0895    1.2655 C   0  0  2  0  0  0  0  0  0  0  0  0
    4.9552   -6.4784    1.1085 O   0  0  0  0  0  0  0  0  0  0  0  0
    4.5292   -4.6036    2.6854 C   0  0  1  0  0  0  0  0  0  0  0  0
    3.3403   -5.2351    3.1620 O   0  0  0  0  0  0  0  0  0  0  0  0
    2.9885   -6.4392    2.3283 O   0  0  0  0  0  0  0  0  0  0  0  0
    3.7989   -2.3242   -0.8214 C   0  0  2  0  0  0  0  0  0  0  0  0
    3.2756   -1.5585   -2.0908 C   0  0  1  0  0  0  0  0  0  0  0  0
    4.2932   -0.6938   -2.7131 C   0  0  0  0  0  0  0  0  0  0  0  0
    5.4220   -0.8417   -1.7407 C   0  0  0  0  0  0  0  0  0  0  0  0
    4.8824   -1.3348   -0.3950 C   0  0  2  0  0  0  0  0  0  0  0  0
    4.3298   -0.2592    0.2942 O   0  0  0  0  0  0  0  0  0  0  0  0
    3.2586   -2.9917   -2.1028 C   0  0  0  0  0  0  0  0  0  0  0  0
    4.0590   -3.6604   -3.2119 C   0  0  0  0  0  0  0  0  0  0  0  0
    1.9354   -3.6655   -1.8140 C   0  0  0  0  0  0  0  0  0  0  0  0
    3.0738   -8.1783    0.5504 H   0  0  0  0  0  0  0  0  0  0  0  0
    3.0895   -9.0802    2.0490 H   0  0  0  0  0  0  0  0  0  0  0  0
    4.5196   -9.0779    0.9972 H   0  0  0  0  0  0  0  0  0  0  0  0
    4.3780   -7.7505    4.1492 H   0  0  0  0  0  0  0  0  0  0  0  0
    5.5729   -8.4526    3.0893 H   0  0  0  0  0  0  0  0  0  0  0  0
    6.5610   -6.7575    4.5909 H   0  0  0  0  0  0  0  0  0  0  0  0
    6.8786   -6.5548    2.9105 H   0  0  0  0  0  0  0  0  0  0  0  0
    6.5074   -4.5351    3.3892 H   0  0  0  0  0  0  0  0  0  0  0  0
    4.3111   -5.0295    5.4589 H   0  0  0  0  0  0  0  0  0  0  0  0
    6.0169   -4.8600    5.8298 H   0  0  0  0  0  0  0  0  0  0  0  0
    4.7823   -2.7291    6.1638 H   0  0  0  0  0  0  0  0  0  0  0  0
    6.0641   -2.5819    4.9959 H   0  0  0  0  0  0  0  0  0  0  0  0
    3.0834   -2.8456    4.4481 H   0  0  0  0  0  0  0  0  0  0  0  0
    4.0424   -1.4390    4.1525 H   0  0  0  0  0  0  0  0  0  0  0  0
    3.2278   -2.8449    1.1283 H   0  0  0  0  0  0  0  0  0  0  0  0
    5.3601   -1.1772    2.2595 H   0  0  0  0  0  0  0  0  0  0  0  0
    6.4136   -2.4734    2.5052 H   0  0  0  0  0  0  0  0  0  0  0  0
    7.5247   -2.4691   -0.7829 H   0  0  0  0  0  0  0  0  0  0  0  0
    7.7123   -3.0849    0.8322 H   0  0  0  0  0  0  0  0  0  0  0  0
    7.6325   -1.3583    0.5713 H   0  0  0  0  0  0  0  0  0  0  0  0
    5.4864   -3.7223   -1.1338 H   0  0  0  0  0  0  0  0  0  0  0  0
    6.0103   -4.8364    1.0794 H   0  0  0  0  0  0  0  0  0  0  0  0
    2.3211   -1.0579   -2.0607 H   0  0  0  0  0  0  0  0  0  0  0  0
    4.5249   -0.9870   -3.7391 H   0  0  0  0  0  0  0  0  0  0  0  0
    3.9228    0.3267   -2.7252 H   0  0  0  0  0  0  0  0  0  0  0  0
    6.1467   -1.5314   -2.1837 H   0  0  0  0  0  0  0  0  0  0  0  0
    5.8036    0.1400   -1.6350 H   0  0  0  0  0  0  0  0  0  0  0  0
    3.4328   -0.5023    0.5197 H   0  0  0  0  0  0  0  0  0  0  0  0
    3.4604   -3.6766   -4.1273 H   0  0  0  0  0  0  0  0  0  0  0  0
    4.3438   -4.6780   -2.9143 H   0  0  0  0  0  0  0  0  0  0  0  0
    4.9769   -3.1116   -3.4076 H   0  0  0  0  0  0  0  0  0  0  0  0
    1.3824   -3.7316   -2.7347 H   0  0  0  0  0  0  0  0  0  0  0  0
    1.3438   -3.0718   -1.1034 H   0  0  0  0  0  0  0  0  0  0  0  0
    2.0843   -4.6530   -1.3583 H   0  0  0  0  0  0  0  0  0  0  0  0
  2  1  1  6
  1 30  1  0
  1 31  1  0
  1 32  1  0
  2 17  1  0
  2 20  1  0
  2  3  1  0
  3  4  1  0
  3 33  1  0
  3 34  1  0
  4  5  1  0
  4 35  1  0
  4 36  1  0
  5 18  1  0
  5  6  1  0
  5 37  1  6
  6  7  1  0
  6 38  1  0
  6 39  1  0
  7  8  1  0
  7 40  1  0
  7 41  1  0
  8  9  1  0
  8 42  1  0
  8 43  1  0
  9 18  1  0
  9 10  1  6
  9 11  1  0
 10 44  1  0
 11 12  1  0
 11 45  1  0
 11 46  1  0
 12 25  1  0
 12 13  1  1
 12 14  1  0
 13 47  1  0
 13 48  1  0
 13 49  1  0
 14 15  1  0
 14 21  1  0
 14 50  1  6
 15 16  1  0
 16 17  1  0
 16 18  1  0
 16 51  1  6
 18 19  1  1
 19 20  1  0
 21 25  1  0
 21 27  1  6
 21 22  1  0
 22 23  1  0
 22 27  1  0
 22 52  1  1
 23 24  1  0
 23 53  1  0
 23 54  1  0
 24 25  1  0
 24 55  1  0
 24 56  1  0
 25 26  1  1
 26 57  1  0
 27 28  1  0
 27 29  1  0
 28 58  1  0
 28 59  1  0
 28 60  1  0
 29 61  1  0
 29 62  1  0
 29 63  1  0
M  END
>  <i_m_ct_stereo_status>  (165) 
1

>  <s_m_source_file>  (165) 
/var/tmp/pbs.5076255.sched01/tmpqwfmwtcs/46j3o47u_k.sdf

>  <i_m_source_file_index>  (165) 
17

>  <i_lp_mmshare_version>  (165) 
48012

>  <i_f3d_flags>  (165) 
0

>  <s_epik_input>  (165) 
W0NAXTEyM1tDQEBIXTRbQ0gyXVtDSDJdW0NAQF0oW0NIM10pKE9PMylPW0NASF0yT1tDQEhdNVtDQEBdNjdbQ0BIXShDNyhbQ0gzXSlbQ0gzXSlbQ0gyXVtDSDJdW0NAXTYoW09IXSlbQ0BAXTUoW0NIM10pW0NIMl1bQ0BdMShbT0hdKVtDSDJdW0NIMl1bQ0gyXTQ=

>  <s_epik_cmdline>  (165) 
J2VwaWtfcHl0aG9uJywgJy1waHQnLCAnMi4wJywgJy1waCcsICc3LjAnLCAnLXRuJywgJzgnLCAnLW1hJywgJzIwMCcsICctaW1hZScsICc8aW5maWxlLm1hZT4nLCAnLW9tYWUnLCAnPG91dGZpbGUubWFlPic=

>  <r_lp_tautomer_probability>  (165) 
1

>  <r_epik_Ionization_Penalty>  (165) 
8.41872e-07

>  <r_epik_Ionization_Penalty_Charging>  (165) 
0

>  <r_epik_Ionization_Penalty_Neutral>  (165) 
8.41872e-07

>  <r_epik_State_Penalty>  (165) 
-0

>  <r_epik_Charging_Adjusted_Penalty>  (165) 
0

>  <i_epik_Tot_Q>  (165) 
0

>  <i_epik_Tot_abs_Q>  (165) 
0

>  <s_epik_Chemistry_Notes>  (165) 
This compound contains an acetal/aminal-like group ( X-CH(R)-Y where X, Y are N, S, or O) that may be acid/base labile, releasing an aldehyde.

>  <s_lp_Force_Field>  (165) 
OPLS3e

>  <r_lp_Energy>  (165) 
92.191

>  <b_lp_Chiralities_Consistent>  (165) 
1

>  <s_lp_Variant>  (165) 
44:0-1

>  <s_i_glide_gridfile>  (165) 
pfpi4k_grid

>  <i_i_glide_lignum>  (165) 
17

>  <i_i_glide_rotatable_bonds>  (165) 
2

>  <r_i_docking_score>  (165) 
-1.45367

>  <r_i_glide_ligand_efficiency>  (165) 
-0.0501267

>  <r_i_glide_ligand_efficiency_sa>  (165) 
-0.154005

>  <r_i_glide_ligand_efficiency_ln>  (165) 
-0.332855

>  <r_i_glide_gscore>  (165) 
-1.45367

>  <r_i_glide_lipo>  (165) 
-0.387281

>  <r_i_glide_hbond>  (165) 
0

>  <r_i_glide_metal>  (165) 
-0

>  <r_i_glide_rewards>  (165) 
-0.736204

>  <r_i_glide_evdw>  (165) 
-10.3402

>  <r_i_glide_ecoul>  (165) 
1.24546

>  <r_i_glide_erotb>  (165) 
0

>  <r_i_glide_esite>  (165) 
0

>  <r_i_glide_emodel>  (165) 
-8.65542

>  <r_i_glide_energy>  (165) 
-9.09471

>  <r_i_glide_einternal>  (165) 
0.765649

>  <r_i_glide_intrahb_reward>  (165) 
-0

>  <i_i_glide_confnum>  (165) 
1

>  <i_i_glide_posenum>  (165) 
1

>  <r_i_glide_eff_state_penalty>  (165) 
0

>  <ligand_id>  (165) 
44

>  <original_smiles>  (165) 
CC12CCC3CCCC4(O)CC5(C)C(OC(O1)C34OO2)C12C(CCC51O)C2(C)C

>  <smiles>  (165) 
[H]OC12C([H])([H])C([H])([H])C([H])([H])C3([H])C([H])([H])C([H])([H])C4(C([H])([H])[H])OOC31C([H])(OC1([H])C(C([H])([H])[H])(C2([H])[H])C2(O[H])C([H])([H])C([H])([H])C3([H])C(C([H])([H])[H])(C([H])([H])[H])C132)O4

$$$$
44:0:2
     RDKit          3D

 63 69  0  0  1  0  0  0  0  0999 V2000
    1.7789   -7.8996    2.5573 C   0  0  0  0  0  0  0  0  0  0  0  0
    2.0225   -6.5420    3.2276 C   0  0  1  0  0  0  0  0  0  0  0  0
    2.1752   -6.7168    4.7620 C   0  0  0  0  0  0  0  0  0  0  0  0
    3.0582   -5.6575    5.4493 C   0  0  0  0  0  0  0  0  0  0  0  0
    2.7800   -4.1815    5.1124 C   0  0  2  0  0  0  0  0  0  0  0  0
    1.8252   -3.5142    6.1178 C   0  0  0  0  0  0  0  0  0  0  0  0
    1.8151   -1.9952    5.8985 C   0  0  0  0  0  0  0  0  0  0  0  0
    1.4203   -1.6281    4.4606 C   0  0  0  0  0  0  0  0  0  0  0  0
    2.2647   -2.3464    3.3842 C   0  0  1  0  0  0  0  0  0  0  0  0
    1.5200   -2.0464    2.2250 O   0  0  0  0  0  0  0  0  0  0  0  0
    3.6707   -1.6768    3.2053 C   0  0  0  0  0  0  0  0  0  0  0  0
    4.5222   -2.0254    1.9353 C   0  0  1  0  0  0  0  0  0  0  0  0
    5.9568   -2.0796    2.4570 C   0  0  0  0  0  0  0  0  0  0  0  0
    4.0342   -3.1295    0.9813 C   0  0  1  0  0  0  0  0  0  0  0  0
    3.0790   -4.1110    1.3984 O   0  0  0  0  0  0  0  0  0  0  0  0
    3.2971   -4.6151    2.6679 C   0  0  2  0  0  0  0  0  0  0  0  0
    3.2234   -6.0188    2.7064 O   0  0  0  0  0  0  0  0  0  0  0  0
    2.3141   -3.9031    3.6568 C   0  0  1  0  0  0  0  0  0  0  0  0
    0.9848   -4.4422    3.6389 O   0  0  0  0  0  0  0  0  0  0  0  0
    0.9310   -5.7220    2.8521 O   0  0  0  0  0  0  0  0  0  0  0  0
    3.4277   -2.1669   -0.0542 C   0  0  2  0  0  0  0  0  0  0  0  0
    3.6108   -1.6223   -1.4973 C   0  0  1  0  0  0  0  0  0  0  0  0
    4.8911   -0.8601   -1.6650 C   0  0  0  0  0  0  0  0  0  0  0  0
    5.4865   -0.8461   -0.2642 C   0  0  0  0  0  0  0  0  0  0  0  0
    4.3187   -1.1533    0.6905 C   0  0  2  0  0  0  0  0  0  0  0  0
    3.6325    0.0652    0.8796 O   0  0  0  0  0  0  0  0  0  0  0  0
    3.4590   -3.0548   -1.3383 C   0  0  0  0  0  0  0  0  0  0  0  0
    4.6025   -3.9303   -1.8332 C   0  0  0  0  0  0  0  0  0  0  0  0
    2.1333   -3.7083   -1.6654 C   0  0  0  0  0  0  0  0  0  0  0  0
    1.6226   -7.7671    1.4880 H   0  0  0  0  0  0  0  0  0  0  0  0
    0.8954   -8.3947    2.9643 H   0  0  0  0  0  0  0  0  0  0  0  0
    2.6276   -8.5763    2.6853 H   0  0  0  0  0  0  0  0  0  0  0  0
    1.2000   -6.7937    5.2439 H   0  0  0  0  0  0  0  0  0  0  0  0
    2.6691   -7.6742    4.9568 H   0  0  0  0  0  0  0  0  0  0  0  0
    3.0270   -5.8001    6.5272 H   0  0  0  0  0  0  0  0  0  0  0  0
    4.0962   -5.8648    5.1756 H   0  0  0  0  0  0  0  0  0  0  0  0
    3.7412   -3.6918    5.2499 H   0  0  0  0  0  0  0  0  0  0  0  0
    0.8118   -3.9052    6.0194 H   0  0  0  0  0  0  0  0  0  0  0  0
    2.1452   -3.7252    7.1376 H   0  0  0  0  0  0  0  0  0  0  0  0
    1.1084   -1.5343    6.5938 H   0  0  0  0  0  0  0  0  0  0  0  0
    2.7991   -1.5842    6.1316 H   0  0  0  0  0  0  0  0  0  0  0  0
    0.3729   -1.8885    4.3156 H   0  0  0  0  0  0  0  0  0  0  0  0
    1.4690   -0.5491    4.3249 H   0  0  0  0  0  0  0  0  0  0  0  0
    1.6009   -1.1283    2.0339 H   0  0  0  0  0  0  0  0  0  0  0  0
    3.5371   -0.5975    3.2432 H   0  0  0  0  0  0  0  0  0  0  0  0
    4.2408   -1.8599    4.1232 H   0  0  0  0  0  0  0  0  0  0  0  0
    6.6785   -2.4007    1.7145 H   0  0  0  0  0  0  0  0  0  0  0  0
    6.0377   -2.7763    3.2908 H   0  0  0  0  0  0  0  0  0  0  0  0
    6.2733   -1.0956    2.8183 H   0  0  0  0  0  0  0  0  0  0  0  0
    4.9345   -3.6248    0.6402 H   0  0  0  0  0  0  0  0  0  0  0  0
    4.3234   -4.4170    2.9503 H   0  0  0  0  0  0  0  0  0  0  0  0
    2.7616   -1.0966   -1.9131 H   0  0  0  0  0  0  0  0  0  0  0  0
    5.5264   -1.3353   -2.4095 H   0  0  0  0  0  0  0  0  0  0  0  0
    4.6241    0.1380   -2.0176 H   0  0  0  0  0  0  0  0  0  0  0  0
    6.2363   -1.6398   -0.2469 H   0  0  0  0  0  0  0  0  0  0  0  0
    5.9980    0.0803   -0.0085 H   0  0  0  0  0  0  0  0  0  0  0  0
    2.7358   -0.1096    0.6737 H   0  0  0  0  0  0  0  0  0  0  0  0
    4.5258   -4.0439   -2.9193 H   0  0  0  0  0  0  0  0  0  0  0  0
    4.5613   -4.9205   -1.3765 H   0  0  0  0  0  0  0  0  0  0  0  0
    5.5692   -3.4909   -1.6032 H   0  0  0  0  0  0  0  0  0  0  0  0
    2.0153   -3.8505   -2.7423 H   0  0  0  0  0  0  0  0  0  0  0  0
    1.3186   -3.0780   -1.3265 H   0  0  0  0  0  0  0  0  0  0  0  0
    2.0373   -4.6580   -1.1356 H   0  0  0  0  0  0  0  0  0  0  0  0
  2  1  1  6
  1 30  1  0
  1 31  1  0
  1 32  1  0
  2 17  1  0
  2 20  1  0
  2  3  1  0
  3  4  1  0
  3 33  1  0
  3 34  1  0
  4  5  1  0
  4 35  1  0
  4 36  1  0
  5 18  1  0
  5  6  1  0
  5 37  1  6
  6  7  1  0
  6 38  1  0
  6 39  1  0
  7  8  1  0
  7 40  1  0
  7 41  1  0
  8  9  1  0
  8 42  1  0
  8 43  1  0
  9 18  1  0
  9 10  1  6
  9 11  1  0
 10 44  1  0
 11 12  1  0
 11 45  1  0
 11 46  1  0
 12 25  1  0
 12 13  1  1
 12 14  1  0
 13 47  1  0
 13 48  1  0
 13 49  1  0
 14 15  1  0
 14 21  1  0
 14 50  1  6
 15 16  1  0
 16 17  1  0
 16 18  1  0
 16 51  1  1
 18 19  1  1
 19 20  1  0
 21 25  1  0
 21 27  1  6
 21 22  1  0
 22 23  1  0
 22 27  1  0
 22 52  1  6
 23 24  1  0
 23 53  1  0
 23 54  1  0
 24 25  1  0
 24 55  1  0
 24 56  1  0
 25 26  1  1
 26 57  1  0
 27 28  1  0
 27 29  1  0
 28 58  1  0
 28 59  1  0
 28 60  1  0
 29 61  1  0
 29 62  1  0
 29 63  1  0
M  END
>  <i_m_ct_stereo_status>  (166) 
1

>  <s_m_source_file>  (166) 
/var/tmp/pbs.5076255.sched01/tmpqwfmwtcs/46j3o47u_k.sdf

>  <i_m_source_file_index>  (166) 
17

>  <i_lp_mmshare_version>  (166) 
48012

>  <i_f3d_flags>  (166) 
0

>  <s_epik_input>  (166) 
W0NAXTEyM1tDQEBIXTRbQ0gyXVtDSDJdW0NAQF0oW0NIM10pKE9PMylPW0NASF0yT1tDQEhdNVtDQEBdNjdbQ0BIXShDNyhbQ0gzXSlbQ0gzXSlbQ0gyXVtDSDJdW0NAXTYoW09IXSlbQ0BAXTUoW0NIM10pW0NIMl1bQ0BdMShbT0hdKVtDSDJdW0NIMl1bQ0gyXTQ=

>  <s_epik_cmdline>  (166) 
J2VwaWtfcHl0aG9uJywgJy1waHQnLCAnMi4wJywgJy1waCcsICc3LjAnLCAnLXRuJywgJzgnLCAnLW1hJywgJzIwMCcsICctaW1hZScsICc8aW5maWxlLm1hZT4nLCAnLW9tYWUnLCAnPG91dGZpbGUubWFlPic=

>  <r_lp_tautomer_probability>  (166) 
1

>  <r_epik_Ionization_Penalty>  (166) 
8.41872e-07

>  <r_epik_Ionization_Penalty_Charging>  (166) 
0

>  <r_epik_Ionization_Penalty_Neutral>  (166) 
8.41872e-07

>  <r_epik_State_Penalty>  (166) 
-0

>  <r_epik_Charging_Adjusted_Penalty>  (166) 
0

>  <i_epik_Tot_Q>  (166) 
0

>  <i_epik_Tot_abs_Q>  (166) 
0

>  <s_epik_Chemistry_Notes>  (166) 
This compound contains an acetal/aminal-like group ( X-CH(R)-Y where X, Y are N, S, or O) that may be acid/base labile, releasing an aldehyde.

>  <s_lp_Force_Field>  (166) 
OPLS3e

>  <r_lp_Energy>  (166) 
92.191

>  <b_lp_Chiralities_Consistent>  (166) 
1

>  <s_lp_Variant>  (166) 
44:0-1

>  <s_i_glide_gridfile>  (166) 
pfpi4k_grid

>  <i_i_glide_lignum>  (166) 
17

>  <i_i_glide_rotatable_bonds>  (166) 
2

>  <r_i_docking_score>  (166) 
-1.37745

>  <r_i_glide_ligand_efficiency>  (166) 
-0.0474982

>  <r_i_glide_ligand_efficiency_sa>  (166) 
-0.14593

>  <r_i_glide_ligand_efficiency_ln>  (166) 
-0.315401

>  <r_i_glide_gscore>  (166) 
-1.37745

>  <r_i_glide_lipo>  (166) 
-0.132339

>  <r_i_glide_hbond>  (166) 
0

>  <r_i_glide_metal>  (166) 
-0

>  <r_i_glide_rewards>  (166) 
-0.637415

>  <r_i_glide_evdw>  (166) 
-17.1356

>  <r_i_glide_ecoul>  (166) 
1.69571

>  <r_i_glide_erotb>  (166) 
0

>  <r_i_glide_esite>  (166) 
-0.00526917

>  <r_i_glide_emodel>  (166) 
-15.7547

>  <r_i_glide_energy>  (166) 
-15.4399

>  <r_i_glide_einternal>  (166) 
0.769339

>  <r_i_glide_intrahb_reward>  (166) 
-0

>  <i_i_glide_confnum>  (166) 
2

>  <i_i_glide_posenum>  (166) 
22

>  <r_i_glide_eff_state_penalty>  (166) 
0

>  <ligand_id>  (166) 
44

>  <original_smiles>  (166) 
CC12CCC3CCCC4(O)CC5(C)C(OC(O1)C34OO2)C12C(CCC51O)C2(C)C

>  <smiles>  (166) 
[H]OC12C([H])([H])C([H])([H])C([H])([H])C3([H])C([H])([H])C([H])([H])C4(C([H])([H])[H])OOC31C([H])(OC1([H])C(C([H])([H])[H])(C2([H])[H])C2(O[H])C([H])([H])C([H])([H])C3([H])C(C([H])([H])[H])(C([H])([H])[H])C132)O4

$$$$
45:0:0
     RDKit          3D

 41 44  0  0  1  0  0  0  0  0999 V2000
    4.7655   -0.0769    1.1481 C   0  0  0  0  0  0  0  0  0  0  0  0
    3.9360   -1.2039    0.5248 C   0  0  1  0  0  0  0  0  0  0  0  0
    2.6164   -1.0696    0.9953 O   0  0  0  0  0  0  0  0  0  0  0  0
    3.9149   -0.9750   -0.8484 O   0  0  0  0  0  0  0  0  0  0  0  0
    5.0154   -1.3573   -1.6461 C   0  0  2  0  0  0  0  0  0  0  0  0
    4.5855   -1.7384   -3.0484 C   0  0  2  0  0  0  0  0  0  0  0  0
    3.1951   -1.5547   -3.5867 C   0  0  0  0  0  0  0  0  0  0  0  0
    2.3508   -2.8064   -3.3484 C   0  0  1  0  0  0  0  0  0  0  0  0
    2.7707   -3.8529   -4.1738 O   0  0  0  0  0  0  0  0  0  0  0  0
    2.4454   -3.2978   -1.8974 C   0  0  0  0  0  0  0  0  0  0  0  0
    3.8657   -3.6929   -1.4234 C   0  0  1  0  0  0  0  0  0  0  0  0
    4.9224   -2.7940   -2.0070 C   0  0  2  0  0  0  0  0  0  0  0  0
    4.0743   -3.8722    0.1158 C   0  0  2  0  0  0  0  0  0  0  0  0
    5.1394   -4.9801    0.2724 C   0  0  0  0  0  0  0  0  0  0  0  0
    2.8757   -4.3483    0.9289 C   0  0  0  0  0  0  0  0  0  0  0  0
    2.0316   -5.1624    0.5258 O   0  0  0  0  0  0  0  0  0  0  0  0
    2.8830   -3.8069    2.3435 C   0  0  0  0  0  0  0  0  0  0  0  0
    4.1594   -2.9454    2.3884 C   0  0  0  0  0  0  0  0  0  0  0  0
    4.5461   -2.6162    0.9143 C   0  0  2  0  0  0  0  0  0  0  0  0
    4.3727    0.8820    0.8224 H   0  0  0  0  0  0  0  0  0  0  0  0
    5.8152   -0.1371    0.8598 H   0  0  0  0  0  0  0  0  0  0  0  0
    4.7032   -0.1024    2.2280 H   0  0  0  0  0  0  0  0  0  0  0  0
    2.0122   -1.0362    0.2395 H   0  0  0  0  0  0  0  0  0  0  0  0
    5.9773   -0.9238   -1.4451 H   0  0  0  0  0  0  0  0  0  0  0  0
    5.3511   -1.6703   -3.8281 H   0  0  0  0  0  0  0  0  0  0  0  0
    2.7465   -0.6862   -3.1051 H   0  0  0  0  0  0  0  0  0  0  0  0
    3.2409   -1.3314   -4.6473 H   0  0  0  0  0  0  0  0  0  0  0  0
    1.3135   -2.6060   -3.6041 H   0  0  0  0  0  0  0  0  0  0  0  0
    2.2477   -4.6037   -3.9307 H   0  0  0  0  0  0  0  0  0  0  0  0
    2.1312   -2.5154   -1.2402 H   0  0  0  0  0  0  0  0  0  0  0  0
    1.7355   -4.1197   -1.7704 H   0  0  0  0  0  0  0  0  0  0  0  0
    4.1166   -4.6398   -1.8821 H   0  0  0  0  0  0  0  0  0  0  0  0
    5.8747   -3.3030   -2.1631 H   0  0  0  0  0  0  0  0  0  0  0  0
    6.1126   -4.6429   -0.0773 H   0  0  0  0  0  0  0  0  0  0  0  0
    4.8736   -5.8747   -0.2953 H   0  0  0  0  0  0  0  0  0  0  0  0
    5.2502   -5.3005    1.3074 H   0  0  0  0  0  0  0  0  0  0  0  0
    1.9960   -3.1962    2.5084 H   0  0  0  0  0  0  0  0  0  0  0  0
    2.8889   -4.6061    3.0791 H   0  0  0  0  0  0  0  0  0  0  0  0
    4.0459   -2.0772    3.0363 H   0  0  0  0  0  0  0  0  0  0  0  0
    4.9512   -3.5523    2.8264 H   0  0  0  0  0  0  0  0  0  0  0  0
    5.6318   -2.5349    0.8338 H   0  0  0  0  0  0  0  0  0  0  0  0
  1  2  1  0
  1 20  1  0
  1 21  1  0
  1 22  1  0
  2 19  1  0
  2  3  1  1
  2  4  1  0
  3 23  1  0
  4  5  1  0
  5 12  1  0
  5  6  1  0
  5 24  1  6
  6 12  1  0
  6  7  1  0
  6 25  1  6
  7  8  1  0
  7 26  1  0
  7 27  1  0
  8  9  1  0
  8 10  1  0
  8 28  1  6
  9 29  1  0
 10 11  1  0
 10 30  1  0
 10 31  1  0
 11 12  1  0
 11 13  1  0
 11 32  1  6
 12 33  1  6
 13 19  1  0
 13 14  1  6
 13 15  1  0
 14 34  1  0
 14 35  1  0
 14 36  1  0
 15 16  2  0
 15 17  1  0
 17 18  1  0
 17 37  1  0
 17 38  1  0
 18 19  1  0
 18 39  1  0
 18 40  1  0
 19 41  1  1
M  END
>  <i_m_ct_stereo_status>  (167) 
1

>  <s_m_source_file>  (167) 
/var/tmp/pbs.5076255.sched01/tmpqwfmwtcs/46j3o47u_k.sdf

>  <i_m_source_file_index>  (167) 
18

>  <i_lp_mmshare_version>  (167) 
48012

>  <i_f3d_flags>  (167) 
0

>  <s_epik_input>  (167) 
Tz1DMVtDSDJdW0NIMl1bQ0BASF0yW0NAXShbQ0gzXSkoW09IXSlPW0NASF0oW0NAQEhdM1tDSDJdW0NAQEhdKFtPSF0pW0NIMl00KVtDQEhdM1tDQEhdNFtDQF0xMltDSDNd

>  <s_epik_cmdline>  (167) 
J2VwaWtfcHl0aG9uJywgJy1waHQnLCAnMi4wJywgJy1waCcsICc3LjAnLCAnLXRuJywgJzgnLCAnLW1hJywgJzIwMCcsICctaW1hZScsICc8aW5maWxlLm1hZT4nLCAnLW9tYWUnLCAnPG91dGZpbGUubWFlPic=

>  <r_lp_tautomer_probability>  (167) 
1

>  <r_epik_Ionization_Penalty>  (167) 
1.38187e-06

>  <r_epik_Ionization_Penalty_Charging>  (167) 
0

>  <r_epik_Ionization_Penalty_Neutral>  (167) 
1.38187e-06

>  <r_epik_State_Penalty>  (167) 
-0

>  <r_epik_Charging_Adjusted_Penalty>  (167) 
0

>  <i_epik_Tot_Q>  (167) 
0

>  <i_epik_Tot_abs_Q>  (167) 
0

>  <s_lp_Force_Field>  (167) 
OPLS3e

>  <r_lp_Energy>  (167) 
32.0888

>  <b_lp_Chiralities_Consistent>  (167) 
1

>  <s_lp_Variant>  (167) 
45:0-1

>  <s_i_glide_gridfile>  (167) 
pfpi4k_grid

>  <i_i_glide_lignum>  (167) 
18

>  <i_i_glide_rotatable_bonds>  (167) 
2

>  <r_i_docking_score>  (167) 
-4.74658

>  <r_i_glide_ligand_efficiency>  (167) 
-0.24982

>  <r_i_glide_ligand_efficiency_sa>  (167) 
-0.666621

>  <r_i_glide_ligand_efficiency_ln>  (167) 
-1.20336

>  <r_i_glide_gscore>  (167) 
-4.74658

>  <r_i_glide_lipo>  (167) 
-0.834103

>  <r_i_glide_hbond>  (167) 
-0.231082

>  <r_i_glide_metal>  (167) 
-0

>  <r_i_glide_rewards>  (167) 
-1.59319

>  <r_i_glide_evdw>  (167) 
-13.1358

>  <r_i_glide_ecoul>  (167) 
-9.26582

>  <r_i_glide_erotb>  (167) 
0

>  <r_i_glide_esite>  (167) 
-0.0415491

>  <r_i_glide_emodel>  (167) 
-30.7074

>  <r_i_glide_energy>  (167) 
-22.4016

>  <r_i_glide_einternal>  (167) 
2.03804

>  <r_i_glide_intrahb_reward>  (167) 
-0

>  <i_i_glide_confnum>  (167) 
1

>  <i_i_glide_posenum>  (167) 
29

>  <r_i_glide_eff_state_penalty>  (167) 
0

>  <ligand_id>  (167) 
45

>  <original_smiles>  (167) 
CC1(O)OC2C3CC(O)CC(C32)C2(C)C(=O)CCC12

>  <smiles>  (167) 
[H]OC1([H])C([H])([H])C2([H])C3([H])OC(O[H])(C([H])([H])[H])C4([H])C([H])([H])C([H])([H])C(=O)C4(C([H])([H])[H])C([H])(C1([H])[H])C32[H]

$$$$
45:0:1
     RDKit          3D

 41 44  0  0  1  0  0  0  0  0999 V2000
    3.7703   -0.4127    2.5302 C   0  0  0  0  0  0  0  0  0  0  0  0
    3.2945   -1.5174    1.5697 C   0  0  1  0  0  0  0  0  0  0  0  0
    1.8934   -1.6129    1.6832 O   0  0  0  0  0  0  0  0  0  0  0  0
    3.5823   -1.0595    0.2849 O   0  0  0  0  0  0  0  0  0  0  0  0
    4.8787   -1.2147   -0.2469 C   0  0  2  0  0  0  0  0  0  0  0  0
    4.9003   -1.3770   -1.7579 C   0  0  2  0  0  0  0  0  0  0  0  0
    3.6472   -1.2947   -2.6206 C   0  0  0  0  0  0  0  0  0  0  0  0
    2.9329   -2.6415   -2.7714 C   0  0  1  0  0  0  0  0  0  0  0  0
    3.6738   -3.4632   -3.6447 O   0  0  0  0  0  0  0  0  0  0  0  0
    2.7285   -3.3214   -1.4085 C   0  0  0  0  0  0  0  0  0  0  0  0
    4.0457   -3.6578   -0.6652 C   0  0  1  0  0  0  0  0  0  0  0  0
    5.1031   -2.5712   -0.8341 C   0  0  2  0  0  0  0  0  0  0  0  0
    3.9204   -4.0683    0.8427 C   0  0  2  0  0  0  0  0  0  0  0  0
    5.0803   -5.0524    1.1326 C   0  0  0  0  0  0  0  0  0  0  0  0
    2.6386   -4.8041    1.2568 C   0  0  0  0  0  0  0  0  0  0  0  0
    2.0064   -5.5854    0.5500 O   0  0  0  0  0  0  0  0  0  0  0  0
    2.2577   -4.5056    2.6959 C   0  0  0  0  0  0  0  0  0  0  0  0
    3.3384   -3.5254    3.1806 C   0  0  0  0  0  0  0  0  0  0  0  0
    3.9904   -2.9082    1.9069 C   0  0  2  0  0  0  0  0  0  0  0  0
    3.3402    0.5464    2.2427 H   0  0  0  0  0  0  0  0  0  0  0  0
    4.8581   -0.3220    2.5166 H   0  0  0  0  0  0  0  0  0  0  0  0
    3.4616   -0.6305    3.5500 H   0  0  0  0  0  0  0  0  0  0  0  0
    1.5240   -1.0772    0.9862 H   0  0  0  0  0  0  0  0  0  0  0  0
    5.6877   -0.6840    0.2505 H   0  0  0  0  0  0  0  0  0  0  0  0
    5.7902   -1.0037   -2.2501 H   0  0  0  0  0  0  0  0  0  0  0  0
    2.9478   -0.6057   -2.1604 H   0  0  0  0  0  0  0  0  0  0  0  0
    3.9014   -0.8776   -3.5952 H   0  0  0  0  0  0  0  0  0  0  0  0
    1.9560   -2.4767   -3.2310 H   0  0  0  0  0  0  0  0  0  0  0  0
    3.3936   -4.3583   -3.4897 H   0  0  0  0  0  0  0  0  0  0  0  0
    2.1109   -2.6831   -0.7890 H   0  0  0  0  0  0  0  0  0  0  0  0
    2.1462   -4.2294   -1.5655 H   0  0  0  0  0  0  0  0  0  0  0  0
    4.4376   -4.5127   -1.2148 H   0  0  0  0  0  0  0  0  0  0  0  0
    6.1237   -2.9422   -0.7714 H   0  0  0  0  0  0  0  0  0  0  0  0
    6.0491   -4.5540    1.0978 H   0  0  0  0  0  0  0  0  0  0  0  0
    5.1078   -5.8663    0.4054 H   0  0  0  0  0  0  0  0  0  0  0  0
    4.9981   -5.5229    2.1109 H   0  0  0  0  0  0  0  0  0  0  0  0
    1.2713   -4.0369    2.7162 H   0  0  0  0  0  0  0  0  0  0  0  0
    2.2133   -5.4139    3.2967 H   0  0  0  0  0  0  0  0  0  0  0  0
    2.9411   -2.7943    3.8826 H   0  0  0  0  0  0  0  0  0  0  0  0
    4.0895   -4.0997    3.7253 H   0  0  0  0  0  0  0  0  0  0  0  0
    5.0392   -2.6902    2.1205 H   0  0  0  0  0  0  0  0  0  0  0  0
  1  2  1  0
  1 20  1  0
  1 21  1  0
  1 22  1  0
  2 19  1  0
  2  3  1  6
  2  4  1  0
  3 23  1  0
  4  5  1  0
  5 12  1  0
  5  6  1  0
  5 24  1  6
  6 12  1  0
  6  7  1  0
  6 25  1  6
  7  8  1  0
  7 26  1  0
  7 27  1  0
  8  9  1  0
  8 10  1  0
  8 28  1  6
  9 29  1  0
 10 11  1  0
 10 30  1  0
 10 31  1  0
 11 12  1  0
 11 13  1  0
 11 32  1  6
 12 33  1  6
 13 19  1  0
 13 14  1  1
 13 15  1  0
 14 34  1  0
 14 35  1  0
 14 36  1  0
 15 16  2  0
 15 17  1  0
 17 18  1  0
 17 37  1  0
 17 38  1  0
 18 19  1  0
 18 39  1  0
 18 40  1  0
 19 41  1  1
M  END
>  <i_m_ct_stereo_status>  (168) 
1

>  <s_m_source_file>  (168) 
/var/tmp/pbs.5076255.sched01/tmpqwfmwtcs/46j3o47u_k.sdf

>  <i_m_source_file_index>  (168) 
18

>  <i_lp_mmshare_version>  (168) 
48012

>  <i_f3d_flags>  (168) 
0

>  <s_epik_input>  (168) 
Tz1DMVtDSDJdW0NIMl1bQ0BASF0yW0NAXShbQ0gzXSkoW09IXSlPW0NASF0oW0NAQEhdM1tDSDJdW0NAQEhdKFtPSF0pW0NIMl00KVtDQEhdM1tDQEhdNFtDQF0xMltDSDNd

>  <s_epik_cmdline>  (168) 
J2VwaWtfcHl0aG9uJywgJy1waHQnLCAnMi4wJywgJy1waCcsICc3LjAnLCAnLXRuJywgJzgnLCAnLW1hJywgJzIwMCcsICctaW1hZScsICc8aW5maWxlLm1hZT4nLCAnLW9tYWUnLCAnPG91dGZpbGUubWFlPic=

>  <r_lp_tautomer_probability>  (168) 
1

>  <r_epik_Ionization_Penalty>  (168) 
1.38187e-06

>  <r_epik_Ionization_Penalty_Charging>  (168) 
0

>  <r_epik_Ionization_Penalty_Neutral>  (168) 
1.38187e-06

>  <r_epik_State_Penalty>  (168) 
-0

>  <r_epik_Charging_Adjusted_Penalty>  (168) 
0

>  <i_epik_Tot_Q>  (168) 
0

>  <i_epik_Tot_abs_Q>  (168) 
0

>  <s_lp_Force_Field>  (168) 
OPLS3e

>  <r_lp_Energy>  (168) 
32.0888

>  <b_lp_Chiralities_Consistent>  (168) 
1

>  <s_lp_Variant>  (168) 
45:0-1

>  <s_i_glide_gridfile>  (168) 
pfpi4k_grid

>  <i_i_glide_lignum>  (168) 
18

>  <i_i_glide_rotatable_bonds>  (168) 
2

>  <r_i_docking_score>  (168) 
-4.40555

>  <r_i_glide_ligand_efficiency>  (168) 
-0.231871

>  <r_i_glide_ligand_efficiency_sa>  (168) 
-0.618725

>  <r_i_glide_ligand_efficiency_ln>  (168) 
-1.1169

>  <r_i_glide_gscore>  (168) 
-4.40555

>  <r_i_glide_lipo>  (168) 
-0.189641

>  <r_i_glide_hbond>  (168) 
-0.344913

>  <r_i_glide_metal>  (168) 
-0

>  <r_i_glide_rewards>  (168) 
-1.59319

>  <r_i_glide_evdw>  (168) 
-23.9063

>  <r_i_glide_ecoul>  (168) 
-6.92744

>  <r_i_glide_erotb>  (168) 
0

>  <r_i_glide_esite>  (168) 
-0.0433786

>  <r_i_glide_emodel>  (168) 
-38.0367

>  <r_i_glide_energy>  (168) 
-30.8337

>  <r_i_glide_einternal>  (168) 
2.35963

>  <r_i_glide_intrahb_reward>  (168) 
-0

>  <i_i_glide_confnum>  (168) 
1

>  <i_i_glide_posenum>  (168) 
32

>  <r_i_glide_eff_state_penalty>  (168) 
0

>  <ligand_id>  (168) 
45

>  <original_smiles>  (168) 
CC1(O)OC2C3CC(O)CC(C32)C2(C)C(=O)CCC12

>  <smiles>  (168) 
[H]OC1([H])C([H])([H])C2([H])C3([H])OC(O[H])(C([H])([H])[H])C4([H])C([H])([H])C([H])([H])C(=O)C4(C([H])([H])[H])C([H])(C1([H])[H])C32[H]

$$$$
45:0:2
     RDKit          3D

 41 44  0  0  1  0  0  0  0  0999 V2000
    8.4369   -2.8092   -0.5020 C   0  0  0  0  0  0  0  0  0  0  0  0
    6.9053   -2.7313   -0.3030 C   0  0  1  0  0  0  0  0  0  0  0  0
    6.6506   -1.7138    0.6431 O   0  0  0  0  0  0  0  0  0  0  0  0
    6.3800   -2.3134   -1.5294 O   0  0  0  0  0  0  0  0  0  0  0  0
    6.1850   -3.2680   -2.5387 C   0  0  2  0  0  0  0  0  0  0  0  0
    4.9932   -3.0487   -3.4512 C   0  0  2  0  0  0  0  0  0  0  0  0
    4.2185   -1.7482   -3.3754 C   0  0  0  0  0  0  0  0  0  0  0  0
    3.0599   -1.8618   -2.3932 C   0  0  1  0  0  0  0  0  0  0  0  0
    2.1051   -2.7137   -2.9786 O   0  0  0  0  0  0  0  0  0  0  0  0
    3.4961   -2.4011   -1.0173 C   0  0  0  0  0  0  0  0  0  0  0  0
    4.0660   -3.8282   -1.0817 C   0  0  1  0  0  0  0  0  0  0  0  0
    4.9436   -4.0450   -2.3182 C   0  0  2  0  0  0  0  0  0  0  0  0
    4.7952   -4.3980    0.1546 C   0  0  2  0  0  0  0  0  0  0  0  0
    4.5713   -5.9324    0.1998 C   0  0  0  0  0  0  0  0  0  0  0  0
    4.3229   -3.8835    1.5061 C   0  0  0  0  0  0  0  0  0  0  0  0
    3.1488   -3.6488    1.7978 O   0  0  0  0  0  0  0  0  0  0  0  0
    5.4572   -3.8108    2.5077 C   0  0  0  0  0  0  0  0  0  0  0  0
    6.6687   -4.3151    1.6933 C   0  0  0  0  0  0  0  0  0  0  0  0
    6.3391   -4.1402    0.2050 C   0  0  2  0  0  0  0  0  0  0  0  0
    8.8071   -1.8786   -0.9306 H   0  0  0  0  0  0  0  0  0  0  0  0
    8.7146   -3.6251   -1.1781 H   0  0  0  0  0  0  0  0  0  0  0  0
    8.9460   -2.9616    0.4481 H   0  0  0  0  0  0  0  0  0  0  0  0
    5.7099   -1.6659    0.7501 H   0  0  0  0  0  0  0  0  0  0  0  0
    7.0628   -3.7749   -2.9280 H   0  0  0  0  0  0  0  0  0  0  0  0
    4.9493   -3.5632   -4.4005 H   0  0  0  0  0  0  0  0  0  0  0  0
    4.8876   -0.9523   -3.0540 H   0  0  0  0  0  0  0  0  0  0  0  0
    3.8556   -1.4845   -4.3711 H   0  0  0  0  0  0  0  0  0  0  0  0
    2.6207   -0.8774   -2.2553 H   0  0  0  0  0  0  0  0  0  0  0  0
    1.6209   -2.2262   -3.6330 H   0  0  0  0  0  0  0  0  0  0  0  0
    4.2058   -1.7084   -0.5636 H   0  0  0  0  0  0  0  0  0  0  0  0
    2.6161   -2.3993   -0.3775 H   0  0  0  0  0  0  0  0  0  0  0  0
    3.1683   -4.4362   -1.1880 H   0  0  0  0  0  0  0  0  0  0  0  0
    5.0227   -5.0689   -2.6385 H   0  0  0  0  0  0  0  0  0  0  0  0
    5.0625   -6.4259   -0.6333 H   0  0  0  0  0  0  0  0  0  0  0  0
    3.5178   -6.1880    0.1349 H   0  0  0  0  0  0  0  0  0  0  0  0
    4.9447   -6.3880    1.1150 H   0  0  0  0  0  0  0  0  0  0  0  0
    5.5871   -2.7809    2.8367 H   0  0  0  0  0  0  0  0  0  0  0  0
    5.2594   -4.4272    3.3848 H   0  0  0  0  0  0  0  0  0  0  0  0
    7.6079   -3.8332    1.9719 H   0  0  0  0  0  0  0  0  0  0  0  0
    6.8186   -5.3687    1.9240 H   0  0  0  0  0  0  0  0  0  0  0  0
    6.8645   -4.9345   -0.3241 H   0  0  0  0  0  0  0  0  0  0  0  0
  1  2  1  0
  1 20  1  0
  1 21  1  0
  1 22  1  0
  2 19  1  0
  2  3  1  1
  2  4  1  0
  3 23  1  0
  4  5  1  0
  5 12  1  0
  5  6  1  0
  5 24  1  6
  6 12  1  0
  6  7  1  0
  6 25  1  6
  7  8  1  0
  7 26  1  0
  7 27  1  0
  8  9  1  0
  8 10  1  0
  8 28  1  1
  9 29  1  0
 10 11  1  0
 10 30  1  0
 10 31  1  0
 11 12  1  0
 11 13  1  0
 11 32  1  6
 12 33  1  6
 13 19  1  0
 13 14  1  1
 13 15  1  0
 14 34  1  0
 14 35  1  0
 14 36  1  0
 15 16  2  0
 15 17  1  0
 17 18  1  0
 17 37  1  0
 17 38  1  0
 18 19  1  0
 18 39  1  0
 18 40  1  0
 19 41  1  6
M  END
>  <i_m_ct_stereo_status>  (169) 
1

>  <s_m_source_file>  (169) 
/var/tmp/pbs.5076255.sched01/tmpqwfmwtcs/46j3o47u_k.sdf

>  <i_m_source_file_index>  (169) 
18

>  <i_lp_mmshare_version>  (169) 
48012

>  <i_f3d_flags>  (169) 
0

>  <s_epik_input>  (169) 
Tz1DMVtDSDJdW0NIMl1bQ0BASF0yW0NAXShbQ0gzXSkoW09IXSlPW0NASF0oW0NAQEhdM1tDSDJdW0NAQEhdKFtPSF0pW0NIMl00KVtDQEhdM1tDQEhdNFtDQF0xMltDSDNd

>  <s_epik_cmdline>  (169) 
J2VwaWtfcHl0aG9uJywgJy1waHQnLCAnMi4wJywgJy1waCcsICc3LjAnLCAnLXRuJywgJzgnLCAnLW1hJywgJzIwMCcsICctaW1hZScsICc8aW5maWxlLm1hZT4nLCAnLW9tYWUnLCAnPG91dGZpbGUubWFlPic=

>  <r_lp_tautomer_probability>  (169) 
1

>  <r_epik_Ionization_Penalty>  (169) 
1.38187e-06

>  <r_epik_Ionization_Penalty_Charging>  (169) 
0

>  <r_epik_Ionization_Penalty_Neutral>  (169) 
1.38187e-06

>  <r_epik_State_Penalty>  (169) 
-0

>  <r_epik_Charging_Adjusted_Penalty>  (169) 
0

>  <i_epik_Tot_Q>  (169) 
0

>  <i_epik_Tot_abs_Q>  (169) 
0

>  <s_lp_Force_Field>  (169) 
OPLS3e

>  <r_lp_Energy>  (169) 
32.0888

>  <b_lp_Chiralities_Consistent>  (169) 
1

>  <s_lp_Variant>  (169) 
45:0-1

>  <s_i_glide_gridfile>  (169) 
pfpi4k_grid

>  <i_i_glide_lignum>  (169) 
18

>  <i_i_glide_rotatable_bonds>  (169) 
2

>  <r_i_docking_score>  (169) 
-3.63937

>  <r_i_glide_ligand_efficiency>  (169) 
-0.191546

>  <r_i_glide_ligand_efficiency_sa>  (169) 
-0.511121

>  <r_i_glide_ligand_efficiency_ln>  (169) 
-0.922659

>  <r_i_glide_gscore>  (169) 
-3.63937

>  <r_i_glide_lipo>  (169) 
-0.89721

>  <r_i_glide_hbond>  (169) 
-0.0956331

>  <r_i_glide_metal>  (169) 
-0

>  <r_i_glide_rewards>  (169) 
-1.6359

>  <r_i_glide_evdw>  (169) 
-20.8793

>  <r_i_glide_ecoul>  (169) 
0.22227

>  <r_i_glide_erotb>  (169) 
0

>  <r_i_glide_esite>  (169) 
0

>  <r_i_glide_emodel>  (169) 
-27.4424

>  <r_i_glide_energy>  (169) 
-20.6571

>  <r_i_glide_einternal>  (169) 
0.39312

>  <r_i_glide_intrahb_reward>  (169) 
-0

>  <i_i_glide_confnum>  (169) 
2

>  <i_i_glide_posenum>  (169) 
20

>  <r_i_glide_eff_state_penalty>  (169) 
0

>  <ligand_id>  (169) 
45

>  <original_smiles>  (169) 
CC1(O)OC2C3CC(O)CC(C32)C2(C)C(=O)CCC12

>  <smiles>  (169) 
[H]OC1([H])C([H])([H])C2([H])C3([H])OC(O[H])(C([H])([H])[H])C4([H])C([H])([H])C([H])([H])C(=O)C4(C([H])([H])[H])C([H])(C1([H])[H])C32[H]

$$$$
46:0:0
     RDKit          3D

 29 34  0  0  1  0  0  0  0  0999 V2000
    1.5090   -5.4661   -0.3173 O   0  0  0  0  0  0  0  0  0  0  0  0
    2.4294   -5.2460    0.7847 N   0  0  0  0  0  0  0  0  0  0  0  0
    2.9869   -3.9160    0.5860 C   0  0  1  0  0  0  0  0  0  0  0  0
    4.0256   -3.3876    1.6132 C   0  0  1  0  0  0  0  0  0  0  0  0
    5.4179   -4.1146    1.3840 C   0  0  1  0  0  0  0  0  0  0  0  0
    5.4352   -5.3658    0.4682 C   0  0  0  0  0  0  0  0  0  0  0  0
    5.2027   -4.2996   -0.6393 C   0  0  2  0  0  0  0  0  0  0  0  0
    6.2890   -3.5708    0.2100 C   0  0  1  0  0  0  0  0  0  0  0  0
    6.4127   -2.0863    0.0598 C   0  0  2  0  0  0  0  0  0  0  0  0
    5.4028   -1.3139    0.8537 C   0  0  2  0  0  0  0  0  0  0  0  0
    4.0478   -1.9324    1.0717 C   0  0  1  0  0  0  0  0  0  0  0  0
    3.8889   -2.0722   -0.4528 C   0  0  2  0  0  0  0  0  0  0  0  0
    3.7841   -3.5967   -0.7065 C   0  0  2  0  0  0  0  0  0  0  0  0
    5.2473   -1.4519   -0.6370 C   0  0  2  0  0  0  0  0  0  0  0  0
    2.0915   -5.4677   -1.0683 H   0  0  0  0  0  0  0  0  0  0  0  0
    3.1165   -5.9796    0.6699 H   0  0  0  0  0  0  0  0  0  0  0  0
    2.1058   -3.2652    0.6330 H   0  0  0  0  0  0  0  0  0  0  0  0
    3.6720   -3.4521    2.6409 H   0  0  0  0  0  0  0  0  0  0  0  0
    6.0133   -4.2409    2.2992 H   0  0  0  0  0  0  0  0  0  0  0  0
    6.3930   -5.8828    0.4159 H   0  0  0  0  0  0  0  0  0  0  0  0
    4.6691   -6.1193    0.6193 H   0  0  0  0  0  0  0  0  0  0  0  0
    5.5891   -4.6043   -1.6197 H   0  0  0  0  0  0  0  0  0  0  0  0
    7.2819   -4.0265    0.1466 H   0  0  0  0  0  0  0  0  0  0  0  0
    7.4024   -1.6610   -0.0699 H   0  0  0  0  0  0  0  0  0  0  0  0
    5.6289   -0.3340    1.2755 H   0  0  0  0  0  0  0  0  0  0  0  0
    3.3048   -1.2601    1.4975 H   0  0  0  0  0  0  0  0  0  0  0  0
    3.0603   -1.4759   -0.8333 H   0  0  0  0  0  0  0  0  0  0  0  0
    3.2438   -3.8269   -1.6252 H   0  0  0  0  0  0  0  0  0  0  0  0
    5.3558   -0.5678   -1.2641 H   0  0  0  0  0  0  0  0  0  0  0  0
  1  2  1  0
  1 15  1  0
  2  3  1  0
  2 16  1  0
  3 13  1  0
  3  4  1  0
  3 17  1  6
  4 11  1  0
  4  5  1  0
  4 18  1  1
  5  8  1  0
  5  6  1  0
  5 19  1  1
  6  7  1  0
  6 20  1  0
  6 21  1  0
  7 13  1  0
  7  8  1  0
  7 22  1  6
  8  9  1  0
  8 23  1  1
  9 14  1  0
  9 10  1  0
  9 24  1  6
 10 14  1  0
 10 11  1  0
 10 25  1  6
 11 12  1  0
 11 26  1  1
 12 13  1  0
 12 14  1  0
 12 27  1  6
 13 28  1  6
 14 29  1  6
M  END
>  <i_m_ct_stereo_status>  (170) 
1

>  <s_m_source_file>  (170) 
/var/tmp/pbs.5076255.sched01/tmpqwfmwtcs/46j3o47u_k.sdf

>  <i_m_source_file_index>  (170) 
19

>  <i_lp_mmshare_version>  (170) 
48012

>  <i_f3d_flags>  (170) 
2

>  <s_epik_input>  (170) 
W0NAQEhdMTJbQ0BASF0zW0NASF00W0NAQEhdKFtDSDJdMylbQ0BASF0oW0NAQEhdMVtOSF1bT0hdKVtDQEhdNVtDQEBIXTJbQ0BIXTZbQ0BASF00W0NAQEhdNTY=

>  <s_epik_cmdline>  (170) 
J2VwaWtfcHl0aG9uJywgJy1waHQnLCAnMi4wJywgJy1waCcsICc3LjAnLCAnLXRuJywgJzgnLCAnLW1hJywgJzIwMCcsICctaW1hZScsICc8aW5maWxlLm1hZT4nLCAnLW9tYWUnLCAnPG91dGZpbGUubWFlPic=

>  <r_epik_Ionization_Penalty>  (170) 
0.0116969

>  <r_epik_Ionization_Penalty_Charging>  (170) 
0

>  <r_epik_Ionization_Penalty_Neutral>  (170) 
0.0116969

>  <r_epik_State_Penalty>  (170) 
0.183812

>  <r_epik_Charging_Adjusted_Penalty>  (170) 
0.183812

>  <i_epik_Tot_Q>  (170) 
0

>  <i_epik_Tot_abs_Q>  (170) 
0

>  <s_epik_Chemistry_Notes>  (170) 
This compound has a N-S or N-O group and may undergo hydrolysis at high or low pH.

>  <s_lp_Force_Field>  (170) 
OPLS3e

>  <r_lp_Energy>  (170) 
78.3291

>  <b_lp_Chiralities_Consistent>  (170) 
0

>  <s_lp_Variant>  (170) 
46:0-1

>  <s_i_glide_gridfile>  (170) 
pfpi4k_grid

>  <i_i_glide_lignum>  (170) 
19

>  <i_i_glide_rotatable_bonds>  (170) 
2

>  <r_i_docking_score>  (170) 
-4.84001

>  <r_i_glide_ligand_efficiency>  (170) 
-0.345715

>  <r_i_glide_ligand_efficiency_sa>  (170) 
-0.833222

>  <r_i_glide_ligand_efficiency_ln>  (170) 
-1.33002

>  <r_i_glide_gscore>  (170) 
-4.84001

>  <r_i_glide_lipo>  (170) 
-0.429114

>  <r_i_glide_hbond>  (170) 
-0.32

>  <r_i_glide_metal>  (170) 
-0

>  <r_i_glide_rewards>  (170) 
-2.11873

>  <r_i_glide_evdw>  (170) 
-15.3691

>  <r_i_glide_ecoul>  (170) 
-7.06829

>  <r_i_glide_erotb>  (170) 
0

>  <r_i_glide_esite>  (170) 
-0.143471

>  <r_i_glide_emodel>  (170) 
-29.83

>  <r_i_glide_energy>  (170) 
-22.4374

>  <r_i_glide_einternal>  (170) 
0.383861

>  <r_i_glide_intrahb_reward>  (170) 
-0

>  <i_i_glide_confnum>  (170) 
1

>  <i_i_glide_posenum>  (170) 
31

>  <r_i_glide_eff_state_penalty>  (170) 
0

>  <ligand_id>  (170) 
46

>  <original_smiles>  (170) 
ONC1C2C3CC4C3C3C5C2C(C41)C35

>  <smiles>  (170) 
[H]ON([H])C1([H])C2([H])C3([H])C([H])([H])C4([H])C1([H])C1([H])C2([H])C2([H])C([H])(C34[H])C12[H]

$$$$
46:0:1
     RDKit          3D

 29 34  0  0  1  0  0  0  0  0999 V2000
    3.4734   -1.7696   -4.1539 O   0  0  0  0  0  0  0  0  0  0  0  0
    4.2520   -1.1688   -3.0942 N   0  0  0  0  0  0  0  0  0  0  0  0
    3.7749   -1.7371   -1.8373 C   0  0  1  0  0  0  0  0  0  0  0  0
    3.7821   -3.2760   -1.6089 C   0  0  1  0  0  0  0  0  0  0  0  0
    5.2665   -3.7876   -1.4023 C   0  0  1  0  0  0  0  0  0  0  0  0
    6.4171   -2.8126   -1.7588 C   0  0  0  0  0  0  0  0  0  0  0  0
    5.9261   -2.0847   -0.4749 C   0  0  2  0  0  0  0  0  0  0  0  0
    5.8769   -3.5662    0.0157 C   0  0  1  0  0  0  0  0  0  0  0  0
    5.0220   -3.8894    1.1985 C   0  0  2  0  0  0  0  0  0  0  0  0
    3.5717   -4.0613    0.8660 C   0  0  1  0  0  0  0  0  0  0  0  0
    3.0113   -3.2427   -0.2669 C   0  0  1  0  0  0  0  0  0  0  0  0
    3.4949   -1.9645    0.4379 C   0  0  2  0  0  0  0  0  0  0  0  0
    4.5242   -1.3347   -0.5359 C   0  0  2  0  0  0  0  0  0  0  0  0
    4.0485   -2.8083    1.5557 C   0  0  2  0  0  0  0  0  0  0  0  0
    2.5799   -1.6356   -3.8620 H   0  0  0  0  0  0  0  0  0  0  0  0
    4.0310   -0.1851   -3.1756 H   0  0  0  0  0  0  0  0  0  0  0  0
    2.7421   -1.3785   -1.7834 H   0  0  0  0  0  0  0  0  0  0  0  0
    3.2528   -3.8305   -2.3859 H   0  0  0  0  0  0  0  0  0  0  0  0
    5.4161   -4.8127   -1.7568 H   0  0  0  0  0  0  0  0  0  0  0  0
    7.4230   -3.2357   -1.7004 H   0  0  0  0  0  0  0  0  0  0  0  0
    6.3376   -2.2907   -2.7100 H   0  0  0  0  0  0  0  0  0  0  0  0
    6.7113   -1.5225    0.0431 H   0  0  0  0  0  0  0  0  0  0  0  0
    6.8621   -4.0256    0.1501 H   0  0  0  0  0  0  0  0  0  0  0  0
    5.4475   -4.4916    1.9959 H   0  0  0  0  0  0  0  0  0  0  0  0
    2.9256   -4.7480    1.4113 H   0  0  0  0  0  0  0  0  0  0  0  0
    1.9267   -3.2721   -0.3628 H   0  0  0  0  0  0  0  0  0  0  0  0
    2.6653   -1.3167    0.7194 H   0  0  0  0  0  0  0  0  0  0  0  0
    4.6123   -0.2532   -0.4192 H   0  0  0  0  0  0  0  0  0  0  0  0
    3.7343   -2.6233    2.5813 H   0  0  0  0  0  0  0  0  0  0  0  0
  1  2  1  0
  1 15  1  0
  2  3  1  0
  2 16  1  0
  3 13  1  0
  3  4  1  0
  3 17  1  1
  4 11  1  0
  4  5  1  0
  4 18  1  6
  5  8  1  0
  5  6  1  0
  5 19  1  6
  6  7  1  0
  6 20  1  0
  6 21  1  0
  7 13  1  0
  7  8  1  0
  7 22  1  1
  8  9  1  0
  8 23  1  6
  9 14  1  0
  9 10  1  0
  9 24  1  1
 10 14  1  0
 10 11  1  0
 10 25  1  1
 11 12  1  0
 11 26  1  6
 12 13  1  0
 12 14  1  0
 12 27  1  1
 13 28  1  1
 14 29  1  1
M  END
>  <i_m_ct_stereo_status>  (171) 
1

>  <s_m_source_file>  (171) 
/var/tmp/pbs.5076255.sched01/tmpqwfmwtcs/46j3o47u_k.sdf

>  <i_m_source_file_index>  (171) 
19

>  <i_lp_mmshare_version>  (171) 
48012

>  <i_f3d_flags>  (171) 
2

>  <s_epik_input>  (171) 
W0NAQEhdMTJbQ0BASF0zW0NASF00W0NAQEhdKFtDSDJdMylbQ0BASF0oW0NAQEhdMVtOSF1bT0hdKVtDQEhdNVtDQEBIXTJbQ0BIXTZbQ0BASF00W0NAQEhdNTY=

>  <s_epik_cmdline>  (171) 
J2VwaWtfcHl0aG9uJywgJy1waHQnLCAnMi4wJywgJy1waCcsICc3LjAnLCAnLXRuJywgJzgnLCAnLW1hJywgJzIwMCcsICctaW1hZScsICc8aW5maWxlLm1hZT4nLCAnLW9tYWUnLCAnPG91dGZpbGUubWFlPic=

>  <r_epik_Ionization_Penalty>  (171) 
0.0116969

>  <r_epik_Ionization_Penalty_Charging>  (171) 
0

>  <r_epik_Ionization_Penalty_Neutral>  (171) 
0.0116969

>  <r_epik_State_Penalty>  (171) 
0.183812

>  <r_epik_Charging_Adjusted_Penalty>  (171) 
0.183812

>  <i_epik_Tot_Q>  (171) 
0

>  <i_epik_Tot_abs_Q>  (171) 
0

>  <s_epik_Chemistry_Notes>  (171) 
This compound has a N-S or N-O group and may undergo hydrolysis at high or low pH.

>  <s_lp_Force_Field>  (171) 
OPLS3e

>  <r_lp_Energy>  (171) 
78.3291

>  <b_lp_Chiralities_Consistent>  (171) 
0

>  <s_lp_Variant>  (171) 
46:0-1

>  <s_i_glide_gridfile>  (171) 
pfpi4k_grid

>  <i_i_glide_lignum>  (171) 
19

>  <i_i_glide_rotatable_bonds>  (171) 
2

>  <r_i_docking_score>  (171) 
-3.8841

>  <r_i_glide_ligand_efficiency>  (171) 
-0.277436

>  <r_i_glide_ligand_efficiency_sa>  (171) 
-0.66866

>  <r_i_glide_ligand_efficiency_ln>  (171) 
-1.06734

>  <r_i_glide_gscore>  (171) 
-3.8841

>  <r_i_glide_lipo>  (171) 
-0.127313

>  <r_i_glide_hbond>  (171) 
0

>  <r_i_glide_metal>  (171) 
-0

>  <r_i_glide_rewards>  (171) 
-2.11873

>  <r_i_glide_evdw>  (171) 
-19.7987

>  <r_i_glide_ecoul>  (171) 
-4.26927

>  <r_i_glide_erotb>  (171) 
0

>  <r_i_glide_esite>  (171) 
-0.00774023

>  <r_i_glide_emodel>  (171) 
-29.9456

>  <r_i_glide_energy>  (171) 
-24.0679

>  <r_i_glide_einternal>  (171) 
0.320145

>  <r_i_glide_intrahb_reward>  (171) 
-0

>  <i_i_glide_confnum>  (171) 
1

>  <i_i_glide_posenum>  (171) 
6

>  <r_i_glide_eff_state_penalty>  (171) 
0

>  <ligand_id>  (171) 
46

>  <original_smiles>  (171) 
ONC1C2C3CC4C3C3C5C2C(C41)C35

>  <smiles>  (171) 
[H]ON([H])C1([H])C2([H])C3([H])C([H])([H])C4([H])C1([H])C1([H])C2([H])C2([H])C([H])(C34[H])C12[H]

$$$$
46:0:2
     RDKit          3D

 29 34  0  0  1  0  0  0  0  0999 V2000
    4.0485   -5.8236    0.7452 O   0  0  0  0  0  0  0  0  0  0  0  0
    5.1295   -4.9288    0.3662 N   0  0  0  0  0  0  0  0  0  0  0  0
    4.6865   -4.2466   -0.8419 C   0  0  1  0  0  0  0  0  0  0  0  0
    3.4488   -3.2927   -0.7928 C   0  0  1  0  0  0  0  0  0  0  0  0
    3.8531   -1.9516   -0.0451 C   0  0  1  0  0  0  0  0  0  0  0  0
    5.2003   -1.9374    0.7377 C   0  0  0  0  0  0  0  0  0  0  0  0
    5.7997   -1.9520   -0.7009 C   0  0  2  0  0  0  0  0  0  0  0  0
    4.6516   -0.9216   -0.8921 C   0  0  1  0  0  0  0  0  0  0  0  0
    4.1875   -0.6587   -2.2949 C   0  0  2  0  0  0  0  0  0  0  0  0
    3.1946   -1.6638   -2.8028 C   0  0  1  0  0  0  0  0  0  0  0  0
    3.3446   -3.0756   -2.3223 C   0  0  1  0  0  0  0  0  0  0  0  0
    4.7956   -3.0826   -2.8259 C   0  0  2  0  0  0  0  0  0  0  0  0
    5.6714   -3.2830   -1.5544 C   0  0  2  0  0  0  0  0  0  0  0  0
    4.6097   -1.6777   -3.3033 C   0  0  2  0  0  0  0  0  0  0  0  0
    3.8635   -6.2844   -0.0483 H   0  0  0  0  0  0  0  0  0  0  0  0
    5.8996   -5.5649    0.1995 H   0  0  0  0  0  0  0  0  0  0  0  0
    4.4839   -5.0747   -1.5220 H   0  0  0  0  0  0  0  0  0  0  0  0
    2.5593   -3.7628   -0.3620 H   0  0  0  0  0  0  0  0  0  0  0  0
    3.0273   -1.4704    0.4968 H   0  0  0  0  0  0  0  0  0  0  0  0
    5.3933   -1.0194    1.3105 H   0  0  0  0  0  0  0  0  0  0  0  0
    5.4116   -2.7827    1.3947 H   0  0  0  0  0  0  0  0  0  0  0  0
    6.7881   -1.4777   -0.7424 H   0  0  0  0  0  0  0  0  0  0  0  0
    4.7932    0.0366   -0.3790 H   0  0  0  0  0  0  0  0  0  0  0  0
    4.1025    0.3686   -2.6362 H   0  0  0  0  0  0  0  0  0  0  0  0
    2.4180   -1.4264   -3.5224 H   0  0  0  0  0  0  0  0  0  0  0  0
    2.7260   -3.7961   -2.8487 H   0  0  0  0  0  0  0  0  0  0  0  0
    4.9517   -3.8129   -3.6138 H   0  0  0  0  0  0  0  0  0  0  0  0
    6.6327   -3.7476   -1.7638 H   0  0  0  0  0  0  0  0  0  0  0  0
    4.7843   -1.4292   -4.3419 H   0  0  0  0  0  0  0  0  0  0  0  0
  1  2  1  0
  1 15  1  0
  2  3  1  0
  2 16  1  0
  3 13  1  0
  3  4  1  0
  3 17  1  6
  4 11  1  0
  4  5  1  0
  4 18  1  1
  5  8  1  0
  5  6  1  0
  5 19  1  1
  6  7  1  0
  6 20  1  0
  6 21  1  0
  7 13  1  0
  7  8  1  0
  7 22  1  1
  8  9  1  0
  8 23  1  1
  9 14  1  0
  9 10  1  0
  9 24  1  6
 10 14  1  0
 10 11  1  0
 10 25  1  6
 11 12  1  0
 11 26  1  6
 12 13  1  0
 12 14  1  0
 12 27  1  6
 13 28  1  6
 14 29  1  6
M  END
>  <i_m_ct_stereo_status>  (172) 
1

>  <s_m_source_file>  (172) 
/var/tmp/pbs.5076255.sched01/tmpqwfmwtcs/46j3o47u_k.sdf

>  <i_m_source_file_index>  (172) 
19

>  <i_lp_mmshare_version>  (172) 
48012

>  <i_f3d_flags>  (172) 
2

>  <s_epik_input>  (172) 
W0NAQEhdMTJbQ0BASF0zW0NASF00W0NAQEhdKFtDSDJdMylbQ0BASF0oW0NAQEhdMVtOSF1bT0hdKVtDQEhdNVtDQEBIXTJbQ0BIXTZbQ0BASF00W0NAQEhdNTY=

>  <s_epik_cmdline>  (172) 
J2VwaWtfcHl0aG9uJywgJy1waHQnLCAnMi4wJywgJy1waCcsICc3LjAnLCAnLXRuJywgJzgnLCAnLW1hJywgJzIwMCcsICctaW1hZScsICc8aW5maWxlLm1hZT4nLCAnLW9tYWUnLCAnPG91dGZpbGUubWFlPic=

>  <r_epik_Ionization_Penalty>  (172) 
0.0116969

>  <r_epik_Ionization_Penalty_Charging>  (172) 
0

>  <r_epik_Ionization_Penalty_Neutral>  (172) 
0.0116969

>  <r_epik_State_Penalty>  (172) 
0.183812

>  <r_epik_Charging_Adjusted_Penalty>  (172) 
0.183812

>  <i_epik_Tot_Q>  (172) 
0

>  <i_epik_Tot_abs_Q>  (172) 
0

>  <s_epik_Chemistry_Notes>  (172) 
This compound has a N-S or N-O group and may undergo hydrolysis at high or low pH.

>  <s_lp_Force_Field>  (172) 
OPLS3e

>  <r_lp_Energy>  (172) 
78.3291

>  <b_lp_Chiralities_Consistent>  (172) 
0

>  <s_lp_Variant>  (172) 
46:0-1

>  <s_i_glide_gridfile>  (172) 
pfpi4k_grid

>  <i_i_glide_lignum>  (172) 
19

>  <i_i_glide_rotatable_bonds>  (172) 
2

>  <r_i_docking_score>  (172) 
-3.67828

>  <r_i_glide_ligand_efficiency>  (172) 
-0.262734

>  <r_i_glide_ligand_efficiency_sa>  (172) 
-0.633227

>  <r_i_glide_ligand_efficiency_ln>  (172) 
-1.01078

>  <r_i_glide_gscore>  (172) 
-3.67828

>  <r_i_glide_lipo>  (172) 
-0.436667

>  <r_i_glide_hbond>  (172) 
0

>  <r_i_glide_metal>  (172) 
-0

>  <r_i_glide_rewards>  (172) 
-2.11873

>  <r_i_glide_evdw>  (172) 
-19.5334

>  <r_i_glide_ecoul>  (172) 
-0.974788

>  <r_i_glide_erotb>  (172) 
0

>  <r_i_glide_esite>  (172) 
0

>  <r_i_glide_emodel>  (172) 
-26.2134

>  <r_i_glide_energy>  (172) 
-20.5082

>  <r_i_glide_einternal>  (172) 
0.143581

>  <r_i_glide_intrahb_reward>  (172) 
-0

>  <i_i_glide_confnum>  (172) 
1

>  <i_i_glide_posenum>  (172) 
3

>  <r_i_glide_eff_state_penalty>  (172) 
0

>  <ligand_id>  (172) 
46

>  <original_smiles>  (172) 
ONC1C2C3CC4C3C3C5C2C(C41)C35

>  <smiles>  (172) 
[H]ON([H])C1([H])C2([H])C3([H])C([H])([H])C4([H])C1([H])C1([H])C2([H])C2([H])C([H])(C34[H])C12[H]

$$$$
46:1:0
     RDKit          3D

 29 34  0  0  1  0  0  0  0  0999 V2000
    3.3959   -2.7527   -4.1256 O   0  0  0  0  0  0  0  0  0  0  0  0
    2.8023   -3.4214   -3.1267 N   0  0  0  0  0  0  0  0  0  0  0  0
    3.0634   -2.8959   -1.7291 C   0  0  1  0  0  0  0  0  0  0  0  0
    3.9331   -3.7467   -0.7530 C   0  0  1  0  0  0  0  0  0  0  0  0
    5.4632   -3.6703   -1.1332 C   0  0  1  0  0  0  0  0  0  0  0  0
    5.7901   -3.1032   -2.5462 C   0  0  0  0  0  0  0  0  0  0  0  0
    5.3595   -1.7571   -1.8655 C   0  0  2  0  0  0  0  0  0  0  0  0
    6.2231   -2.3787   -0.7221 C   0  0  1  0  0  0  0  0  0  0  0  0
    5.9955   -1.8722    0.6799 C   0  0  2  0  0  0  0  0  0  0  0  0
    4.8172   -2.4788    1.3548 C   0  0  2  0  0  0  0  0  0  0  0  0
    3.6336   -2.8698    0.5068 C   0  0  1  0  0  0  0  0  0  0  0  0
    3.5697   -1.4291   -0.0226 C   0  0  2  0  0  0  0  0  0  0  0  0
    3.8248   -1.5527   -1.5598 C   0  0  2  0  0  0  0  0  0  0  0  0
    4.7516   -1.0766    0.8382 C   0  0  2  0  0  0  0  0  0  0  0  0
    1.7448   -3.3696   -3.2016 H   0  0  0  0  0  0  0  0  0  0  0  0
    2.0557   -2.8111   -1.3387 H   0  0  0  0  0  0  0  0  0  0  0  0
    3.5606   -4.7686   -0.6491 H   0  0  0  0  0  0  0  0  0  0  0  0
    6.0225   -4.5734   -0.8749 H   0  0  0  0  0  0  0  0  0  0  0  0
    6.8646   -3.1397   -2.7896 H   0  0  0  0  0  0  0  0  0  0  0  0
    5.2461   -3.5252   -3.3273 H   0  0  0  0  0  0  0  0  0  0  0  0
    5.8107   -0.8659   -2.2977 H   0  0  0  0  0  0  0  0  0  0  0  0
    7.2908   -2.4034   -0.9041 H   0  0  0  0  0  0  0  0  0  0  0  0
    6.8752   -1.6124    1.2830 H   0  0  0  0  0  0  0  0  0  0  0  0
    4.8027   -2.6683    2.4358 H   0  0  0  0  0  0  0  0  0  0  0  0
    2.7472   -3.1423    1.0643 H   0  0  0  0  0  0  0  0  0  0  0  0
    2.6524   -0.9286    0.2649 H   0  0  0  0  0  0  0  0  0  0  0  0
    3.3711   -0.7329   -2.1285 H   0  0  0  0  0  0  0  0  0  0  0  0
    4.6900   -0.2364    1.5411 H   0  0  0  0  0  0  0  0  0  0  0  0
    3.0022   -4.4384   -3.1212 H   0  0  0  0  0  0  0  0  0  0  0  0
  1  2  1  0
  2  3  1  0
  2 15  1  0
  2 29  1  0
  3 13  1  0
  3  4  1  0
  3 16  1  1
  4 11  1  0
  4  5  1  0
  4 17  1  1
  5  8  1  0
  5  6  1  0
  5 18  1  6
  6  7  1  0
  6 19  1  0
  6 20  1  0
  7 13  1  0
  7  8  1  0
  7 21  1  6
  8  9  1  0
  8 22  1  6
  9 14  1  0
  9 10  1  0
  9 23  1  1
 10 14  1  0
 10 11  1  0
 10 24  1  1
 11 12  1  0
 11 25  1  1
 12 13  1  0
 12 14  1  0
 12 26  1  6
 13 27  1  6
 14 28  1  1
M  CHG  2   1  -1   2   1
M  END
>  <i_m_ct_stereo_status>  (173) 
1

>  <s_m_source_file>  (173) 
/var/tmp/pbs.5076255.sched01/tmpqwfmwtcs/46j3o47u_k.sdf

>  <i_m_source_file_index>  (173) 
20

>  <i_lp_mmshare_version>  (173) 
48012

>  <i_f3d_flags>  (173) 
2

>  <s_epik_input>  (173) 
W0NAQEhdMTJbQ0BASF0zW0NASF00W0NAQEhdKFtDSDJdMylbQ0BASF0oW0NAQEhdMVtOSF1bT0hdKVtDQEhdNVtDQEBIXTJbQ0BIXTZbQ0BASF00W0NAQEhdNTY=

>  <s_epik_cmdline>  (173) 
J2VwaWtfcHl0aG9uJywgJy1waHQnLCAnMi4wJywgJy1waCcsICc3LjAnLCAnLXRuJywgJzgnLCAnLW1hJywgJzIwMCcsICctaW1hZScsICc8aW5maWxlLm1hZT4nLCAnLW9tYWUnLCAnPG91dGZpbGUubWFlPic=

>  <r_epik_Ionization_Penalty>  (173) 
0.0309063

>  <r_epik_Ionization_Penalty_Charging>  (173) 
0.0309063

>  <r_epik_Ionization_Penalty_Neutral>  (173) 
0

>  <r_epik_State_Penalty>  (173) 
0.808499

>  <r_epik_Charging_Adjusted_Penalty>  (173) 
0.839406

>  <i_epik_Tot_Q>  (173) 
0

>  <i_epik_Tot_abs_Q>  (173) 
2

>  <s_lp_Force_Field>  (173) 
OPLS3e

>  <r_lp_Energy>  (173) 
81.3269

>  <b_lp_Chiralities_Consistent>  (173) 
0

>  <s_lp_Variant>  (173) 
46:0-2

>  <s_i_glide_gridfile>  (173) 
pfpi4k_grid

>  <i_i_glide_lignum>  (173) 
20

>  <i_i_glide_rotatable_bonds>  (173) 
1

>  <r_i_docking_score>  (173) 
-5.4839

>  <r_i_glide_ligand_efficiency>  (173) 
-0.391707

>  <r_i_glide_ligand_efficiency_sa>  (173) 
-0.94407

>  <r_i_glide_ligand_efficiency_ln>  (173) 
-1.50696

>  <r_i_glide_gscore>  (173) 
-5.4839

>  <r_i_glide_lipo>  (173) 
-0.472937

>  <r_i_glide_hbond>  (173) 
-0.507423

>  <r_i_glide_metal>  (173) 
-0

>  <r_i_glide_rewards>  (173) 
-2.11873

>  <r_i_glide_evdw>  (173) 
-19.2811

>  <r_i_glide_ecoul>  (173) 
-9.47172

>  <r_i_glide_erotb>  (173) 
0

>  <r_i_glide_esite>  (173) 
0

>  <r_i_glide_emodel>  (173) 
-34.232

>  <r_i_glide_energy>  (173) 
-28.7529

>  <r_i_glide_einternal>  (173) 
4.44598

>  <r_i_glide_intrahb_reward>  (173) 
-0

>  <i_i_glide_confnum>  (173) 
1

>  <i_i_glide_posenum>  (173) 
40

>  <r_i_glide_eff_state_penalty>  (173) 
0

>  <ligand_id>  (173) 
46

>  <original_smiles>  (173) 
ONC1C2C3CC4C3C3C5C2C(C41)C35

>  <smiles>  (173) 
[H]C1([H])C2([H])C3([H])C1([H])C1([H])C4([H])C5([H])C3([H])C5([H])C4([H])C2([H])C1([H])[N+]([H])([H])[O-]

$$$$
46:1:1
     RDKit          3D

 29 34  0  0  1  0  0  0  0  0999 V2000
    4.7029   -4.1104   -4.4756 O   0  0  0  0  0  0  0  0  0  0  0  0
    4.0551   -3.8383   -3.3323 N   0  0  0  0  0  0  0  0  0  0  0  0
    4.9553   -3.7941   -2.1316 C   0  0  1  0  0  0  0  0  0  0  0  0
    6.0048   -2.6643   -2.1050 C   0  0  1  0  0  0  0  0  0  0  0  0
    5.2757   -1.2914   -1.8369 C   0  0  1  0  0  0  0  0  0  0  0  0
    3.7347   -1.2609   -1.9794 C   0  0  0  0  0  0  0  0  0  0  0  0
    3.7921   -2.0772   -0.6606 C   0  0  2  0  0  0  0  0  0  0  0  0
    4.8727   -0.9886   -0.3536 C   0  0  1  0  0  0  0  0  0  0  0  0
    5.8696   -1.2798    0.7141 C   0  0  2  0  0  0  0  0  0  0  0  0
    6.9936   -2.1404    0.2416 C   0  0  1  0  0  0  0  0  0  0  0  0
    6.7289   -3.1612   -0.8342 C   0  0  1  0  0  0  0  0  0  0  0  0
    5.6025   -3.7612    0.0504 C   0  0  2  0  0  0  0  0  0  0  0  0
    4.2940   -3.5588   -0.7546 C   0  0  2  0  0  0  0  0  0  0  0  0
    5.9148   -2.7269    1.0954 C   0  0  2  0  0  0  0  0  0  0  0  0
    3.5488   -2.9277   -3.3606 H   0  0  0  0  0  0  0  0  0  0  0  0
    5.4047   -4.7942   -2.1522 H   0  0  0  0  0  0  0  0  0  0  0  0
    6.6385   -2.6891   -2.9838 H   0  0  0  0  0  0  0  0  0  0  0  0
    5.7324   -0.4037   -2.2668 H   0  0  0  0  0  0  0  0  0  0  0  0
    3.2867   -0.2988   -1.8934 H   0  0  0  0  0  0  0  0  0  0  0  0
    3.2878   -1.7199   -2.8511 H   0  0  0  0  0  0  0  0  0  0  0  0
    2.9214   -1.9160   -0.0280 H   0  0  0  0  0  0  0  0  0  0  0  0
    4.4432    0.0176   -0.1975 H   0  0  0  0  0  0  0  0  0  0  0  0
    6.0829   -0.5345    1.4909 H   0  0  0  0  0  0  0  0  0  0  0  0
    7.9963   -2.0979    0.6727 H   0  0  0  0  0  0  0  0  0  0  0  0
    7.5603   -3.8595   -0.9815 H   0  0  0  0  0  0  0  0  0  0  0  0
    5.8494   -4.7877    0.3489 H   0  0  0  0  0  0  0  0  0  0  0  0
    3.5287   -4.2928   -0.5270 H   0  0  0  0  0  0  0  0  0  0  0  0
    6.1981   -3.0668    2.0927 H   0  0  0  0  0  0  0  0  0  0  0  0
    3.3400   -4.5645   -3.1006 H   0  0  0  0  0  0  0  0  0  0  0  0
  1  2  1  0
  2  3  1  0
  2 15  1  0
  2 29  1  0
  3 13  1  0
  3  4  1  0
  3 16  1  1
  4 11  1  0
  4  5  1  0
  4 17  1  6
  5  8  1  0
  5  6  1  0
  5 18  1  6
  6  7  1  0
  6 19  1  0
  6 20  1  0
  7 13  1  0
  7  8  1  0
  7 21  1  1
  8  9  1  0
  8 22  1  6
  9 14  1  0
  9 10  1  0
  9 23  1  1
 10 14  1  0
 10 11  1  0
 10 24  1  1
 11 12  1  0
 11 25  1  6
 12 13  1  0
 12 14  1  0
 12 26  1  1
 13 27  1  1
 14 28  1  1
M  CHG  2   1  -1   2   1
M  END
>  <i_m_ct_stereo_status>  (174) 
1

>  <s_m_source_file>  (174) 
/var/tmp/pbs.5076255.sched01/tmpqwfmwtcs/46j3o47u_k.sdf

>  <i_m_source_file_index>  (174) 
20

>  <i_lp_mmshare_version>  (174) 
48012

>  <i_f3d_flags>  (174) 
2

>  <s_epik_input>  (174) 
W0NAQEhdMTJbQ0BASF0zW0NASF00W0NAQEhdKFtDSDJdMylbQ0BASF0oW0NAQEhdMVtOSF1bT0hdKVtDQEhdNVtDQEBIXTJbQ0BIXTZbQ0BASF00W0NAQEhdNTY=

>  <s_epik_cmdline>  (174) 
J2VwaWtfcHl0aG9uJywgJy1waHQnLCAnMi4wJywgJy1waCcsICc3LjAnLCAnLXRuJywgJzgnLCAnLW1hJywgJzIwMCcsICctaW1hZScsICc8aW5maWxlLm1hZT4nLCAnLW9tYWUnLCAnPG91dGZpbGUubWFlPic=

>  <r_epik_Ionization_Penalty>  (174) 
0.0309063

>  <r_epik_Ionization_Penalty_Charging>  (174) 
0.0309063

>  <r_epik_Ionization_Penalty_Neutral>  (174) 
0

>  <r_epik_State_Penalty>  (174) 
0.808499

>  <r_epik_Charging_Adjusted_Penalty>  (174) 
0.839406

>  <i_epik_Tot_Q>  (174) 
0

>  <i_epik_Tot_abs_Q>  (174) 
2

>  <s_lp_Force_Field>  (174) 
OPLS3e

>  <r_lp_Energy>  (174) 
81.3269

>  <b_lp_Chiralities_Consistent>  (174) 
0

>  <s_lp_Variant>  (174) 
46:0-2

>  <s_i_glide_gridfile>  (174) 
pfpi4k_grid

>  <i_i_glide_lignum>  (174) 
20

>  <i_i_glide_rotatable_bonds>  (174) 
1

>  <r_i_docking_score>  (174) 
-4.92217

>  <r_i_glide_ligand_efficiency>  (174) 
-0.351583

>  <r_i_glide_ligand_efficiency_sa>  (174) 
-0.847366

>  <r_i_glide_ligand_efficiency_ln>  (174) 
-1.35259

>  <r_i_glide_gscore>  (174) 
-4.92217

>  <r_i_glide_lipo>  (174) 
-0.403895

>  <r_i_glide_hbond>  (174) 
-0.324937

>  <r_i_glide_metal>  (174) 
-0

>  <r_i_glide_rewards>  (174) 
-2.11873

>  <r_i_glide_evdw>  (174) 
-15.0091

>  <r_i_glide_ecoul>  (174) 
-8.70842

>  <r_i_glide_erotb>  (174) 
0

>  <r_i_glide_esite>  (174) 
-0.0178927

>  <r_i_glide_emodel>  (174) 
-32.4832

>  <r_i_glide_energy>  (174) 
-23.7175

>  <r_i_glide_einternal>  (174) 
0.0628632

>  <r_i_glide_intrahb_reward>  (174) 
-0

>  <i_i_glide_confnum>  (174) 
1

>  <i_i_glide_posenum>  (174) 
5

>  <r_i_glide_eff_state_penalty>  (174) 
0

>  <ligand_id>  (174) 
46

>  <original_smiles>  (174) 
ONC1C2C3CC4C3C3C5C2C(C41)C35

>  <smiles>  (174) 
[H]C1([H])C2([H])C3([H])C1([H])C1([H])C4([H])C5([H])C3([H])C5([H])C4([H])C2([H])C1([H])[N+]([H])([H])[O-]

$$$$
46:1:2
     RDKit          3D

 29 34  0  0  1  0  0  0  0  0999 V2000
    1.5717   -5.4540    0.3075 O   0  0  0  0  0  0  0  0  0  0  0  0
    2.8822   -5.2163    0.0905 N   0  0  0  0  0  0  0  0  0  0  0  0
    3.4335   -4.0712    0.9053 C   0  0  1  0  0  0  0  0  0  0  0  0
    4.9713   -3.8314    0.8699 C   0  0  1  0  0  0  0  0  0  0  0  0
    5.4093   -3.2328   -0.5374 C   0  0  1  0  0  0  0  0  0  0  0  0
    4.3658   -3.2818   -1.6861 C   0  0  0  0  0  0  0  0  0  0  0  0
    3.6727   -2.1824   -0.8398 C   0  0  2  0  0  0  0  0  0  0  0  0
    5.1539   -1.7010   -0.7252 C   0  0  1  0  0  0  0  0  0  0  0  0
    5.5107   -0.7853    0.4016 C   0  0  2  0  0  0  0  0  0  0  0  0
    5.7471   -1.4843    1.7094 C   0  0  2  0  0  0  0  0  0  0  0  0
    4.9614   -2.7400    1.9759 C   0  0  1  0  0  0  0  0  0  0  0  0
    3.6560   -1.9524    1.7445 C   0  0  2  0  0  0  0  0  0  0  0  0
    2.9871   -2.6335    0.5226 C   0  0  2  0  0  0  0  0  0  0  0  0
    4.4667   -0.7135    1.4786 C   0  0  2  0  0  0  0  0  0  0  0  0
    3.4806   -6.0326    0.3380 H   0  0  0  0  0  0  0  0  0  0  0  0
    3.1063   -4.3347    1.9206 H   0  0  0  0  0  0  0  0  0  0  0  0
    5.5406   -4.7170    1.1500 H   0  0  0  0  0  0  0  0  0  0  0  0
    6.4233   -3.5143   -0.8470 H   0  0  0  0  0  0  0  0  0  0  0  0
    4.7379   -2.9411   -2.6539 H   0  0  0  0  0  0  0  0  0  0  0  0
    3.8289   -4.2082   -1.8503 H   0  0  0  0  0  0  0  0  0  0  0  0
    3.0623   -1.4827   -1.4297 H   0  0  0  0  0  0  0  0  0  0  0  0
    5.5538   -1.2941   -1.6621 H   0  0  0  0  0  0  0  0  0  0  0  0
    6.0907    0.1070    0.1819 H   0  0  0  0  0  0  0  0  0  0  0  0
    6.4635   -1.1105    2.4441 H   0  0  0  0  0  0  0  0  0  0  0  0
    5.0399   -3.1118    2.9947 H   0  0  0  0  0  0  0  0  0  0  0  0
    3.0375   -1.9016    2.6393 H   0  0  0  0  0  0  0  0  0  0  0  0
    1.9074   -2.5224    0.5118 H   0  0  0  0  0  0  0  0  0  0  0  0
    4.2849    0.1974    2.0522 H   0  0  0  0  0  0  0  0  0  0  0  0
    3.1066   -4.9997   -0.9059 H   0  0  0  0  0  0  0  0  0  0  0  0
  1  2  1  0
  2  3  1  0
  2 15  1  0
  2 29  1  0
  3 13  1  0
  3  4  1  0
  3 16  1  1
  4 11  1  0
  4  5  1  0
  4 17  1  1
  5  8  1  0
  5  6  1  0
  5 18  1  6
  6  7  1  0
  6 19  1  0
  6 20  1  0
  7 13  1  0
  7  8  1  0
  7 21  1  6
  8  9  1  0
  8 22  1  6
  9 14  1  0
  9 10  1  0
  9 23  1  6
 10 14  1  0
 10 11  1  0
 10 24  1  1
 11 12  1  0
 11 25  1  1
 12 13  1  0
 12 14  1  0
 12 26  1  1
 13 27  1  6
 14 28  1  1
M  CHG  2   1  -1   2   1
M  END
>  <i_m_ct_stereo_status>  (175) 
1

>  <s_m_source_file>  (175) 
/var/tmp/pbs.5076255.sched01/tmpqwfmwtcs/46j3o47u_k.sdf

>  <i_m_source_file_index>  (175) 
20

>  <i_lp_mmshare_version>  (175) 
48012

>  <i_f3d_flags>  (175) 
2

>  <s_epik_input>  (175) 
W0NAQEhdMTJbQ0BASF0zW0NASF00W0NAQEhdKFtDSDJdMylbQ0BASF0oW0NAQEhdMVtOSF1bT0hdKVtDQEhdNVtDQEBIXTJbQ0BIXTZbQ0BASF00W0NAQEhdNTY=

>  <s_epik_cmdline>  (175) 
J2VwaWtfcHl0aG9uJywgJy1waHQnLCAnMi4wJywgJy1waCcsICc3LjAnLCAnLXRuJywgJzgnLCAnLW1hJywgJzIwMCcsICctaW1hZScsICc8aW5maWxlLm1hZT4nLCAnLW9tYWUnLCAnPG91dGZpbGUubWFlPic=

>  <r_epik_Ionization_Penalty>  (175) 
0.0309063

>  <r_epik_Ionization_Penalty_Charging>  (175) 
0.0309063

>  <r_epik_Ionization_Penalty_Neutral>  (175) 
0

>  <r_epik_State_Penalty>  (175) 
0.808499

>  <r_epik_Charging_Adjusted_Penalty>  (175) 
0.839406

>  <i_epik_Tot_Q>  (175) 
0

>  <i_epik_Tot_abs_Q>  (175) 
2

>  <s_lp_Force_Field>  (175) 
OPLS3e

>  <r_lp_Energy>  (175) 
81.3269

>  <b_lp_Chiralities_Consistent>  (175) 
0

>  <s_lp_Variant>  (175) 
46:0-2

>  <s_i_glide_gridfile>  (175) 
pfpi4k_grid

>  <i_i_glide_lignum>  (175) 
20

>  <i_i_glide_rotatable_bonds>  (175) 
1

>  <r_i_docking_score>  (175) 
-4.84589

>  <r_i_glide_ligand_efficiency>  (175) 
-0.346135

>  <r_i_glide_ligand_efficiency_sa>  (175) 
-0.834234

>  <r_i_glide_ligand_efficiency_ln>  (175) 
-1.33163

>  <r_i_glide_gscore>  (175) 
-4.84589

>  <r_i_glide_lipo>  (175) 
-0.497144

>  <r_i_glide_hbond>  (175) 
-0.313707

>  <r_i_glide_metal>  (175) 
-0

>  <r_i_glide_rewards>  (175) 
-2.11873

>  <r_i_glide_evdw>  (175) 
-14.5553

>  <r_i_glide_ecoul>  (175) 
-7.61195

>  <r_i_glide_erotb>  (175) 
0

>  <r_i_glide_esite>  (175) 
-0.0467534

>  <r_i_glide_emodel>  (175) 
-30.6735

>  <r_i_glide_energy>  (175) 
-22.1673

>  <r_i_glide_einternal>  (175) 
0.182476

>  <r_i_glide_intrahb_reward>  (175) 
-0

>  <i_i_glide_confnum>  (175) 
2

>  <i_i_glide_posenum>  (175) 
17

>  <r_i_glide_eff_state_penalty>  (175) 
0

>  <ligand_id>  (175) 
46

>  <original_smiles>  (175) 
ONC1C2C3CC4C3C3C5C2C(C41)C35

>  <smiles>  (175) 
[H]C1([H])C2([H])C3([H])C1([H])C1([H])C4([H])C5([H])C3([H])C5([H])C4([H])C2([H])C1([H])[N+]([H])([H])[O-]

$$$$
46:2:0
     RDKit          3D

 30 35  0  0  1  0  0  0  0  0999 V2000
    1.4132   -4.2143   -1.4965 O   0  0  0  0  0  0  0  0  0  0  0  0
    2.2421   -3.0336   -1.5513 N   0  0  0  0  0  0  0  0  0  0  0  0
    3.3215   -3.0283   -0.5339 C   0  0  1  0  0  0  0  0  0  0  0  0
    4.5407   -3.9728   -0.7346 C   0  0  1  0  0  0  0  0  0  0  0  0
    5.4379   -3.4343   -1.9373 C   0  0  1  0  0  0  0  0  0  0  0  0
    4.8255   -2.3321   -2.8254 C   0  0  0  0  0  0  0  0  0  0  0  0
    5.0649   -1.4454   -1.5784 C   0  0  2  0  0  0  0  0  0  0  0  0
    6.3961   -2.2659   -1.5760 C   0  0  1  0  0  0  0  0  0  0  0  0
    7.1802   -2.3315   -0.3164 C   0  0  2  0  0  0  0  0  0  0  0  0
    6.6737   -3.3681    0.6316 C   0  0  1  0  0  0  0  0  0  0  0  0
    5.2020   -3.6659    0.6360 C   0  0  1  0  0  0  0  0  0  0  0  0
    4.9154   -2.1780    0.8952 C   0  0  2  0  0  0  0  0  0  0  0  0
    4.1067   -1.6989   -0.3352 C   0  0  2  0  0  0  0  0  0  0  0  0
    6.3935   -1.9078    0.8813 C   0  0  2  0  0  0  0  0  0  0  0  0
    1.9199   -4.8502   -2.0040 H   0  0  0  0  0  0  0  0  0  0  0  0
    2.6509   -2.9017   -2.4627 H   0  0  0  0  0  0  0  0  0  0  0  0
    2.7874   -3.2764    0.3861 H   0  0  0  0  0  0  0  0  0  0  0  0
    4.2776   -5.0237   -0.8554 H   0  0  0  0  0  0  0  0  0  0  0  0
    5.9555   -4.2182   -2.5035 H   0  0  0  0  0  0  0  0  0  0  0  0
    5.4013   -2.0540   -3.6933 H   0  0  0  0  0  0  0  0  0  0  0  0
    3.8190   -2.4460   -3.2057 H   0  0  0  0  0  0  0  0  0  0  0  0
    5.2438   -0.3964   -1.8081 H   0  0  0  0  0  0  0  0  0  0  0  0
    7.0921   -2.0119   -2.3745 H   0  0  0  0  0  0  0  0  0  0  0  0
    8.2488   -2.1238   -0.3374 H   0  0  0  0  0  0  0  0  0  0  0  0
    7.3298   -3.8803    1.3248 H   0  0  0  0  0  0  0  0  0  0  0  0
    4.8855   -4.2923    1.4691 H   0  0  0  0  0  0  0  0  0  0  0  0
    4.4492   -2.0171    1.8679 H   0  0  0  0  0  0  0  0  0  0  0  0
    3.4595   -0.8428   -0.1236 H   0  0  0  0  0  0  0  0  0  0  0  0
    6.8610   -1.4378    1.7375 H   0  0  0  0  0  0  0  0  0  0  0  0
    1.6976   -2.1742   -1.3599 H   0  0  0  0  0  0  0  0  0  0  0  0
  1  2  1  0
  1 15  1  0
  2  3  1  0
  2 16  1  0
  2 30  1  0
  3 13  1  0
  3  4  1  0
  3 17  1  1
  4 11  1  0
  4  5  1  0
  4 18  1  6
  5  8  1  0
  5  6  1  0
  5 19  1  6
  6  7  1  0
  6 20  1  0
  6 21  1  0
  7 13  1  0
  7  8  1  0
  7 22  1  6
  8  9  1  0
  8 23  1  6
  9 14  1  0
  9 10  1  0
  9 24  1  6
 10 14  1  0
 10 11  1  0
 10 25  1  1
 11 12  1  0
 11 26  1  1
 12 13  1  0
 12 14  1  0
 12 27  1  1
 13 28  1  1
 14 29  1  1
M  CHG  1   2   1
M  END
>  <i_m_ct_stereo_status>  (176) 
1

>  <s_m_source_file>  (176) 
/var/tmp/pbs.5076255.sched01/tmpqwfmwtcs/46j3o47u_k.sdf

>  <i_m_source_file_index>  (176) 
21

>  <i_lp_mmshare_version>  (176) 
48012

>  <i_f3d_flags>  (176) 
2

>  <s_epik_input>  (176) 
W0NAQEhdMTJbQ0BASF0zW0NASF00W0NAQEhdKFtDSDJdMylbQ0BASF0oW0NAQEhdMVtOSF1bT0hdKVtDQEhdNVtDQEBIXTJbQ0BIXTZbQ0BASF00W0NAQEhdNTY=

>  <s_epik_cmdline>  (176) 
J2VwaWtfcHl0aG9uJywgJy1waHQnLCAnMi4wJywgJy1waCcsICc3LjAnLCAnLXRuJywgJzgnLCAnLW1hJywgJzIwMCcsICctaW1hZScsICc8aW5maWxlLm1hZT4nLCAnLW9tYWUnLCAnPG91dGZpbGUubWFlPic=

>  <r_epik_Ionization_Penalty>  (176) 
4.09663

>  <r_epik_Ionization_Penalty_Charging>  (176) 
2.33142

>  <r_epik_Ionization_Penalty_Neutral>  (176) 
1.76521

>  <r_epik_State_Penalty>  (176) 
2.65914

>  <r_epik_Charging_Adjusted_Penalty>  (176) 
4.99057

>  <i_epik_Tot_Q>  (176) 
1

>  <i_epik_Tot_abs_Q>  (176) 
1

>  <s_epik_Chemistry_Notes>  (176) 
This compound has a N-S or N-O group and may undergo hydrolysis at high or low pH.

>  <s_lp_Force_Field>  (176) 
OPLS3e

>  <r_lp_Energy>  (176) 
88.5016

>  <b_lp_Chiralities_Consistent>  (176) 
0

>  <s_lp_Variant>  (176) 
46:0-3

>  <s_i_glide_gridfile>  (176) 
pfpi4k_grid

>  <i_i_glide_lignum>  (176) 
21

>  <i_i_glide_rotatable_bonds>  (176) 
2

>  <r_i_docking_score>  (176) 
-5.7272

>  <r_i_glide_ligand_efficiency>  (176) 
-0.409085

>  <r_i_glide_ligand_efficiency_sa>  (176) 
-0.985954

>  <r_i_glide_ligand_efficiency_ln>  (176) 
-1.57381

>  <r_i_glide_gscore>  (176) 
-5.7272

>  <r_i_glide_lipo>  (176) 
-0.51791

>  <r_i_glide_hbond>  (176) 
-0.52

>  <r_i_glide_metal>  (176) 
-0

>  <r_i_glide_rewards>  (176) 
-2.11185

>  <r_i_glide_evdw>  (176) 
-15.0138

>  <r_i_glide_ecoul>  (176) 
-12.1513

>  <r_i_glide_erotb>  (176) 
0

>  <r_i_glide_esite>  (176) 
-0.00405104

>  <r_i_glide_emodel>  (176) 
-41.5351

>  <r_i_glide_energy>  (176) 
-27.1651

>  <r_i_glide_einternal>  (176) 
0.123002

>  <r_i_glide_intrahb_reward>  (176) 
-0

>  <i_i_glide_confnum>  (176) 
1

>  <i_i_glide_posenum>  (176) 
39

>  <r_i_glide_eff_state_penalty>  (176) 
0

>  <ligand_id>  (176) 
46

>  <original_smiles>  (176) 
ONC1C2C3CC4C3C3C5C2C(C41)C35

>  <smiles>  (176) 
[H]O[N+]([H])([H])C1([H])C2([H])C3([H])C([H])([H])C4([H])C3([H])C3([H])C5([H])C3([H])C([H])(C52[H])C41[H]

$$$$
46:2:1
     RDKit          3D

 30 35  0  0  1  0  0  0  0  0999 V2000
    1.1017   -4.2717   -1.4935 O   0  0  0  0  0  0  0  0  0  0  0  0
    1.8891   -3.0834   -1.7486 N   0  0  0  0  0  0  0  0  0  0  0  0
    3.0046   -2.9374   -0.7570 C   0  0  1  0  0  0  0  0  0  0  0  0
    4.1151   -4.0091   -0.7646 C   0  0  1  0  0  0  0  0  0  0  0  0
    4.9853   -3.8247   -2.0791 C   0  0  1  0  0  0  0  0  0  0  0  0
    4.4650   -2.8863   -3.1837 C   0  0  0  0  0  0  0  0  0  0  0  0
    4.8203   -1.7924   -2.1608 C   0  0  2  0  0  0  0  0  0  0  0  0
    6.0805   -2.7112   -2.0181 C   0  0  1  0  0  0  0  0  0  0  0  0
    6.9102   -2.5935   -0.8039 C   0  0  2  0  0  0  0  0  0  0  0  0
    6.3315   -3.3453    0.3710 C   0  0  1  0  0  0  0  0  0  0  0  0
    4.8504   -3.4783    0.4822 C   0  0  1  0  0  0  0  0  0  0  0  0
    4.7184   -1.9535    0.4135 C   0  0  2  0  0  0  0  0  0  0  0  0
    3.9049   -1.6711   -0.8671 C   0  0  2  0  0  0  0  0  0  0  0  0
    6.2049   -1.8433    0.3018 C   0  0  2  0  0  0  0  0  0  0  0  0
    0.7787   -4.5297   -2.4047 H   0  0  0  0  0  0  0  0  0  0  0  0
    2.2619   -3.0275   -2.6873 H   0  0  0  0  0  0  0  0  0  0  0  0
    2.4631   -2.9338    0.2015 H   0  0  0  0  0  0  0  0  0  0  0  0
    3.7445   -5.0282   -0.6481 H   0  0  0  0  0  0  0  0  0  0  0  0
    5.3455   -4.7588   -2.4991 H   0  0  0  0  0  0  0  0  0  0  0  0
    5.0794   -2.8969   -4.0746 H   0  0  0  0  0  0  0  0  0  0  0  0
    3.4429   -2.9868   -3.5183 H   0  0  0  0  0  0  0  0  0  0  0  0
    5.0861   -0.8347   -2.6208 H   0  0  0  0  0  0  0  0  0  0  0  0
    6.7324   -2.7062   -2.9169 H   0  0  0  0  0  0  0  0  0  0  0  0
    7.9918   -2.5152   -0.8755 H   0  0  0  0  0  0  0  0  0  0  0  0
    6.9605   -3.7457    1.1525 H   0  0  0  0  0  0  0  0  0  0  0  0
    4.5210   -3.8682    1.4520 H   0  0  0  0  0  0  0  0  0  0  0  0
    4.3194   -1.5434    1.3451 H   0  0  0  0  0  0  0  0  0  0  0  0
    3.3452   -0.7414   -0.8325 H   0  0  0  0  0  0  0  0  0  0  0  0
    6.7502   -1.2874    1.0492 H   0  0  0  0  0  0  0  0  0  0  0  0
    1.3517   -2.2585   -1.5280 H   0  0  0  0  0  0  0  0  0  0  0  0
  1  2  1  0
  1 15  1  0
  2  3  1  0
  2 16  1  0
  2 30  1  0
  3 13  1  0
  3  4  1  0
  3 17  1  1
  4 11  1  0
  4  5  1  0
  4 18  1  1
  5  8  1  0
  5  6  1  0
  5 19  1  6
  6  7  1  0
  6 20  1  0
  6 21  1  0
  7 13  1  0
  7  8  1  0
  7 22  1  6
  8  9  1  0
  8 23  1  6
  9 14  1  0
  9 10  1  0
  9 24  1  6
 10 14  1  0
 10 11  1  0
 10 25  1  1
 11 12  1  0
 11 26  1  1
 12 13  1  0
 12 14  1  0
 12 27  1  1
 13 28  1  1
 14 29  1  1
M  CHG  1   2   1
M  END
>  <i_m_ct_stereo_status>  (177) 
1

>  <s_m_source_file>  (177) 
/var/tmp/pbs.5076255.sched01/tmpqwfmwtcs/46j3o47u_k.sdf

>  <i_m_source_file_index>  (177) 
21

>  <i_lp_mmshare_version>  (177) 
48012

>  <i_f3d_flags>  (177) 
2

>  <s_epik_input>  (177) 
W0NAQEhdMTJbQ0BASF0zW0NASF00W0NAQEhdKFtDSDJdMylbQ0BASF0oW0NAQEhdMVtOSF1bT0hdKVtDQEhdNVtDQEBIXTJbQ0BIXTZbQ0BASF00W0NAQEhdNTY=

>  <s_epik_cmdline>  (177) 
J2VwaWtfcHl0aG9uJywgJy1waHQnLCAnMi4wJywgJy1waCcsICc3LjAnLCAnLXRuJywgJzgnLCAnLW1hJywgJzIwMCcsICctaW1hZScsICc8aW5maWxlLm1hZT4nLCAnLW9tYWUnLCAnPG91dGZpbGUubWFlPic=

>  <r_epik_Ionization_Penalty>  (177) 
4.09663

>  <r_epik_Ionization_Penalty_Charging>  (177) 
2.33142

>  <r_epik_Ionization_Penalty_Neutral>  (177) 
1.76521

>  <r_epik_State_Penalty>  (177) 
2.65914

>  <r_epik_Charging_Adjusted_Penalty>  (177) 
4.99057

>  <i_epik_Tot_Q>  (177) 
1

>  <i_epik_Tot_abs_Q>  (177) 
1

>  <s_epik_Chemistry_Notes>  (177) 
This compound has a N-S or N-O group and may undergo hydrolysis at high or low pH.

>  <s_lp_Force_Field>  (177) 
OPLS3e

>  <r_lp_Energy>  (177) 
88.5016

>  <b_lp_Chiralities_Consistent>  (177) 
0

>  <s_lp_Variant>  (177) 
46:0-3

>  <s_i_glide_gridfile>  (177) 
pfpi4k_grid

>  <i_i_glide_lignum>  (177) 
21

>  <i_i_glide_rotatable_bonds>  (177) 
2

>  <r_i_docking_score>  (177) 
-5.62511

>  <r_i_glide_ligand_efficiency>  (177) 
-0.401794

>  <r_i_glide_ligand_efficiency_sa>  (177) 
-0.96838

>  <r_i_glide_ligand_efficiency_ln>  (177) 
-1.54576

>  <r_i_glide_gscore>  (177) 
-5.62511

>  <r_i_glide_lipo>  (177) 
-0.312786

>  <r_i_glide_hbond>  (177) 
-0.523559

>  <r_i_glide_metal>  (177) 
-0

>  <r_i_glide_rewards>  (177) 
-2.11185

>  <r_i_glide_evdw>  (177) 
-13.8046

>  <r_i_glide_ecoul>  (177) 
-13.2182

>  <r_i_glide_erotb>  (177) 
0

>  <r_i_glide_esite>  (177) 
-0.00394698

>  <r_i_glide_emodel>  (177) 
-41.2225

>  <r_i_glide_energy>  (177) 
-27.0229

>  <r_i_glide_einternal>  (177) 
3.17394e-05

>  <r_i_glide_intrahb_reward>  (177) 
-0

>  <i_i_glide_confnum>  (177) 
1

>  <i_i_glide_posenum>  (177) 
22

>  <r_i_glide_eff_state_penalty>  (177) 
0

>  <ligand_id>  (177) 
46

>  <original_smiles>  (177) 
ONC1C2C3CC4C3C3C5C2C(C41)C35

>  <smiles>  (177) 
[H]O[N+]([H])([H])C1([H])C2([H])C3([H])C([H])([H])C4([H])C3([H])C3([H])C5([H])C3([H])C([H])(C52[H])C41[H]

$$$$
46:2:2
     RDKit          3D

 30 35  0  0  1  0  0  0  0  0999 V2000
    2.7135   -2.6538   -3.9020 O   0  0  0  0  0  0  0  0  0  0  0  0
    2.3693   -3.4243   -2.7041 N   0  0  0  0  0  0  0  0  0  0  0  0
    2.9205   -2.8664   -1.4369 C   0  0  1  0  0  0  0  0  0  0  0  0
    3.8783   -3.7165   -0.5521 C   0  0  1  0  0  0  0  0  0  0  0  0
    5.3159   -3.7814   -1.2236 C   0  0  1  0  0  0  0  0  0  0  0  0
    5.4363   -3.3046   -2.6854 C   0  0  0  0  0  0  0  0  0  0  0  0
    5.1977   -1.9051   -2.0406 C   0  0  2  0  0  0  0  0  0  0  0  0
    6.2109   -2.5193   -1.0206 C   0  0  1  0  0  0  0  0  0  0  0  0
    6.2965   -1.9241    0.3469 C   0  0  2  0  0  0  0  0  0  0  0  0
    5.2233   -2.4104    1.2745 C   0  0  2  0  0  0  0  0  0  0  0  0
    3.8811   -2.7598    0.6755 C   0  0  1  0  0  0  0  0  0  0  0  0
    3.8065   -1.3471    0.0741 C   0  0  2  0  0  0  0  0  0  0  0  0
    3.7648   -1.5660   -1.4626 C   0  0  2  0  0  0  0  0  0  0  0  0
    5.1467   -1.0261    0.6839 C   0  0  2  0  0  0  0  0  0  0  0  0
    1.9362   -2.6868   -4.4405 H   0  0  0  0  0  0  0  0  0  0  0  0
    1.3551   -3.4256   -2.6001 H   0  0  0  0  0  0  0  0  0  0  0  0
    1.9983   -2.6971   -0.8804 H   0  0  0  0  0  0  0  0  0  0  0  0
    3.4785   -4.7017   -0.3155 H   0  0  0  0  0  0  0  0  0  0  0  0
    5.8418   -4.7096   -1.0199 H   0  0  0  0  0  0  0  0  0  0  0  0
    6.4214   -3.4261   -3.1381 H   0  0  0  0  0  0  0  0  0  0  0  0
    4.7164   -3.7564   -3.3627 H   0  0  0  0  0  0  0  0  0  0  0  0
    5.6243   -1.0695   -2.5859 H   0  0  0  0  0  0  0  0  0  0  0  0
    7.2328   -2.6358   -1.4117 H   0  0  0  0  0  0  0  0  0  0  0  0
    7.2771   -1.6961    0.7628 H   0  0  0  0  0  0  0  0  0  0  0  0
    5.4213   -2.5533    2.3332 H   0  0  0  0  0  0  0  0  0  0  0  0
    3.0928   -2.9415    1.4099 H   0  0  0  0  0  0  0  0  0  0  0  0
    2.9757   -0.7640    0.4811 H   0  0  0  0  0  0  0  0  0  0  0  0
    3.2707   -0.7466   -1.9885 H   0  0  0  0  0  0  0  0  0  0  0  0
    5.2896   -0.1428    1.3006 H   0  0  0  0  0  0  0  0  0  0  0  0
    2.6513   -4.3996   -2.7917 H   0  0  0  0  0  0  0  0  0  0  0  0
  1  2  1  0
  1 15  1  0
  2  3  1  0
  2 16  1  0
  2 30  1  0
  3 13  1  0
  3  4  1  0
  3 17  1  1
  4 11  1  0
  4  5  1  0
  4 18  1  1
  5  8  1  0
  5  6  1  0
  5 19  1  6
  6  7  1  0
  6 20  1  0
  6 21  1  0
  7 13  1  0
  7  8  1  0
  7 22  1  6
  8  9  1  0
  8 23  1  6
  9 14  1  0
  9 10  1  0
  9 24  1  1
 10 14  1  0
 10 11  1  0
 10 25  1  1
 11 12  1  0
 11 26  1  1
 12 13  1  0
 12 14  1  0
 12 27  1  1
 13 28  1  6
 14 29  1  1
M  CHG  1   2   1
M  END
>  <i_m_ct_stereo_status>  (178) 
1

>  <s_m_source_file>  (178) 
/var/tmp/pbs.5076255.sched01/tmpqwfmwtcs/46j3o47u_k.sdf

>  <i_m_source_file_index>  (178) 
21

>  <i_lp_mmshare_version>  (178) 
48012

>  <i_f3d_flags>  (178) 
2

>  <s_epik_input>  (178) 
W0NAQEhdMTJbQ0BASF0zW0NASF00W0NAQEhdKFtDSDJdMylbQ0BASF0oW0NAQEhdMVtOSF1bT0hdKVtDQEhdNVtDQEBIXTJbQ0BIXTZbQ0BASF00W0NAQEhdNTY=

>  <s_epik_cmdline>  (178) 
J2VwaWtfcHl0aG9uJywgJy1waHQnLCAnMi4wJywgJy1waCcsICc3LjAnLCAnLXRuJywgJzgnLCAnLW1hJywgJzIwMCcsICctaW1hZScsICc8aW5maWxlLm1hZT4nLCAnLW9tYWUnLCAnPG91dGZpbGUubWFlPic=

>  <r_epik_Ionization_Penalty>  (178) 
4.09663

>  <r_epik_Ionization_Penalty_Charging>  (178) 
2.33142

>  <r_epik_Ionization_Penalty_Neutral>  (178) 
1.76521

>  <r_epik_State_Penalty>  (178) 
2.65914

>  <r_epik_Charging_Adjusted_Penalty>  (178) 
4.99057

>  <i_epik_Tot_Q>  (178) 
1

>  <i_epik_Tot_abs_Q>  (178) 
1

>  <s_epik_Chemistry_Notes>  (178) 
This compound has a N-S or N-O group and may undergo hydrolysis at high or low pH.

>  <s_lp_Force_Field>  (178) 
OPLS3e

>  <r_lp_Energy>  (178) 
88.5016

>  <b_lp_Chiralities_Consistent>  (178) 
0

>  <s_lp_Variant>  (178) 
46:0-3

>  <s_i_glide_gridfile>  (178) 
pfpi4k_grid

>  <i_i_glide_lignum>  (178) 
21

>  <i_i_glide_rotatable_bonds>  (178) 
2

>  <r_i_docking_score>  (178) 
-5.35115

>  <r_i_glide_ligand_efficiency>  (178) 
-0.382225

>  <r_i_glide_ligand_efficiency_sa>  (178) 
-0.921216

>  <r_i_glide_ligand_efficiency_ln>  (178) 
-1.47048

>  <r_i_glide_gscore>  (178) 
-5.35115

>  <r_i_glide_lipo>  (178) 
-0.493816

>  <r_i_glide_hbond>  (178) 
-0.0888204

>  <r_i_glide_metal>  (178) 
-0

>  <r_i_glide_rewards>  (178) 
-2.11185

>  <r_i_glide_evdw>  (178) 
-18.6329

>  <r_i_glide_ecoul>  (178) 
-11.5001

>  <r_i_glide_erotb>  (178) 
0

>  <r_i_glide_esite>  (178) 
0

>  <r_i_glide_emodel>  (178) 
-39.99

>  <r_i_glide_energy>  (178) 
-30.133

>  <r_i_glide_einternal>  (178) 
3.88456

>  <r_i_glide_intrahb_reward>  (178) 
-0

>  <i_i_glide_confnum>  (178) 
2

>  <i_i_glide_posenum>  (178) 
12

>  <r_i_glide_eff_state_penalty>  (178) 
0

>  <ligand_id>  (178) 
46

>  <original_smiles>  (178) 
ONC1C2C3CC4C3C3C5C2C(C41)C35

>  <smiles>  (178) 
[H]O[N+]([H])([H])C1([H])C2([H])C3([H])C([H])([H])C4([H])C3([H])C3([H])C5([H])C3([H])C([H])(C52[H])C41[H]

$$$$
49:0:0
     RDKit          3D

 13 14  0  0  1  0  0  0  0  0999 V2000
   -6.4071   -8.2938   -7.2873 C   0  0  0  0  0  0  0  0  0  0  0  0
   -5.4059   -8.3522   -6.4103 N   0  0  0  0  0  0  0  0  0  0  0  0
   -5.3776   -7.4108   -5.4516 C   0  0  0  0  0  0  0  0  0  0  0  0
   -6.3677   -6.4151   -5.4290 C   0  0  0  0  0  0  0  0  0  0  0  0
   -6.5842   -5.0554   -4.3388 S   0  0  0  0  0  0  0  0  0  0  0  0
   -8.0097   -4.5646   -5.2001 C   0  0  0  0  0  0  0  0  0  0  0  0
   -8.3263   -5.3613   -6.2721 C   0  0  0  0  0  0  0  0  0  0  0  0
   -7.3868   -6.4508   -6.4288 C   0  0  0  0  0  0  0  0  0  0  0  0
   -7.4051   -7.4080   -7.3656 N   0  0  0  0  0  0  0  0  0  0  0  0
   -6.4121   -9.0648   -8.0421 H   0  0  0  0  0  0  0  0  0  0  0  0
   -4.5733   -7.4493   -4.7313 H   0  0  0  0  0  0  0  0  0  0  0  0
   -8.5469   -3.6929   -4.8526 H   0  0  0  0  0  0  0  0  0  0  0  0
   -9.1747   -5.2167   -6.9233 H   0  0  0  0  0  0  0  0  0  0  0  0
  1  9  2  0
  1  2  1  0
  1 10  1  0
  2  3  2  0
  3  4  1  0
  3 11  1  0
  4  8  2  0
  4  5  1  0
  5  6  1  0
  6  7  2  0
  6 12  1  0
  7  8  1  0
  7 13  1  0
  8  9  1  0
M  END
>  <i_m_ct_stereo_status>  (179) 
1

>  <s_m_source_file>  (179) 
/var/tmp/pbs.5076255.sched01/tmpqwfmwtcs/46j3o47u_k.sdf

>  <i_m_source_file_index>  (179) 
26

>  <i_lp_mmshare_version>  (179) 
48012

>  <i_f3d_flags>  (179) 
0

>  <s_epik_input>  (179) 
W2NIXTFuW2NIXW5jKGMxMilbY0hdW2NIXXMy

>  <s_epik_cmdline>  (179) 
J2VwaWtfcHl0aG9uJywgJy1waHQnLCAnMi4wJywgJy1waCcsICc3LjAnLCAnLXRuJywgJzgnLCAnLW1hJywgJzIwMCcsICctaW1hZScsICc8aW5maWxlLm1hZT4nLCAnLW9tYWUnLCAnPG91dGZpbGUubWFlPic=

>  <r_lp_tautomer_probability>  (179) 
1

>  <r_epik_Ionization_Penalty>  (179) 
7.54807e-07

>  <r_epik_Ionization_Penalty_Charging>  (179) 
0

>  <r_epik_Ionization_Penalty_Neutral>  (179) 
7.54807e-07

>  <r_epik_State_Penalty>  (179) 
-0

>  <r_epik_Charging_Adjusted_Penalty>  (179) 
0

>  <i_epik_Tot_Q>  (179) 
0

>  <i_epik_Tot_abs_Q>  (179) 
0

>  <s_lp_Force_Field>  (179) 
OPLS3e

>  <r_lp_Energy>  (179) 
7.73853

>  <b_lp_Chiralities_Consistent>  (179) 
1

>  <s_lp_Variant>  (179) 
49:0-1

>  <s_i_glide_gridfile>  (179) 
pfpi4k_grid

>  <i_i_glide_lignum>  (179) 
26

>  <i_i_glide_rotatable_bonds>  (179) 
0

>  <r_i_docking_score>  (179) 
-5.68543

>  <r_i_glide_ligand_efficiency>  (179) 
-0.631715

>  <r_i_glide_ligand_efficiency_sa>  (179) 
-1.31402

>  <r_i_glide_ligand_efficiency_ln>  (179) 
-1.77824

>  <r_i_glide_gscore>  (179) 
-5.68543

>  <r_i_glide_lipo>  (179) 
-1.80639

>  <r_i_glide_hbond>  (179) 
0

>  <r_i_glide_metal>  (179) 
-0

>  <r_i_glide_rewards>  (179) 
-2.94617

>  <r_i_glide_evdw>  (179) 
-20.5063

>  <r_i_glide_ecoul>  (179) 
0.616303

>  <r_i_glide_erotb>  (179) 
0

>  <r_i_glide_esite>  (179) 
0

>  <r_i_glide_emodel>  (179) 
-27.3472

>  <r_i_glide_energy>  (179) 
-19.89

>  <r_i_glide_einternal>  (179) 
0

>  <r_i_glide_intrahb_reward>  (179) 
-0

>  <i_i_glide_confnum>  (179) 
2

>  <i_i_glide_posenum>  (179) 
9

>  <r_i_glide_eff_state_penalty>  (179) 
0

>  <ligand_id>  (179) 
49

>  <original_smiles>  (179) 
c1ncc2sccc2n1

>  <smiles>  (179) 
[H]c1nc([H])c2sc([H])c([H])c2n1

$$$$
49:0:1
     RDKit          3D

 13 14  0  0  1  0  0  0  0  0999 V2000
    6.6971   -2.6540   -0.7672 C   0  0  0  0  0  0  0  0  0  0  0  0
    6.1923   -1.4985   -0.3327 N   0  0  0  0  0  0  0  0  0  0  0  0
    5.0675   -1.0571   -0.9319 C   0  0  0  0  0  0  0  0  0  0  0  0
    4.5401   -1.7752   -2.0149 C   0  0  0  0  0  0  0  0  0  0  0  0
    3.1493   -1.4244   -3.0194 S   0  0  0  0  0  0  0  0  0  0  0  0
    3.4048   -2.8849   -3.9188 C   0  0  0  0  0  0  0  0  0  0  0  0
    4.5175   -3.5979   -3.5374 C   0  0  0  0  0  0  0  0  0  0  0  0
    5.1838   -2.9841   -2.4130 C   0  0  0  0  0  0  0  0  0  0  0  0
    6.2720   -3.4273   -1.7701 N   0  0  0  0  0  0  0  0  0  0  0  0
    7.5913   -2.9945   -0.2632 H   0  0  0  0  0  0  0  0  0  0  0  0
    4.6180   -0.1427   -0.5711 H   0  0  0  0  0  0  0  0  0  0  0  0
    2.6959   -3.1314   -4.6966 H   0  0  0  0  0  0  0  0  0  0  0  0
    4.8416   -4.5353   -3.9696 H   0  0  0  0  0  0  0  0  0  0  0  0
  1  9  2  0
  1  2  1  0
  1 10  1  0
  2  3  2  0
  3  4  1  0
  3 11  1  0
  4  8  2  0
  4  5  1  0
  5  6  1  0
  6  7  2  0
  6 12  1  0
  7  8  1  0
  7 13  1  0
  8  9  1  0
M  END
>  <i_m_ct_stereo_status>  (180) 
1

>  <s_m_source_file>  (180) 
/var/tmp/pbs.5076255.sched01/tmpqwfmwtcs/46j3o47u_k.sdf

>  <i_m_source_file_index>  (180) 
26

>  <i_lp_mmshare_version>  (180) 
48012

>  <i_f3d_flags>  (180) 
0

>  <s_epik_input>  (180) 
W2NIXTFuW2NIXW5jKGMxMilbY0hdW2NIXXMy

>  <s_epik_cmdline>  (180) 
J2VwaWtfcHl0aG9uJywgJy1waHQnLCAnMi4wJywgJy1waCcsICc3LjAnLCAnLXRuJywgJzgnLCAnLW1hJywgJzIwMCcsICctaW1hZScsICc8aW5maWxlLm1hZT4nLCAnLW9tYWUnLCAnPG91dGZpbGUubWFlPic=

>  <r_lp_tautomer_probability>  (180) 
1

>  <r_epik_Ionization_Penalty>  (180) 
7.54807e-07

>  <r_epik_Ionization_Penalty_Charging>  (180) 
0

>  <r_epik_Ionization_Penalty_Neutral>  (180) 
7.54807e-07

>  <r_epik_State_Penalty>  (180) 
-0

>  <r_epik_Charging_Adjusted_Penalty>  (180) 
0

>  <i_epik_Tot_Q>  (180) 
0

>  <i_epik_Tot_abs_Q>  (180) 
0

>  <s_lp_Force_Field>  (180) 
OPLS3e

>  <r_lp_Energy>  (180) 
7.73853

>  <b_lp_Chiralities_Consistent>  (180) 
1

>  <s_lp_Variant>  (180) 
49:0-1

>  <s_i_glide_gridfile>  (180) 
pfpi4k_grid

>  <i_i_glide_lignum>  (180) 
26

>  <i_i_glide_rotatable_bonds>  (180) 
0

>  <r_i_docking_score>  (180) 
-3.83087

>  <r_i_glide_ligand_efficiency>  (180) 
-0.425652

>  <r_i_glide_ligand_efficiency_sa>  (180) 
-0.885392

>  <r_i_glide_ligand_efficiency_ln>  (180) 
-1.19819

>  <r_i_glide_gscore>  (180) 
-3.83087

>  <r_i_glide_lipo>  (180) 
-0.375203

>  <r_i_glide_hbond>  (180) 
-0.0507501

>  <r_i_glide_metal>  (180) 
-0

>  <r_i_glide_rewards>  (180) 
-2.25

>  <r_i_glide_evdw>  (180) 
-18.4889

>  <r_i_glide_ecoul>  (180) 
-1.41323

>  <r_i_glide_erotb>  (180) 
0

>  <r_i_glide_esite>  (180) 
-0.018483

>  <r_i_glide_emodel>  (180) 
-24.9181

>  <r_i_glide_energy>  (180) 
-19.9022

>  <r_i_glide_einternal>  (180) 
0

>  <r_i_glide_intrahb_reward>  (180) 
-0

>  <i_i_glide_confnum>  (180) 
1

>  <i_i_glide_posenum>  (180) 
2

>  <r_i_glide_eff_state_penalty>  (180) 
0

>  <ligand_id>  (180) 
49

>  <original_smiles>  (180) 
c1ncc2sccc2n1

>  <smiles>  (180) 
[H]c1nc([H])c2sc([H])c([H])c2n1

$$$$
49:0:2
     RDKit          3D

 13 14  0  0  1  0  0  0  0  0999 V2000
    1.9230   -6.2453    0.9646 C   0  0  0  0  0  0  0  0  0  0  0  0
    2.9296   -7.0534    1.2955 N   0  0  0  0  0  0  0  0  0  0  0  0
    2.6306   -8.1437    2.0224 C   0  0  0  0  0  0  0  0  0  0  0  0
    1.3019   -8.3674    2.4056 C   0  0  0  0  0  0  0  0  0  0  0  0
    0.6124   -9.6788    3.3423 S   0  0  0  0  0  0  0  0  0  0  0  0
   -0.9638   -8.9621    3.2072 C   0  0  0  0  0  0  0  0  0  0  0  0
   -1.0066   -7.7999    2.4808 C   0  0  0  0  0  0  0  0  0  0  0  0
    0.3039   -7.4307    1.9927 C   0  0  0  0  0  0  0  0  0  0  0  0
    0.6193   -6.3493    1.2613 N   0  0  0  0  0  0  0  0  0  0  0  0
    2.1985   -5.3868    0.3708 H   0  0  0  0  0  0  0  0  0  0  0  0
    3.4339   -8.8160    2.2897 H   0  0  0  0  0  0  0  0  0  0  0  0
   -1.7976   -9.4573    3.6822 H   0  0  0  0  0  0  0  0  0  0  0  0
   -1.9080   -7.2398    2.2914 H   0  0  0  0  0  0  0  0  0  0  0  0
  1  9  2  0
  1  2  1  0
  1 10  1  0
  2  3  2  0
  3  4  1  0
  3 11  1  0
  4  8  2  0
  4  5  1  0
  5  6  1  0
  6  7  2  0
  6 12  1  0
  7  8  1  0
  7 13  1  0
  8  9  1  0
M  END
>  <i_m_ct_stereo_status>  (181) 
1

>  <s_m_source_file>  (181) 
/var/tmp/pbs.5076255.sched01/tmpqwfmwtcs/46j3o47u_k.sdf

>  <i_m_source_file_index>  (181) 
26

>  <i_lp_mmshare_version>  (181) 
48012

>  <i_f3d_flags>  (181) 
0

>  <s_epik_input>  (181) 
W2NIXTFuW2NIXW5jKGMxMilbY0hdW2NIXXMy

>  <s_epik_cmdline>  (181) 
J2VwaWtfcHl0aG9uJywgJy1waHQnLCAnMi4wJywgJy1waCcsICc3LjAnLCAnLXRuJywgJzgnLCAnLW1hJywgJzIwMCcsICctaW1hZScsICc8aW5maWxlLm1hZT4nLCAnLW9tYWUnLCAnPG91dGZpbGUubWFlPic=

>  <r_lp_tautomer_probability>  (181) 
1

>  <r_epik_Ionization_Penalty>  (181) 
7.54807e-07

>  <r_epik_Ionization_Penalty_Charging>  (181) 
0

>  <r_epik_Ionization_Penalty_Neutral>  (181) 
7.54807e-07

>  <r_epik_State_Penalty>  (181) 
-0

>  <r_epik_Charging_Adjusted_Penalty>  (181) 
0

>  <i_epik_Tot_Q>  (181) 
0

>  <i_epik_Tot_abs_Q>  (181) 
0

>  <s_lp_Force_Field>  (181) 
OPLS3e

>  <r_lp_Energy>  (181) 
7.73853

>  <b_lp_Chiralities_Consistent>  (181) 
1

>  <s_lp_Variant>  (181) 
49:0-1

>  <s_i_glide_gridfile>  (181) 
pfpi4k_grid

>  <i_i_glide_lignum>  (181) 
26

>  <i_i_glide_rotatable_bonds>  (181) 
0

>  <r_i_docking_score>  (181) 
-3.81276

>  <r_i_glide_ligand_efficiency>  (181) 
-0.42364

>  <r_i_glide_ligand_efficiency_sa>  (181) 
-0.881207

>  <r_i_glide_ligand_efficiency_ln>  (181) 
-1.19252

>  <r_i_glide_gscore>  (181) 
-3.81276

>  <r_i_glide_lipo>  (181) 
0

>  <r_i_glide_hbond>  (181) 
-0.16

>  <r_i_glide_metal>  (181) 
-0

>  <r_i_glide_rewards>  (181) 
-2.25

>  <r_i_glide_evdw>  (181) 
-14.5949

>  <r_i_glide_ecoul>  (181) 
-4.20481

>  <r_i_glide_erotb>  (181) 
0

>  <r_i_glide_esite>  (181) 
-0.0422935

>  <r_i_glide_emodel>  (181) 
-23.7982

>  <r_i_glide_energy>  (181) 
-18.7998

>  <r_i_glide_einternal>  (181) 
0

>  <r_i_glide_intrahb_reward>  (181) 
-0

>  <i_i_glide_confnum>  (181) 
2

>  <i_i_glide_posenum>  (181) 
33

>  <r_i_glide_eff_state_penalty>  (181) 
0

>  <ligand_id>  (181) 
49

>  <original_smiles>  (181) 
c1ncc2sccc2n1

>  <smiles>  (181) 
[H]c1nc([H])c2sc([H])c([H])c2n1

$$$$
50:0:0
     RDKit          3D

 61 66  0  0  1  0  0  0  0  0999 V2000
    2.7434   -2.3151   -2.2757 C   0  0  0  0  0  0  0  0  0  0  0  0
    3.7631   -2.4373   -1.3011 O   0  0  0  0  0  0  0  0  0  0  0  0
    4.3568   -3.7236   -1.2043 C   0  0  2  0  0  0  0  0  0  0  0  0
    3.6069   -4.6228   -0.1954 C   0  0  0  0  0  0  0  0  0  0  0  0
    3.1795   -4.0235    1.1672 C   0  0  1  0  0  0  0  0  0  0  0  0
    2.1707   -5.0107    1.8063 C   0  0  0  0  0  0  0  0  0  0  0  0
    4.3597   -3.6966    2.1389 C   0  0  2  0  0  0  0  0  0  0  0  0
    3.8531   -3.1877    3.5310 C   0  0  0  0  0  0  0  0  0  0  0  0
    3.3408   -1.7419    3.4758 C   0  0  0  0  0  0  0  0  0  0  0  0
    2.1250   -1.2288    3.7523 C   0  0  0  0  0  0  0  0  0  0  0  0
    0.9299   -1.9030    4.3041 C   0  0  0  0  0  0  0  0  0  0  0  0
    0.8921   -3.0886    4.6140 O   0  0  0  0  0  0  0  0  0  0  0  0
   -0.1871   -1.1038    4.4506 O   0  0  0  0  0  0  0  0  0  0  0  0
   -0.2278    0.2427    4.1373 C   0  0  0  0  0  0  0  0  0  0  0  0
    0.9038    0.9495    3.5837 C   0  0  0  0  0  0  0  0  0  0  0  0
    2.0949    0.1521    3.3849 C   0  0  0  0  0  0  0  0  0  0  0  0
    3.2864    0.4915    2.8771 C   0  0  0  0  0  0  0  0  0  0  0  0
    4.2650   -0.6711    2.9001 C   0  0  1  0  0  0  0  0  0  0  0  0
    5.2565   -0.4406    3.7304 O   0  0  0  0  0  0  0  0  0  0  0  0
    4.7688   -1.2101    1.5321 C   0  0  1  0  0  0  0  0  0  0  0  0
    5.5877   -0.2803    0.8562 O   0  0  0  0  0  0  0  0  0  0  0  0
    5.4063   -2.6337    1.6526 C   0  0  2  0  0  0  0  0  0  0  0  0
    6.2708   -2.9921    0.4514 C   0  0  1  0  0  0  0  0  0  0  0  0
    6.4079   -4.3795    0.1069 O   0  0  0  0  0  0  0  0  0  0  0  0
    5.8184   -3.5057   -0.8719 C   0  0  1  0  0  0  0  0  0  0  0  0
    6.6594   -3.1853   -2.0986 C   0  0  0  0  0  0  0  0  0  0  0  0
    0.7923    2.2645    3.2902 C   0  0  0  0  0  0  0  0  0  0  0  0
   -0.3414    3.0202    3.5011 O   0  0  0  0  0  0  0  0  0  0  0  0
   -1.5175    2.3947    4.0552 C   0  0  0  0  0  0  0  0  0  0  0  0
   -1.8327    3.1308    5.3669 C   0  0  0  0  0  0  0  0  0  0  0  0
   -2.6475    2.5848    3.0338 C   0  0  0  0  0  0  0  0  0  0  0  0
   -1.3629    0.9118    4.3551 C   0  0  0  0  0  0  0  0  0  0  0  0
    2.4201   -1.2741   -2.3186 H   0  0  0  0  0  0  0  0  0  0  0  0
    1.8817   -2.9367   -2.0349 H   0  0  0  0  0  0  0  0  0  0  0  0
    3.1114   -2.5787   -3.2665 H   0  0  0  0  0  0  0  0  0  0  0  0
    4.3374   -4.2218   -2.1773 H   0  0  0  0  0  0  0  0  0  0  0  0
    2.6988   -4.9352   -0.7076 H   0  0  0  0  0  0  0  0  0  0  0  0
    4.1724   -5.5432   -0.0376 H   0  0  0  0  0  0  0  0  0  0  0  0
    2.6218   -3.1099    0.9646 H   0  0  0  0  0  0  0  0  0  0  0  0
    2.6483   -5.9192    2.1707 H   0  0  0  0  0  0  0  0  0  0  0  0
    1.4209   -5.3280    1.0874 H   0  0  0  0  0  0  0  0  0  0  0  0
    1.6227   -4.5679    2.6329 H   0  0  0  0  0  0  0  0  0  0  0  0
    4.8930   -4.6299    2.3158 H   0  0  0  0  0  0  0  0  0  0  0  0
    3.1298   -3.8572    3.9884 H   0  0  0  0  0  0  0  0  0  0  0  0
    4.6939   -3.1995    4.2257 H   0  0  0  0  0  0  0  0  0  0  0  0
    3.5704    1.4699    2.5301 H   0  0  0  0  0  0  0  0  0  0  0  0
    3.9011   -1.2935    0.8905 H   0  0  0  0  0  0  0  0  0  0  0  0
    5.0372    0.4318    0.5591 H   0  0  0  0  0  0  0  0  0  0  0  0
    6.1615   -2.5983    2.4455 H   0  0  0  0  0  0  0  0  0  0  0  0
    7.2161   -2.4494    0.4443 H   0  0  0  0  0  0  0  0  0  0  0  0
    6.3334   -2.2501   -2.5391 H   0  0  0  0  0  0  0  0  0  0  0  0
    6.5463   -3.9385   -2.8728 H   0  0  0  0  0  0  0  0  0  0  0  0
    7.7188   -3.1111   -1.8428 H   0  0  0  0  0  0  0  0  0  0  0  0
    1.5773    2.8728    2.8643 H   0  0  0  0  0  0  0  0  0  0  0  0
   -2.7342    2.7448    5.8495 H   0  0  0  0  0  0  0  0  0  0  0  0
   -1.9720    4.1974    5.1991 H   0  0  0  0  0  0  0  0  0  0  0  0
   -1.0098    3.0123    6.0710 H   0  0  0  0  0  0  0  0  0  0  0  0
   -3.5872    2.1916    3.4168 H   0  0  0  0  0  0  0  0  0  0  0  0
   -2.4199    2.0626    2.1039 H   0  0  0  0  0  0  0  0  0  0  0  0
   -2.8075    3.6347    2.7849 H   0  0  0  0  0  0  0  0  0  0  0  0
   -2.2246    0.4025    4.7630 H   0  0  0  0  0  0  0  0  0  0  0  0
  1  2  1  0
  1 33  1  0
  1 34  1  0
  1 35  1  0
  2  3  1  0
  3 25  1  0
  3  4  1  0
  3 36  1  6
  4  5  1  0
  4 37  1  0
  4 38  1  0
  5  6  1  0
  5  7  1  0
  5 39  1  6
  6 40  1  0
  6 41  1  0
  6 42  1  0
  7 22  1  0
  7  8  1  0
  7 43  1  1
  8  9  1  0
  8 44  1  0
  8 45  1  0
  9 18  1  0
  9 10  2  0
 10 16  1  0
 10 11  1  0
 11 12  2  0
 11 13  1  0
 13 14  1  0
 14 32  2  0
 14 15  1  0
 15 16  1  0
 15 27  2  0
 16 17  2  0
 17 18  1  0
 17 46  1  0
 18 19  1  1
 18 20  1  0
 20 21  1  0
 20 22  1  0
 20 47  1  6
 21 48  1  0
 22 23  1  0
 22 49  1  1
 23 25  1  0
 23 24  1  0
 23 50  1  6
 24 25  1  0
 25 26  1  6
 26 51  1  0
 26 52  1  0
 26 53  1  0
 27 28  1  0
 27 54  1  0
 28 29  1  0
 29 30  1  0
 29 31  1  0
 29 32  1  0
 30 55  1  0
 30 56  1  0
 30 57  1  0
 31 58  1  0
 31 59  1  0
 31 60  1  0
 32 61  1  0
M  CHG  1  19  -1
M  END
>  <i_m_ct_stereo_status>  (182) 
1

>  <s_m_source_file>  (182) 
/var/tmp/pbs.5076255.sched01/tmpqwfmwtcs/46j3o47u_k.sdf

>  <i_m_source_file_index>  (182) 
27

>  <i_lp_mmshare_version>  (182) 
48012

>  <i_f3d_flags>  (182) 
0

>  <s_epik_input>  (182) 
W0NIM11bQ0BASF0xW0NIMl1bQ0BASF0oT1tDSDNdKVtDQEBdKE8yKShbQ0gzXSlbQ0BIXTJbQ0BASF0oW0NAQEhdM1tPSF0pW0NASF0xW0NIMl1DKFtDQEBdMzRbT0hdKT1jNWMoPVtDSF00KWM9NmMob2M1PU8pPVtDSF1DKFtDSDNdKShbQ0gzXSlPW0NIXTY=

>  <s_epik_cmdline>  (182) 
J2VwaWtfcHl0aG9uJywgJy1waHQnLCAnMi4wJywgJy1waCcsICc3LjAnLCAnLXRuJywgJzgnLCAnLW1hJywgJzIwMCcsICctaW1hZScsICc8aW5maWxlLm1hZT4nLCAnLW9tYWUnLCAnPG91dGZpbGUubWFlPic=

>  <r_lp_tautomer_probability>  (182) 
1

>  <r_epik_Ionization_Penalty>  (182) 
6.26087e-07

>  <r_epik_Ionization_Penalty_Charging>  (182) 
0

>  <r_epik_Ionization_Penalty_Neutral>  (182) 
6.26087e-07

>  <r_epik_State_Penalty>  (182) 
-0

>  <r_epik_Charging_Adjusted_Penalty>  (182) 
0

>  <i_epik_Tot_Q>  (182) 
-1

>  <i_epik_Tot_abs_Q>  (182) 
1

>  <s_lp_Force_Field>  (182) 
OPLS3e

>  <r_lp_Energy>  (182) 
46.3295

>  <b_lp_Chiralities_Consistent>  (182) 
1

>  <s_lp_Variant>  (182) 
50:0-1

>  <s_i_glide_gridfile>  (182) 
pfpi4k_grid

>  <i_i_glide_lignum>  (182) 
27

>  <i_i_glide_rotatable_bonds>  (182) 
2

>  <r_i_docking_score>  (182) 
-2.41729

>  <r_i_glide_ligand_efficiency>  (182) 
-0.0755402

>  <r_i_glide_ligand_efficiency_sa>  (182) 
-0.239825

>  <r_i_glide_ligand_efficiency_ln>  (182) 
-0.541296

>  <r_i_glide_gscore>  (182) 
-2.41729

>  <r_i_glide_lipo>  (182) 
-0.422975

>  <r_i_glide_hbond>  (182) 
0

>  <r_i_glide_metal>  (182) 
-0

>  <r_i_glide_rewards>  (182) 
-0.398908

>  <r_i_glide_evdw>  (182) 
-29.6104

>  <r_i_glide_ecoul>  (182) 
-0.765877

>  <r_i_glide_erotb>  (182) 
0

>  <r_i_glide_esite>  (182) 
0

>  <r_i_glide_emodel>  (182) 
-35.8205

>  <r_i_glide_energy>  (182) 
-30.3763

>  <r_i_glide_einternal>  (182) 
1.36313

>  <r_i_glide_intrahb_reward>  (182) 
-0

>  <i_i_glide_confnum>  (182) 
2

>  <i_i_glide_posenum>  (182) 
39

>  <r_i_glide_eff_state_penalty>  (182) 
0

>  <ligand_id>  (182) 
50

>  <original_smiles>  (182) 
COC1CC(C)C2CC3=c4c(=O)oc5c(c4=CC3(O)C(O)C2C2OC12C)=COC(C)(C)C=5

>  <smiles>  (182) 
[H]OC1([H])C2([O-])C(=c3c(=O)oc4c(c3=C2[H])=C([H])OC(C([H])([H])[H])(C([H])([H])[H])C=4[H])C([H])([H])C2([H])C([H])(C([H])([H])[H])C([H])([H])C([H])(OC([H])([H])[H])C3(C([H])([H])[H])OC3([H])C12[H]

$$$$
50:0:1
     RDKit          3D

 61 66  0  0  1  0  0  0  0  0999 V2000
    2.9304   -2.1933   -2.0832 C   0  0  0  0  0  0  0  0  0  0  0  0
    4.0000   -2.3364   -1.1674 O   0  0  0  0  0  0  0  0  0  0  0  0
    4.5654   -3.6363   -1.0945 C   0  0  2  0  0  0  0  0  0  0  0  0
    3.7613   -4.5586   -0.1490 C   0  0  0  0  0  0  0  0  0  0  0  0
    3.2807   -3.9998    1.2122 C   0  0  1  0  0  0  0  0  0  0  0  0
    2.2275   -4.9886    1.7726 C   0  0  0  0  0  0  0  0  0  0  0  0
    4.4222   -3.7242    2.2459 C   0  0  2  0  0  0  0  0  0  0  0  0
    3.8682   -3.2534    3.6335 C   0  0  0  0  0  0  0  0  0  0  0  0
    3.3859   -1.7986    3.6103 C   0  0  0  0  0  0  0  0  0  0  0  0
    2.1667   -1.2789    3.8524 C   0  0  0  0  0  0  0  0  0  0  0  0
    0.9385   -1.9556    4.3257 C   0  0  0  0  0  0  0  0  0  0  0  0
    0.8707   -3.1517    4.5883 O   0  0  0  0  0  0  0  0  0  0  0  0
   -0.1761   -1.1457    4.4553 O   0  0  0  0  0  0  0  0  0  0  0  0
   -0.1855    0.2120    4.1903 C   0  0  0  0  0  0  0  0  0  0  0  0
    0.9804    0.9194    3.7111 C   0  0  0  0  0  0  0  0  0  0  0  0
    2.1700    0.1151    3.5352 C   0  0  0  0  0  0  0  0  0  0  0  0
    3.3899    0.4530    3.0925 C   0  0  0  0  0  0  0  0  0  0  0  0
    4.3508   -0.7245    3.1023 C   0  0  1  0  0  0  0  0  0  0  0  0
    5.3338   -0.5391    3.9536 O   0  0  0  0  0  0  0  0  0  0  0  0
    4.8949   -1.2227    1.7351 C   0  0  1  0  0  0  0  0  0  0  0  0
    5.8048   -0.2980    1.1733 O   0  0  0  0  0  0  0  0  0  0  0  0
    5.4998   -2.6609    1.8376 C   0  0  2  0  0  0  0  0  0  0  0  0
    6.4140   -2.9932    0.6632 C   0  0  1  0  0  0  0  0  0  0  0  0
    6.5480   -4.3688    0.2776 O   0  0  0  0  0  0  0  0  0  0  0  0
    6.0155   -3.4547   -0.6980 C   0  0  1  0  0  0  0  0  0  0  0  0
    6.9145   -3.1109   -1.8815 C   0  0  0  0  0  0  0  0  0  0  0  0
    0.8957    2.2487    3.4591 C   0  0  0  0  0  0  0  0  0  0  0  0
   -0.2359    3.0119    3.6490 O   0  0  0  0  0  0  0  0  0  0  0  0
   -1.4439    2.3841    4.1294 C   0  0  0  0  0  0  0  0  0  0  0  0
   -1.8052    3.0812    5.4506 C   0  0  0  0  0  0  0  0  0  0  0  0
   -2.5305    2.6232    3.0695 C   0  0  0  0  0  0  0  0  0  0  0  0
   -1.3192    0.8894    4.3850 C   0  0  0  0  0  0  0  0  0  0  0  0
    2.6172   -1.1484   -2.1119 H   0  0  0  0  0  0  0  0  0  0  0  0
    2.0716   -2.7979   -1.7937 H   0  0  0  0  0  0  0  0  0  0  0  0
    3.2370   -2.4686   -3.0911 H   0  0  0  0  0  0  0  0  0  0  0  0
    4.5768   -4.0952   -2.0873 H   0  0  0  0  0  0  0  0  0  0  0  0
    2.8724   -4.8386   -0.7075 H   0  0  0  0  0  0  0  0  0  0  0  0
    4.3085   -5.4920    0.0034 H   0  0  0  0  0  0  0  0  0  0  0  0
    2.7506   -3.0689    1.0198 H   0  0  0  0  0  0  0  0  0  0  0  0
    2.6777   -5.9177    2.1222 H   0  0  0  0  0  0  0  0  0  0  0  0
    1.4875   -5.2583    1.0224 H   0  0  0  0  0  0  0  0  0  0  0  0
    1.6618   -4.5654    2.5975 H   0  0  0  0  0  0  0  0  0  0  0  0
    4.9386   -4.6694    2.4126 H   0  0  0  0  0  0  0  0  0  0  0  0
    3.1165   -3.9261    4.0363 H   0  0  0  0  0  0  0  0  0  0  0  0
    4.6794   -3.3015    4.3609 H   0  0  0  0  0  0  0  0  0  0  0  0
    3.7084    1.4341    2.7944 H   0  0  0  0  0  0  0  0  0  0  0  0
    4.0538   -1.2488    1.0515 H   0  0  0  0  0  0  0  0  0  0  0  0
    6.5138   -0.1785    1.7937 H   0  0  0  0  0  0  0  0  0  0  0  0
    6.2162   -2.6679    2.6637 H   0  0  0  0  0  0  0  0  0  0  0  0
    7.3652   -2.4651    0.7171 H   0  0  0  0  0  0  0  0  0  0  0  0
    6.6260   -2.1451   -2.3009 H   0  0  0  0  0  0  0  0  0  0  0  0
    6.8354   -3.8574   -2.6685 H   0  0  0  0  0  0  0  0  0  0  0  0
    7.9593   -3.0542   -1.5669 H   0  0  0  0  0  0  0  0  0  0  0  0
    1.7080    2.8572    3.0899 H   0  0  0  0  0  0  0  0  0  0  0  0
   -2.7320    2.6935    5.8806 H   0  0  0  0  0  0  0  0  0  0  0  0
   -1.9234    4.1554    5.3128 H   0  0  0  0  0  0  0  0  0  0  0  0
   -1.0138    2.9285    6.1848 H   0  0  0  0  0  0  0  0  0  0  0  0
   -3.4910    2.2255    3.3974 H   0  0  0  0  0  0  0  0  0  0  0  0
   -2.2695    2.1295    2.1327 H   0  0  0  0  0  0  0  0  0  0  0  0
   -2.6730    3.6819    2.8544 H   0  0  0  0  0  0  0  0  0  0  0  0
   -2.2066    0.3843    4.7361 H   0  0  0  0  0  0  0  0  0  0  0  0
  1  2  1  0
  1 33  1  0
  1 34  1  0
  1 35  1  0
  2  3  1  0
  3 25  1  0
  3  4  1  0
  3 36  1  6
  4  5  1  0
  4 37  1  0
  4 38  1  0
  5  6  1  0
  5  7  1  0
  5 39  1  6
  6 40  1  0
  6 41  1  0
  6 42  1  0
  7 22  1  0
  7  8  1  0
  7 43  1  1
  8  9  1  0
  8 44  1  0
  8 45  1  0
  9 18  1  0
  9 10  2  0
 10 16  1  0
 10 11  1  0
 11 12  2  0
 11 13  1  0
 13 14  1  0
 14 32  2  0
 14 15  1  0
 15 16  1  0
 15 27  2  0
 16 17  2  0
 17 18  1  0
 17 46  1  0
 18 19  1  1
 18 20  1  0
 20 21  1  0
 20 22  1  0
 20 47  1  6
 21 48  1  0
 22 23  1  0
 22 49  1  1
 23 25  1  0
 23 24  1  0
 23 50  1  6
 24 25  1  0
 25 26  1  6
 26 51  1  0
 26 52  1  0
 26 53  1  0
 27 28  1  0
 27 54  1  0
 28 29  1  0
 29 30  1  0
 29 31  1  0
 29 32  1  0
 30 55  1  0
 30 56  1  0
 30 57  1  0
 31 58  1  0
 31 59  1  0
 31 60  1  0
 32 61  1  0
M  CHG  1  19  -1
M  END
>  <i_m_ct_stereo_status>  (183) 
1

>  <s_m_source_file>  (183) 
/var/tmp/pbs.5076255.sched01/tmpqwfmwtcs/46j3o47u_k.sdf

>  <i_m_source_file_index>  (183) 
27

>  <i_lp_mmshare_version>  (183) 
48012

>  <i_f3d_flags>  (183) 
0

>  <s_epik_input>  (183) 
W0NIM11bQ0BASF0xW0NIMl1bQ0BASF0oT1tDSDNdKVtDQEBdKE8yKShbQ0gzXSlbQ0BIXTJbQ0BASF0oW0NAQEhdM1tPSF0pW0NASF0xW0NIMl1DKFtDQEBdMzRbT0hdKT1jNWMoPVtDSF00KWM9NmMob2M1PU8pPVtDSF1DKFtDSDNdKShbQ0gzXSlPW0NIXTY=

>  <s_epik_cmdline>  (183) 
J2VwaWtfcHl0aG9uJywgJy1waHQnLCAnMi4wJywgJy1waCcsICc3LjAnLCAnLXRuJywgJzgnLCAnLW1hJywgJzIwMCcsICctaW1hZScsICc8aW5maWxlLm1hZT4nLCAnLW9tYWUnLCAnPG91dGZpbGUubWFlPic=

>  <r_lp_tautomer_probability>  (183) 
1

>  <r_epik_Ionization_Penalty>  (183) 
6.26087e-07

>  <r_epik_Ionization_Penalty_Charging>  (183) 
0

>  <r_epik_Ionization_Penalty_Neutral>  (183) 
6.26087e-07

>  <r_epik_State_Penalty>  (183) 
-0

>  <r_epik_Charging_Adjusted_Penalty>  (183) 
0

>  <i_epik_Tot_Q>  (183) 
-1

>  <i_epik_Tot_abs_Q>  (183) 
1

>  <s_lp_Force_Field>  (183) 
OPLS3e

>  <r_lp_Energy>  (183) 
46.3295

>  <b_lp_Chiralities_Consistent>  (183) 
1

>  <s_lp_Variant>  (183) 
50:0-1

>  <s_i_glide_gridfile>  (183) 
pfpi4k_grid

>  <i_i_glide_lignum>  (183) 
27

>  <i_i_glide_rotatable_bonds>  (183) 
2

>  <r_i_docking_score>  (183) 
-2.4013

>  <r_i_glide_ligand_efficiency>  (183) 
-0.0750407

>  <r_i_glide_ligand_efficiency_sa>  (183) 
-0.238239

>  <r_i_glide_ligand_efficiency_ln>  (183) 
-0.537717

>  <r_i_glide_gscore>  (183) 
-2.4013

>  <r_i_glide_lipo>  (183) 
-0.384314

>  <r_i_glide_hbond>  (183) 
0

>  <r_i_glide_metal>  (183) 
-0

>  <r_i_glide_rewards>  (183) 
-0.398908

>  <r_i_glide_evdw>  (183) 
-29.0523

>  <r_i_glide_ecoul>  (183) 
-1.10311

>  <r_i_glide_erotb>  (183) 
0

>  <r_i_glide_esite>  (183) 
0

>  <r_i_glide_emodel>  (183) 
-36.0486

>  <r_i_glide_energy>  (183) 
-30.1554

>  <r_i_glide_einternal>  (183) 
0.475873

>  <r_i_glide_intrahb_reward>  (183) 
-0

>  <i_i_glide_confnum>  (183) 
1

>  <i_i_glide_posenum>  (183) 
24

>  <r_i_glide_eff_state_penalty>  (183) 
0

>  <ligand_id>  (183) 
50

>  <original_smiles>  (183) 
COC1CC(C)C2CC3=c4c(=O)oc5c(c4=CC3(O)C(O)C2C2OC12C)=COC(C)(C)C=5

>  <smiles>  (183) 
[H]OC1([H])C2([O-])C(=c3c(=O)oc4c(c3=C2[H])=C([H])OC(C([H])([H])[H])(C([H])([H])[H])C=4[H])C([H])([H])C2([H])C([H])(C([H])([H])[H])C([H])([H])C([H])(OC([H])([H])[H])C3(C([H])([H])[H])OC3([H])C12[H]

$$$$
50:0:2
     RDKit          3D

 61 66  0  0  1  0  0  0  0  0999 V2000
   -0.0589    1.0936    1.6881 C   0  0  0  0  0  0  0  0  0  0  0  0
   -0.7893    1.3474    2.8802 O   0  0  0  0  0  0  0  0  0  0  0  0
   -0.5629    2.6140    3.4818 C   0  0  2  0  0  0  0  0  0  0  0  0
    0.9177    2.8106    3.8869 C   0  0  0  0  0  0  0  0  0  0  0  0
    1.6558    1.6231    4.5604 C   0  0  1  0  0  0  0  0  0  0  0  0
    3.1720    1.9258    4.4872 C   0  0  0  0  0  0  0  0  0  0  0  0
    1.1758    1.2901    6.0054 C   0  0  2  0  0  0  0  0  0  0  0  0
    2.0237    0.1466    6.6538 C   0  0  0  0  0  0  0  0  0  0  0  0
    1.6678   -1.2401    6.1017 C   0  0  0  0  0  0  0  0  0  0  0  0
    2.4246   -2.1526    5.4640 C   0  0  0  0  0  0  0  0  0  0  0  0
    3.8783   -2.1252    5.1843 C   0  0  0  0  0  0  0  0  0  0  0  0
    4.6279   -1.2236    5.5479 O   0  0  0  0  0  0  0  0  0  0  0  0
    4.3651   -3.2000    4.4672 O   0  0  0  0  0  0  0  0  0  0  0  0
    3.5915   -4.2623    4.0331 C   0  0  0  0  0  0  0  0  0  0  0  0
    2.1664   -4.3326    4.2659 C   0  0  0  0  0  0  0  0  0  0  0  0
    1.5957   -3.2200    4.9950 C   0  0  0  0  0  0  0  0  0  0  0  0
    0.3277   -2.9668    5.3427 C   0  0  0  0  0  0  0  0  0  0  0  0
    0.2056   -1.6749    6.1375 C   0  0  1  0  0  0  0  0  0  0  0  0
   -0.1724   -1.9009    7.3762 O   0  0  0  0  0  0  0  0  0  0  0  0
   -0.6249   -0.5247    5.5009 C   0  0  1  0  0  0  0  0  0  0  0  0
   -2.0093   -0.8334    5.4420 O   0  0  0  0  0  0  0  0  0  0  0  0
   -0.3257    0.8594    6.1732 C   0  0  2  0  0  0  0  0  0  0  0  0
   -1.3991    1.8992    5.8707 C   0  0  1  0  0  0  0  0  0  0  0  0
   -1.0209    3.2803    5.8732 O   0  0  0  0  0  0  0  0  0  0  0  0
   -1.5315    2.7354    4.6425 C   0  0  1  0  0  0  0  0  0  0  0  0
   -2.9178    3.2016    4.2254 C   0  0  0  0  0  0  0  0  0  0  0  0
    1.4684   -5.3943    3.8055 C   0  0  0  0  0  0  0  0  0  0  0  0
    2.0171   -6.4523    3.1127 O   0  0  0  0  0  0  0  0  0  0  0  0
    3.4420   -6.4798    2.8609 C   0  0  0  0  0  0  0  0  0  0  0  0
    4.0044   -7.7331    3.5553 C   0  0  0  0  0  0  0  0  0  0  0  0
    3.6259   -6.5613    1.3359 C   0  0  0  0  0  0  0  0  0  0  0  0
    4.1908   -5.2607    3.3783 C   0  0  0  0  0  0  0  0  0  0  0  0
   -0.3892    0.1392    1.2934 H   0  0  0  0  0  0  0  0  0  0  0  0
    1.0103    0.9926    1.8610 H   0  0  0  0  0  0  0  0  0  0  0  0
   -0.2033    1.8603    0.9283 H   0  0  0  0  0  0  0  0  0  0  0  0
   -0.8318    3.3968    2.7710 H   0  0  0  0  0  0  0  0  0  0  0  0
    1.4386    3.0412    2.9590 H   0  0  0  0  0  0  0  0  0  0  0  0
    1.0297    3.7159    4.4863 H   0  0  0  0  0  0  0  0  0  0  0  0
    1.5191    0.7260    3.9626 H   0  0  0  0  0  0  0  0  0  0  0  0
    3.4669    2.7228    5.1693 H   0  0  0  0  0  0  0  0  0  0  0  0
    3.4684    2.2314    3.4837 H   0  0  0  0  0  0  0  0  0  0  0  0
    3.7829    1.0550    4.7076 H   0  0  0  0  0  0  0  0  0  0  0  0
    1.3333    2.1882    6.5991 H   0  0  0  0  0  0  0  0  0  0  0  0
    3.0906    0.3379    6.6070 H   0  0  0  0  0  0  0  0  0  0  0  0
    1.8076    0.1279    7.7214 H   0  0  0  0  0  0  0  0  0  0  0  0
   -0.5280   -3.5907    5.1466 H   0  0  0  0  0  0  0  0  0  0  0  0
   -0.3140   -0.4674    4.4618 H   0  0  0  0  0  0  0  0  0  0  0  0
   -2.3996   -0.2630    4.7909 H   0  0  0  0  0  0  0  0  0  0  0  0
   -0.4542    0.7395    7.2535 H   0  0  0  0  0  0  0  0  0  0  0  0
   -2.3254    1.7092    6.4108 H   0  0  0  0  0  0  0  0  0  0  0  0
   -3.3867    2.4654    3.5734 H   0  0  0  0  0  0  0  0  0  0  0  0
   -2.8668    4.1452    3.6856 H   0  0  0  0  0  0  0  0  0  0  0  0
   -3.5532    3.3323    5.1034 H   0  0  0  0  0  0  0  0  0  0  0  0
    0.4061   -5.5354    3.9368 H   0  0  0  0  0  0  0  0  0  0  0  0
    5.0781   -7.8485    3.3879 H   0  0  0  0  0  0  0  0  0  0  0  0
    3.5131   -8.6430    3.2087 H   0  0  0  0  0  0  0  0  0  0  0  0
    3.8551   -7.6702    4.6329 H   0  0  0  0  0  0  0  0  0  0  0  0
    4.6796   -6.6165    1.0523 H   0  0  0  0  0  0  0  0  0  0  0  0
    3.2086   -5.6775    0.8543 H   0  0  0  0  0  0  0  0  0  0  0  0
    3.1224   -7.4331    0.9176 H   0  0  0  0  0  0  0  0  0  0  0  0
    5.2563   -5.2345    3.1982 H   0  0  0  0  0  0  0  0  0  0  0  0
  1  2  1  0
  1 33  1  0
  1 34  1  0
  1 35  1  0
  2  3  1  0
  3 25  1  0
  3  4  1  0
  3 36  1  6
  4  5  1  0
  4 37  1  0
  4 38  1  0
  5  6  1  0
  5  7  1  0
  5 39  1  6
  6 40  1  0
  6 41  1  0
  6 42  1  0
  7 22  1  0
  7  8  1  0
  7 43  1  1
  8  9  1  0
  8 44  1  0
  8 45  1  0
  9 18  1  0
  9 10  2  0
 10 16  1  0
 10 11  1  0
 11 12  2  0
 11 13  1  0
 13 14  1  0
 14 32  2  0
 14 15  1  0
 15 16  1  0
 15 27  2  0
 16 17  2  0
 17 18  1  0
 17 46  1  0
 18 19  1  1
 18 20  1  0
 20 21  1  0
 20 22  1  0
 20 47  1  6
 21 48  1  0
 22 23  1  0
 22 49  1  1
 23 25  1  0
 23 24  1  0
 23 50  1  1
 24 25  1  0
 25 26  1  6
 26 51  1  0
 26 52  1  0
 26 53  1  0
 27 28  1  0
 27 54  1  0
 28 29  1  0
 29 30  1  0
 29 31  1  0
 29 32  1  0
 30 55  1  0
 30 56  1  0
 30 57  1  0
 31 58  1  0
 31 59  1  0
 31 60  1  0
 32 61  1  0
M  CHG  1  19  -1
M  END
>  <i_m_ct_stereo_status>  (184) 
1

>  <s_m_source_file>  (184) 
/var/tmp/pbs.5076255.sched01/tmpqwfmwtcs/46j3o47u_k.sdf

>  <i_m_source_file_index>  (184) 
27

>  <i_lp_mmshare_version>  (184) 
48012

>  <i_f3d_flags>  (184) 
0

>  <s_epik_input>  (184) 
W0NIM11bQ0BASF0xW0NIMl1bQ0BASF0oT1tDSDNdKVtDQEBdKE8yKShbQ0gzXSlbQ0BIXTJbQ0BASF0oW0NAQEhdM1tPSF0pW0NASF0xW0NIMl1DKFtDQEBdMzRbT0hdKT1jNWMoPVtDSF00KWM9NmMob2M1PU8pPVtDSF1DKFtDSDNdKShbQ0gzXSlPW0NIXTY=

>  <s_epik_cmdline>  (184) 
J2VwaWtfcHl0aG9uJywgJy1waHQnLCAnMi4wJywgJy1waCcsICc3LjAnLCAnLXRuJywgJzgnLCAnLW1hJywgJzIwMCcsICctaW1hZScsICc8aW5maWxlLm1hZT4nLCAnLW9tYWUnLCAnPG91dGZpbGUubWFlPic=

>  <r_lp_tautomer_probability>  (184) 
1

>  <r_epik_Ionization_Penalty>  (184) 
6.26087e-07

>  <r_epik_Ionization_Penalty_Charging>  (184) 
0

>  <r_epik_Ionization_Penalty_Neutral>  (184) 
6.26087e-07

>  <r_epik_State_Penalty>  (184) 
-0

>  <r_epik_Charging_Adjusted_Penalty>  (184) 
0

>  <i_epik_Tot_Q>  (184) 
-1

>  <i_epik_Tot_abs_Q>  (184) 
1

>  <s_lp_Force_Field>  (184) 
OPLS3e

>  <r_lp_Energy>  (184) 
46.3295

>  <b_lp_Chiralities_Consistent>  (184) 
1

>  <s_lp_Variant>  (184) 
50:0-1

>  <s_i_glide_gridfile>  (184) 
pfpi4k_grid

>  <i_i_glide_lignum>  (184) 
27

>  <i_i_glide_rotatable_bonds>  (184) 
2

>  <r_i_docking_score>  (184) 
-2.3874

>  <r_i_glide_ligand_efficiency>  (184) 
-0.0746062

>  <r_i_glide_ligand_efficiency_sa>  (184) 
-0.23686

>  <r_i_glide_ligand_efficiency_ln>  (184) 
-0.534604

>  <r_i_glide_gscore>  (184) 
-2.3874

>  <r_i_glide_lipo>  (184) 
-0.0684511

>  <r_i_glide_hbond>  (184) 
-0.0335302

>  <r_i_glide_metal>  (184) 
-0

>  <r_i_glide_rewards>  (184) 
-0.398908

>  <r_i_glide_evdw>  (184) 
-22.1088

>  <r_i_glide_ecoul>  (184) 
-5.20713

>  <r_i_glide_erotb>  (184) 
0

>  <r_i_glide_esite>  (184) 
0

>  <r_i_glide_emodel>  (184) 
-32.8601

>  <r_i_glide_energy>  (184) 
-27.3159

>  <r_i_glide_einternal>  (184) 
0.783071

>  <r_i_glide_intrahb_reward>  (184) 
-0

>  <i_i_glide_confnum>  (184) 
2

>  <i_i_glide_posenum>  (184) 
5

>  <r_i_glide_eff_state_penalty>  (184) 
0

>  <ligand_id>  (184) 
50

>  <original_smiles>  (184) 
COC1CC(C)C2CC3=c4c(=O)oc5c(c4=CC3(O)C(O)C2C2OC12C)=COC(C)(C)C=5

>  <smiles>  (184) 
[H]OC1([H])C2([O-])C(=c3c(=O)oc4c(c3=C2[H])=C([H])OC(C([H])([H])[H])(C([H])([H])[H])C=4[H])C([H])([H])C2([H])C([H])(C([H])([H])[H])C([H])([H])C([H])(OC([H])([H])[H])C3(C([H])([H])[H])OC3([H])C12[H]

$$$$
51:0:0
     RDKit          3D

 49 54  0  0  1  0  0  0  0  0999 V2000
    1.9032   -2.2227    4.3480 O   0  0  0  0  0  0  0  0  0  0  0  0
    2.7242   -1.6953    3.6035 C   0  0  0  0  0  0  0  0  0  0  0  0
    2.5361   -0.2879    2.9956 C   0  0  0  0  0  0  0  0  0  0  0  0
    3.0266   -0.1209    1.5052 C   0  0  0  0  0  0  0  0  0  0  0  0
    4.2799   -0.9660    1.0988 C   0  0  2  0  0  0  0  0  0  0  0  0
    5.3710   -0.2842    1.7097 O   0  0  0  0  0  0  0  0  0  0  0  0
    4.6122   -1.2197   -0.4109 C   0  0  1  0  0  0  0  0  0  0  0  0
    5.9415   -2.0619   -0.5452 C   0  0  0  0  0  0  0  0  0  0  0  0
    6.1285   -3.2426    0.4132 C   0  0  0  0  0  0  0  0  0  0  0  0
    7.0752   -4.2846    0.3890 C   0  0  0  0  0  0  0  0  0  0  0  0
    7.0711   -5.2442    1.4364 C   0  0  0  0  0  0  0  0  0  0  0  0
    6.1783   -5.1469    2.5430 C   0  0  0  0  0  0  0  0  0  0  0  0
    6.2275   -6.0571    3.5537 O   0  0  0  0  0  0  0  0  0  0  0  0
    5.2448   -4.0872    2.6008 C   0  0  0  0  0  0  0  0  0  0  0  0
    5.2605   -3.2488    1.5061 C   0  0  0  0  0  0  0  0  0  0  0  0
    4.0976   -2.3613    1.6708 C   0  0  2  0  0  0  0  0  0  0  0  0
    2.8825   -3.0593    0.9718 C   0  0  0  0  0  0  0  0  0  0  0  0
    3.0758   -3.1720   -0.5518 C   0  0  0  0  0  0  0  0  0  0  0  0
    3.4591   -1.8603   -1.1358 N   0  0  2  0  0  0  0  0  0  0  0  0
    3.6176   -1.9353   -2.6187 C   0  0  0  0  0  0  0  0  0  0  0  0
    3.5834   -0.5679   -3.2916 C   0  0  0  0  0  0  0  0  0  0  0  0
    2.6170   -0.2665   -4.4160 C   0  0  0  0  0  0  0  0  0  0  0  0
    4.0543   -0.4211   -4.7136 C   0  0  0  0  0  0  0  0  0  0  0  0
    4.0270   -2.3559    3.1884 C   0  0  2  0  0  0  0  0  0  0  0  0
    4.3123   -3.7213    3.5511 O   0  0  0  0  0  0  0  0  0  0  0  0
    1.4865   -0.0025    3.0837 H   0  0  0  0  0  0  0  0  0  0  0  0
    3.0917    0.3960    3.6360 H   0  0  0  0  0  0  0  0  0  0  0  0
    2.1864   -0.3564    0.8613 H   0  0  0  0  0  0  0  0  0  0  0  0
    3.2235    0.9361    1.3231 H   0  0  0  0  0  0  0  0  0  0  0  0
    6.0224   -0.0751    1.0595 H   0  0  0  0  0  0  0  0  0  0  0  0
    4.7992   -0.2518   -0.8571 H   0  0  0  0  0  0  0  0  0  0  0  0
    6.1121   -2.4215   -1.5569 H   0  0  0  0  0  0  0  0  0  0  0  0
    6.7773   -1.3879   -0.3609 H   0  0  0  0  0  0  0  0  0  0  0  0
    7.7811   -4.3506   -0.4297 H   0  0  0  0  0  0  0  0  0  0  0  0
    7.7737   -6.0565    1.3884 H   0  0  0  0  0  0  0  0  0  0  0  0
    6.8593   -6.7412    3.4021 H   0  0  0  0  0  0  0  0  0  0  0  0
    2.7084   -4.0533    1.3894 H   0  0  0  0  0  0  0  0  0  0  0  0
    1.9509   -2.5215    1.1450 H   0  0  0  0  0  0  0  0  0  0  0  0
    3.8223   -3.9357   -0.7836 H   0  0  0  0  0  0  0  0  0  0  0  0
    2.1500   -3.5218   -1.0107 H   0  0  0  0  0  0  0  0  0  0  0  0
    4.5315   -2.4554   -2.9135 H   0  0  0  0  0  0  0  0  0  0  0  0
    2.8215   -2.5489   -3.0418 H   0  0  0  0  0  0  0  0  0  0  0  0
    3.8445    0.2850   -2.6731 H   0  0  0  0  0  0  0  0  0  0  0  0
    1.9492   -1.0635   -4.7129 H   0  0  0  0  0  0  0  0  0  0  0  0
    2.1909    0.7284   -4.4284 H   0  0  0  0  0  0  0  0  0  0  0  0
    4.5930    0.4913   -4.9753 H   0  0  0  0  0  0  0  0  0  0  0  0
    4.3858   -1.3287   -5.2028 H   0  0  0  0  0  0  0  0  0  0  0  0
    4.8301   -1.7540    3.6122 H   0  0  0  0  0  0  0  0  0  0  0  0
    2.6340   -1.2791   -0.9911 H   0  0  0  0  0  0  0  0  0  0  0  0
  1  2  2  0
  2 24  1  0
  2  3  1  0
  3  4  1  0
  3 26  1  0
  3 27  1  0
  4  5  1  0
  4 28  1  0
  4 29  1  0
  5 16  1  0
  5  6  1  1
  5  7  1  0
  6 30  1  0
  7 19  1  0
  7  8  1  0
  7 31  1  6
  8  9  1  0
  8 32  1  0
  8 33  1  0
  9 15  2  0
  9 10  1  0
 10 11  2  0
 10 34  1  0
 11 12  1  0
 11 35  1  0
 12 13  1  0
 12 14  2  0
 13 36  1  0
 14 25  1  0
 14 15  1  0
 15 16  1  0
 16 17  1  6
 16 24  1  0
 17 18  1  0
 17 37  1  0
 17 38  1  0
 18 19  1  0
 18 39  1  0
 18 40  1  0
 19 20  1  0
 19 49  1  6
 20 21  1  0
 20 41  1  0
 20 42  1  0
 21 23  1  0
 21 22  1  0
 21 43  1  0
 22 23  1  0
 22 44  1  0
 22 45  1  0
 23 46  1  0
 23 47  1  0
 24 25  1  0
 24 48  1  1
M  CHG  1  19   1
M  END
>  <i_m_ct_stereo_status>  (185) 
1

>  <s_m_source_file>  (185) 
/var/tmp/pbs.5076255.sched01/tmpqwfmwtcs/46j3o47u_k.sdf

>  <i_m_source_file_index>  (185) 
28

>  <i_lp_mmshare_version>  (185) 
48012

>  <i_f3d_flags>  (185) 
0

>  <s_epik_input>  (185) 
W0NIMl0xW0NIMl1DKD1PKVtDQEhdMk9jKGMoW09IXSlbY0hdW2NIXTMpYzRjM1tDSDJdW0NASF0oW0NAQF0xKFtDQF0yNDUpW09IXSlOKFtDSDJdW0NIMl01KVtDSDJdW0NIXTZbQ0gyXVtDSDJdNg==

>  <s_epik_cmdline>  (185) 
J2VwaWtfcHl0aG9uJywgJy1waHQnLCAnMi4wJywgJy1waCcsICc3LjAnLCAnLXRuJywgJzgnLCAnLW1hJywgJzIwMCcsICctaW1hZScsICc8aW5maWxlLm1hZT4nLCAnLW9tYWUnLCAnPG91dGZpbGUubWFlPic=

>  <r_lp_tautomer_probability>  (185) 
1

>  <r_epik_Ionization_Penalty>  (185) 
0.0648164

>  <r_epik_Ionization_Penalty_Charging>  (185) 
0.0399915

>  <r_epik_Ionization_Penalty_Neutral>  (185) 
0.0248249

>  <r_epik_State_Penalty>  (185) 
0.0527122

>  <r_epik_Charging_Adjusted_Penalty>  (185) 
0.0927038

>  <i_epik_Tot_Q>  (185) 
1

>  <i_epik_Tot_abs_Q>  (185) 
1

>  <s_lp_Force_Field>  (185) 
OPLS3e

>  <r_lp_Energy>  (185) 
70.8002

>  <b_lp_Chiralities_Consistent>  (185) 
1

>  <s_lp_Variant>  (185) 
51:0-1

>  <s_i_glide_gridfile>  (185) 
pfpi4k_grid

>  <i_i_glide_lignum>  (185) 
28

>  <i_i_glide_rotatable_bonds>  (185) 
4

>  <r_i_docking_score>  (185) 
-4.26227

>  <r_i_glide_ligand_efficiency>  (185) 
-0.170491

>  <r_i_glide_ligand_efficiency_sa>  (185) 
-0.498518

>  <r_i_glide_ligand_efficiency_ln>  (185) 
-1.01029

>  <r_i_glide_gscore>  (185) 
-4.26227

>  <r_i_glide_lipo>  (185) 
-1.02075

>  <r_i_glide_hbond>  (185) 
-0.385458

>  <r_i_glide_metal>  (185) 
-0

>  <r_i_glide_rewards>  (185) 
-1.07449

>  <r_i_glide_evdw>  (185) 
-24.8321

>  <r_i_glide_ecoul>  (185) 
-5.19527

>  <r_i_glide_erotb>  (185) 
0.323465

>  <r_i_glide_esite>  (185) 
-0.0841455

>  <r_i_glide_emodel>  (185) 
-38.5894

>  <r_i_glide_energy>  (185) 
-30.0274

>  <r_i_glide_einternal>  (185) 
3.41298

>  <r_i_glide_intrahb_reward>  (185) 
-0

>  <i_i_glide_confnum>  (185) 
1

>  <i_i_glide_posenum>  (185) 
36

>  <r_i_glide_eff_state_penalty>  (185) 
0

>  <ligand_id>  (185) 
51

>  <original_smiles>  (185) 
O=C1CCC2(O)C3Cc4ccc(O)c5c4C2(CCN3CC2CC2)C1O5

>  <smiles>  (185) 
[H]Oc1c([H])c([H])c2c3c1OC1([H])C(=O)C([H])([H])C([H])([H])C4(O[H])C31C([H])([H])C([H])([H])[N+]([H])(C([H])([H])C1([H])C([H])([H])C1([H])[H])C4([H])C2([H])[H]

$$$$
51:0:1
     RDKit          3D

 49 54  0  0  1  0  0  0  0  0999 V2000
    1.9617   -5.0289    3.2271 O   0  0  0  0  0  0  0  0  0  0  0  0
    2.6099   -4.0063    2.9932 C   0  0  0  0  0  0  0  0  0  0  0  0
    1.9912   -2.5890    2.9778 C   0  0  0  0  0  0  0  0  0  0  0  0
    2.5125   -1.6128    1.8472 C   0  0  0  0  0  0  0  0  0  0  0  0
    4.0201   -1.7741    1.4512 C   0  0  2  0  0  0  0  0  0  0  0  0
    4.7722   -1.2164    2.5075 O   0  0  0  0  0  0  0  0  0  0  0  0
    4.5555   -1.1910    0.0824 C   0  0  1  0  0  0  0  0  0  0  0  0
    6.1064   -1.4828   -0.0630 C   0  0  0  0  0  0  0  0  0  0  0  0
    6.5942   -2.8773    0.3552 C   0  0  0  0  0  0  0  0  0  0  0  0
    7.8362   -3.4963    0.1040 C   0  0  0  0  0  0  0  0  0  0  0  0
    8.0863   -4.7879    0.6489 C   0  0  0  0  0  0  0  0  0  0  0  0
    7.1439   -5.4642    1.4591 C   0  0  0  0  0  0  0  0  0  0  0  0
    7.4230   -6.6914    1.9851 O   0  0  0  0  0  0  0  0  0  0  0  0
    5.8903   -4.8507    1.7318 C   0  0  0  0  0  0  0  0  0  0  0  0
    5.7082   -3.6216    1.1254 C   0  0  0  0  0  0  0  0  0  0  0  0
    4.2970   -3.2733    1.3700 C   0  0  2  0  0  0  0  0  0  0  0  0
    3.4790   -3.8981    0.1933 C   0  0  0  0  0  0  0  0  0  0  0  0
    3.9179   -3.2980   -1.1070 C   0  0  0  0  0  0  0  0  0  0  0  0
    3.7880   -1.7923   -1.0858 N   0  0  2  0  0  0  0  0  0  0  0  0
    4.0497   -1.1085   -2.4086 C   0  0  0  0  0  0  0  0  0  0  0  0
    3.2265   -1.6799   -3.5757 C   0  0  0  0  0  0  0  0  0  0  0  0
    2.1219   -2.6715   -3.3574 C   0  0  0  0  0  0  0  0  0  0  0  0
    3.4418   -3.1219   -3.9985 C   0  0  0  0  0  0  0  0  0  0  0  0
    4.0955   -4.0068    2.6849 C   0  0  2  0  0  0  0  0  0  0  0  0
    4.8219   -5.2403    2.4962 O   0  0  0  0  0  0  0  0  0  0  0  0
    0.9090   -2.6853    2.9219 H   0  0  0  0  0  0  0  0  0  0  0  0
    2.2116   -2.1579    3.9528 H   0  0  0  0  0  0  0  0  0  0  0  0
    1.8784   -1.7442    0.9734 H   0  0  0  0  0  0  0  0  0  0  0  0
    2.3247   -0.5858    2.1517 H   0  0  0  0  0  0  0  0  0  0  0  0
    4.5348   -0.3147    2.6350 H   0  0  0  0  0  0  0  0  0  0  0  0
    4.3827   -0.0988    0.0558 H   0  0  0  0  0  0  0  0  0  0  0  0
    6.4544   -1.3055   -1.0815 H   0  0  0  0  0  0  0  0  0  0  0  0
    6.6523   -0.7571    0.5325 H   0  0  0  0  0  0  0  0  0  0  0  0
    8.5876   -2.9958   -0.4957 H   0  0  0  0  0  0  0  0  0  0  0  0
    9.0335   -5.2613    0.4400 H   0  0  0  0  0  0  0  0  0  0  0  0
    8.2905   -7.0075    1.7683 H   0  0  0  0  0  0  0  0  0  0  0  0
    3.6149   -4.9703    0.1186 H   0  0  0  0  0  0  0  0  0  0  0  0
    2.4010   -3.7650    0.2860 H   0  0  0  0  0  0  0  0  0  0  0  0
    4.9281   -3.5669   -1.4356 H   0  0  0  0  0  0  0  0  0  0  0  0
    3.2867   -3.8377   -1.7642 H   0  0  0  0  0  0  0  0  0  0  0  0
    3.8234   -0.0376   -2.3211 H   0  0  0  0  0  0  0  0  0  0  0  0
    5.1118   -1.1502   -2.6656 H   0  0  0  0  0  0  0  0  0  0  0  0
    3.0824   -0.9716   -4.3853 H   0  0  0  0  0  0  0  0  0  0  0  0
    1.8582   -2.7919   -2.2945 H   0  0  0  0  0  0  0  0  0  0  0  0
    1.2625   -2.6620   -3.9919 H   0  0  0  0  0  0  0  0  0  0  0  0
    3.3811   -3.3818   -5.0368 H   0  0  0  0  0  0  0  0  0  0  0  0
    4.2363   -3.6546   -3.4590 H   0  0  0  0  0  0  0  0  0  0  0  0
    4.5906   -3.4726    3.4876 H   0  0  0  0  0  0  0  0  0  0  0  0
    2.8015   -1.5561   -0.9049 H   0  0  0  0  0  0  0  0  0  0  0  0
  1  2  2  0
  2 24  1  0
  2  3  1  0
  3  4  1  0
  3 26  1  0
  3 27  1  0
  4  5  1  0
  4 28  1  0
  4 29  1  0
  5 16  1  0
  5  6  1  1
  5  7  1  0
  6 30  1  0
  7 19  1  0
  7  8  1  0
  7 31  1  1
  8  9  1  0
  8 32  1  0
  8 33  1  0
  9 15  2  0
  9 10  1  0
 10 11  2  0
 10 34  1  0
 11 12  1  0
 11 35  1  0
 12 13  1  0
 12 14  2  0
 13 36  1  0
 14 25  1  0
 14 15  1  0
 15 16  1  0
 16 17  1  6
 16 24  1  0
 17 18  1  0
 17 37  1  0
 17 38  1  0
 18 19  1  0
 18 39  1  0
 18 40  1  0
 19 20  1  0
 19 49  1  1
 20 21  1  0
 20 41  1  0
 20 42  1  0
 21 23  1  0
 21 22  1  0
 21 43  1  0
 22 23  1  0
 22 44  1  0
 22 45  1  0
 23 46  1  0
 23 47  1  0
 24 25  1  0
 24 48  1  1
M  CHG  1  19   1
M  END
>  <i_m_ct_stereo_status>  (186) 
1

>  <s_m_source_file>  (186) 
/var/tmp/pbs.5076255.sched01/tmpqwfmwtcs/46j3o47u_k.sdf

>  <i_m_source_file_index>  (186) 
28

>  <i_lp_mmshare_version>  (186) 
48012

>  <i_f3d_flags>  (186) 
0

>  <s_epik_input>  (186) 
W0NIMl0xW0NIMl1DKD1PKVtDQEhdMk9jKGMoW09IXSlbY0hdW2NIXTMpYzRjM1tDSDJdW0NASF0oW0NAQF0xKFtDQF0yNDUpW09IXSlOKFtDSDJdW0NIMl01KVtDSDJdW0NIXTZbQ0gyXVtDSDJdNg==

>  <s_epik_cmdline>  (186) 
J2VwaWtfcHl0aG9uJywgJy1waHQnLCAnMi4wJywgJy1waCcsICc3LjAnLCAnLXRuJywgJzgnLCAnLW1hJywgJzIwMCcsICctaW1hZScsICc8aW5maWxlLm1hZT4nLCAnLW9tYWUnLCAnPG91dGZpbGUubWFlPic=

>  <r_lp_tautomer_probability>  (186) 
1

>  <r_epik_Ionization_Penalty>  (186) 
0.0648164

>  <r_epik_Ionization_Penalty_Charging>  (186) 
0.0399915

>  <r_epik_Ionization_Penalty_Neutral>  (186) 
0.0248249

>  <r_epik_State_Penalty>  (186) 
0.0527122

>  <r_epik_Charging_Adjusted_Penalty>  (186) 
0.0927038

>  <i_epik_Tot_Q>  (186) 
1

>  <i_epik_Tot_abs_Q>  (186) 
1

>  <s_lp_Force_Field>  (186) 
OPLS3e

>  <r_lp_Energy>  (186) 
70.8002

>  <b_lp_Chiralities_Consistent>  (186) 
1

>  <s_lp_Variant>  (186) 
51:0-1

>  <s_i_glide_gridfile>  (186) 
pfpi4k_grid

>  <i_i_glide_lignum>  (186) 
28

>  <i_i_glide_rotatable_bonds>  (186) 
4

>  <r_i_docking_score>  (186) 
-4.225

>  <r_i_glide_ligand_efficiency>  (186) 
-0.169

>  <r_i_glide_ligand_efficiency_sa>  (186) 
-0.494159

>  <r_i_glide_ligand_efficiency_ln>  (186) 
-1.00145

>  <r_i_glide_gscore>  (186) 
-4.225

>  <r_i_glide_lipo>  (186) 
-1.16654

>  <r_i_glide_hbond>  (186) 
-0.141272

>  <r_i_glide_metal>  (186) 
-0

>  <r_i_glide_rewards>  (186) 
-1.07449

>  <r_i_glide_evdw>  (186) 
-29.5255

>  <r_i_glide_ecoul>  (186) 
-5.43531

>  <r_i_glide_erotb>  (186) 
0.323465

>  <r_i_glide_esite>  (186) 
-0.064076

>  <r_i_glide_emodel>  (186) 
-35.6569

>  <r_i_glide_energy>  (186) 
-34.9608

>  <r_i_glide_einternal>  (186) 
10.8779

>  <r_i_glide_intrahb_reward>  (186) 
-0

>  <i_i_glide_confnum>  (186) 
4

>  <i_i_glide_posenum>  (186) 
19

>  <r_i_glide_eff_state_penalty>  (186) 
0

>  <ligand_id>  (186) 
51

>  <original_smiles>  (186) 
O=C1CCC2(O)C3Cc4ccc(O)c5c4C2(CCN3CC2CC2)C1O5

>  <smiles>  (186) 
[H]Oc1c([H])c([H])c2c3c1OC1([H])C(=O)C([H])([H])C([H])([H])C4(O[H])C31C([H])([H])C([H])([H])[N+]([H])(C([H])([H])C1([H])C([H])([H])C1([H])[H])C4([H])C2([H])[H]

$$$$
51:0:2
     RDKit          3D

 49 54  0  0  1  0  0  0  0  0999 V2000
    1.2010   -4.4528    3.5479 O   0  0  0  0  0  0  0  0  0  0  0  0
    2.0310   -3.5683    3.3455 C   0  0  0  0  0  0  0  0  0  0  0  0
    1.6722   -2.0659    3.3072 C   0  0  0  0  0  0  0  0  0  0  0  0
    2.4213   -1.2100    2.2089 C   0  0  0  0  0  0  0  0  0  0  0  0
    3.8929   -1.6495    1.8891 C   0  0  2  0  0  0  0  0  0  0  0  0
    4.6743   -1.2140    2.9957 O   0  0  0  0  0  0  0  0  0  0  0  0
    4.5861   -1.1711    0.5658 C   0  0  1  0  0  0  0  0  0  0  0  0
    6.0633   -1.7230    0.5020 C   0  0  0  0  0  0  0  0  0  0  0  0
    6.3007   -3.1869    0.9268 C   0  0  0  0  0  0  0  0  0  0  0  0
    7.4305   -4.0163    0.7684 C   0  0  0  0  0  0  0  0  0  0  0  0
    7.4161   -5.3284    1.3238 C   0  0  0  0  0  0  0  0  0  0  0  0
    6.3084   -5.8138    2.0758 C   0  0  0  0  0  0  0  0  0  0  0  0
    6.3377   -7.0651    2.6167 O   0  0  0  0  0  0  0  0  0  0  0  0
    5.1769   -4.9928    2.2649 C   0  0  0  0  0  0  0  0  0  0  0  0
    5.2448   -3.7609    1.6366 C   0  0  0  0  0  0  0  0  0  0  0  0
    3.9073   -3.1689    1.7939 C   0  0  2  0  0  0  0  0  0  0  0  0
    3.0545   -3.6230    0.5628 C   0  0  0  0  0  0  0  0  0  0  0  0
    3.5929   -3.0434   -0.7495 C   0  0  0  0  0  0  0  0  0  0  0  0
    3.7903   -1.5723   -0.6442 N   0  0  2  0  0  0  0  0  0  0  0  0
    4.2988   -0.9838   -1.9127 C   0  0  0  0  0  0  0  0  0  0  0  0
    3.2573   -0.9977   -3.0078 C   0  0  0  0  0  0  0  0  0  0  0  0
    3.1555   -2.1767   -3.9473 C   0  0  0  0  0  0  0  0  0  0  0  0
    3.6668   -0.8542   -4.4585 C   0  0  0  0  0  0  0  0  0  0  0  0
    3.5057   -3.8373    3.1026 C   0  0  2  0  0  0  0  0  0  0  0  0
    3.9990   -5.1827    2.9652 O   0  0  0  0  0  0  0  0  0  0  0  0
    0.5918   -1.9639    3.1939 H   0  0  0  0  0  0  0  0  0  0  0  0
    1.9116   -1.6746    4.2961 H   0  0  0  0  0  0  0  0  0  0  0  0
    1.8147   -1.2251    1.3031 H   0  0  0  0  0  0  0  0  0  0  0  0
    2.4114   -0.1660    2.5241 H   0  0  0  0  0  0  0  0  0  0  0  0
    4.5893   -0.2785    3.0966 H   0  0  0  0  0  0  0  0  0  0  0  0
    4.6272   -0.0816    0.5688 H   0  0  0  0  0  0  0  0  0  0  0  0
    6.4965   -1.5887   -0.4865 H   0  0  0  0  0  0  0  0  0  0  0  0
    6.6835   -1.1125    1.1606 H   0  0  0  0  0  0  0  0  0  0  0  0
    8.2953   -3.6560    0.2286 H   0  0  0  0  0  0  0  0  0  0  0  0
    8.2748   -5.9618    1.1760 H   0  0  0  0  0  0  0  0  0  0  0  0
    7.1412   -7.5288    2.4415 H   0  0  0  0  0  0  0  0  0  0  0  0
    3.0185   -4.7119    0.4859 H   0  0  0  0  0  0  0  0  0  0  0  0
    2.0150   -3.3118    0.6495 H   0  0  0  0  0  0  0  0  0  0  0  0
    4.5198   -3.5427   -1.0359 H   0  0  0  0  0  0  0  0  0  0  0  0
    2.8768   -3.2720   -1.5365 H   0  0  0  0  0  0  0  0  0  0  0  0
    4.5814    0.0564   -1.7608 H   0  0  0  0  0  0  0  0  0  0  0  0
    5.1878   -1.5029   -2.2701 H   0  0  0  0  0  0  0  0  0  0  0  0
    2.3302   -0.4902   -2.7411 H   0  0  0  0  0  0  0  0  0  0  0  0
    3.8717   -2.9878   -3.8215 H   0  0  0  0  0  0  0  0  0  0  0  0
    2.1574   -2.4808   -4.2632 H   0  0  0  0  0  0  0  0  0  0  0  0
    3.0079   -0.3091   -5.1333 H   0  0  0  0  0  0  0  0  0  0  0  0
    4.7245   -0.7859   -4.6970 H   0  0  0  0  0  0  0  0  0  0  0  0
    4.0439   -3.4008    3.9428 H   0  0  0  0  0  0  0  0  0  0  0  0
    2.8587   -1.1838   -0.5200 H   0  0  0  0  0  0  0  0  0  0  0  0
  1  2  2  0
  2 24  1  0
  2  3  1  0
  3  4  1  0
  3 26  1  0
  3 27  1  0
  4  5  1  0
  4 28  1  0
  4 29  1  0
  5 16  1  0
  5  6  1  1
  5  7  1  0
  6 30  1  0
  7 19  1  0
  7  8  1  0
  7 31  1  1
  8  9  1  0
  8 32  1  0
  8 33  1  0
  9 15  2  0
  9 10  1  0
 10 11  2  0
 10 34  1  0
 11 12  1  0
 11 35  1  0
 12 13  1  0
 12 14  2  0
 13 36  1  0
 14 25  1  0
 14 15  1  0
 15 16  1  0
 16 17  1  6
 16 24  1  0
 17 18  1  0
 17 37  1  0
 17 38  1  0
 18 19  1  0
 18 39  1  0
 18 40  1  0
 19 20  1  0
 19 49  1  1
 20 21  1  0
 20 41  1  0
 20 42  1  0
 21 23  1  0
 21 22  1  0
 21 43  1  0
 22 23  1  0
 22 44  1  0
 22 45  1  0
 23 46  1  0
 23 47  1  0
 24 25  1  0
 24 48  1  1
M  CHG  1  19   1
M  END
>  <i_m_ct_stereo_status>  (187) 
1

>  <s_m_source_file>  (187) 
/var/tmp/pbs.5076255.sched01/tmpqwfmwtcs/46j3o47u_k.sdf

>  <i_m_source_file_index>  (187) 
28

>  <i_lp_mmshare_version>  (187) 
48012

>  <i_f3d_flags>  (187) 
0

>  <s_epik_input>  (187) 
W0NIMl0xW0NIMl1DKD1PKVtDQEhdMk9jKGMoW09IXSlbY0hdW2NIXTMpYzRjM1tDSDJdW0NASF0oW0NAQF0xKFtDQF0yNDUpW09IXSlOKFtDSDJdW0NIMl01KVtDSDJdW0NIXTZbQ0gyXVtDSDJdNg==

>  <s_epik_cmdline>  (187) 
J2VwaWtfcHl0aG9uJywgJy1waHQnLCAnMi4wJywgJy1waCcsICc3LjAnLCAnLXRuJywgJzgnLCAnLW1hJywgJzIwMCcsICctaW1hZScsICc8aW5maWxlLm1hZT4nLCAnLW9tYWUnLCAnPG91dGZpbGUubWFlPic=

>  <r_lp_tautomer_probability>  (187) 
1

>  <r_epik_Ionization_Penalty>  (187) 
0.0648164

>  <r_epik_Ionization_Penalty_Charging>  (187) 
0.0399915

>  <r_epik_Ionization_Penalty_Neutral>  (187) 
0.0248249

>  <r_epik_State_Penalty>  (187) 
0.0527122

>  <r_epik_Charging_Adjusted_Penalty>  (187) 
0.0927038

>  <i_epik_Tot_Q>  (187) 
1

>  <i_epik_Tot_abs_Q>  (187) 
1

>  <s_lp_Force_Field>  (187) 
OPLS3e

>  <r_lp_Energy>  (187) 
70.8002

>  <b_lp_Chiralities_Consistent>  (187) 
1

>  <s_lp_Variant>  (187) 
51:0-1

>  <s_i_glide_gridfile>  (187) 
pfpi4k_grid

>  <i_i_glide_lignum>  (187) 
28

>  <i_i_glide_rotatable_bonds>  (187) 
4

>  <r_i_docking_score>  (187) 
-3.84074

>  <r_i_glide_ligand_efficiency>  (187) 
-0.15363

>  <r_i_glide_ligand_efficiency_sa>  (187) 
-0.449216

>  <r_i_glide_ligand_efficiency_ln>  (187) 
-0.91037

>  <r_i_glide_gscore>  (187) 
-3.84074

>  <r_i_glide_lipo>  (187) 
-0.744205

>  <r_i_glide_hbond>  (187) 
-0.136472

>  <r_i_glide_metal>  (187) 
-0

>  <r_i_glide_rewards>  (187) 
-1.08137

>  <r_i_glide_evdw>  (187) 
-28.1951

>  <r_i_glide_ecoul>  (187) 
-4.78948

>  <r_i_glide_erotb>  (187) 
0.323465

>  <r_i_glide_esite>  (187) 
-0.0739775

>  <r_i_glide_emodel>  (187) 
-42.2016

>  <r_i_glide_energy>  (187) 
-32.9845

>  <r_i_glide_einternal>  (187) 
0.159105

>  <r_i_glide_intrahb_reward>  (187) 
-0

>  <i_i_glide_confnum>  (187) 
1

>  <i_i_glide_posenum>  (187) 
39

>  <r_i_glide_eff_state_penalty>  (187) 
0

>  <ligand_id>  (187) 
51

>  <original_smiles>  (187) 
O=C1CCC2(O)C3Cc4ccc(O)c5c4C2(CCN3CC2CC2)C1O5

>  <smiles>  (187) 
[H]Oc1c([H])c([H])c2c3c1OC1([H])C(=O)C([H])([H])C([H])([H])C4(O[H])C31C([H])([H])C([H])([H])[N+]([H])(C([H])([H])C1([H])C([H])([H])C1([H])[H])C4([H])C2([H])[H]

$$$$
51:1:0
     RDKit          3D

 48 53  0  0  1  0  0  0  0  0999 V2000
    2.0071   -5.0229    2.0106 O   0  0  0  0  0  0  0  0  0  0  0  0
    2.8450   -4.1126    2.0113 C   0  0  0  0  0  0  0  0  0  0  0  0
    2.4693   -2.6157    2.0489 C   0  0  0  0  0  0  0  0  0  0  0  0
    3.3535   -1.6701    1.1395 C   0  0  0  0  0  0  0  0  0  0  0  0
    4.8640   -2.0688    1.0132 C   0  0  2  0  0  0  0  0  0  0  0  0
    5.4206   -1.6470    2.2511 O   0  0  0  0  0  0  0  0  0  0  0  0
    5.7894   -1.4908   -0.1323 C   0  0  1  0  0  0  0  0  0  0  0  0
    7.2503   -1.9950    0.0652 C   0  0  0  0  0  0  0  0  0  0  0  0
    7.4619   -3.4572    0.4530 C   0  0  0  0  0  0  0  0  0  0  0  0
    8.6275   -4.2360    0.4919 C   0  0  0  0  0  0  0  0  0  0  0  0
    8.5667   -5.5867    0.9498 C   0  0  0  0  0  0  0  0  0  0  0  0
    7.3561   -6.1648    1.4199 C   0  0  0  0  0  0  0  0  0  0  0  0
    7.3509   -7.4453    1.8821 O   0  0  0  0  0  0  0  0  0  0  0  0
    6.1518   -5.3983    1.4174 C   0  0  0  0  0  0  0  0  0  0  0  0
    6.3089   -4.1217    0.8828 C   0  0  0  0  0  0  0  0  0  0  0  0
    4.9429   -3.5657    0.8222 C   0  0  2  0  0  0  0  0  0  0  0  0
    4.3289   -3.9390   -0.5675 C   0  0  0  0  0  0  0  0  0  0  0  0
    5.1318   -3.2777   -1.6945 C   0  0  0  0  0  0  0  0  0  0  0  0
    5.3694   -1.8320   -1.5154 N   0  0  0  0  0  0  0  0  0  0  0  0
    4.3926   -0.9392   -2.1229 C   0  0  0  0  0  0  0  0  0  0  0  0
    4.0853   -1.2320   -3.5724 C   0  0  0  0  0  0  0  0  0  0  0  0
    2.9507   -0.5482   -4.2836 C   0  0  0  0  0  0  0  0  0  0  0  0
    2.8351   -2.0074   -3.9209 C   0  0  0  0  0  0  0  0  0  0  0  0
    4.3374   -4.3468    1.9905 C   0  0  2  0  0  0  0  0  0  0  0  0
    4.8901   -5.6693    1.8578 O   0  0  0  0  0  0  0  0  0  0  0  0
    1.4222   -2.4995    1.7693 H   0  0  0  0  0  0  0  0  0  0  0  0
    2.5433   -2.2972    3.0881 H   0  0  0  0  0  0  0  0  0  0  0  0
    2.8628   -1.6645    0.1765 H   0  0  0  0  0  0  0  0  0  0  0  0
    3.2711   -0.6496    1.5106 H   0  0  0  0  0  0  0  0  0  0  0  0
    4.9732   -2.0868    2.9458 H   0  0  0  0  0  0  0  0  0  0  0  0
    5.8133   -0.4051   -0.0450 H   0  0  0  0  0  0  0  0  0  0  0  0
    7.8339   -1.8608   -0.8507 H   0  0  0  0  0  0  0  0  0  0  0  0
    7.7459   -1.3812    0.8260 H   0  0  0  0  0  0  0  0  0  0  0  0
    9.5477   -3.7909    0.1728 H   0  0  0  0  0  0  0  0  0  0  0  0
    9.4506   -6.1907    0.9536 H   0  0  0  0  0  0  0  0  0  0  0  0
    8.1977   -7.8442    1.8489 H   0  0  0  0  0  0  0  0  0  0  0  0
    4.3139   -5.0179   -0.7193 H   0  0  0  0  0  0  0  0  0  0  0  0
    3.2873   -3.6295   -0.6566 H   0  0  0  0  0  0  0  0  0  0  0  0
    6.0863   -3.7929   -1.7944 H   0  0  0  0  0  0  0  0  0  0  0  0
    4.6190   -3.4865   -2.6356 H   0  0  0  0  0  0  0  0  0  0  0  0
    3.4493   -0.9310   -1.5826 H   0  0  0  0  0  0  0  0  0  0  0  0
    4.7737    0.0852   -2.0791 H   0  0  0  0  0  0  0  0  0  0  0  0
    4.9513   -1.4391   -4.1959 H   0  0  0  0  0  0  0  0  0  0  0  0
    2.3722    0.1579   -3.6947 H   0  0  0  0  0  0  0  0  0  0  0  0
    3.0865   -0.2913   -5.3294 H   0  0  0  0  0  0  0  0  0  0  0  0
    2.9339   -2.7559   -4.6984 H   0  0  0  0  0  0  0  0  0  0  0  0
    2.1914   -2.2874   -3.0860 H   0  0  0  0  0  0  0  0  0  0  0  0
    4.7212   -3.9550    2.9339 H   0  0  0  0  0  0  0  0  0  0  0  0
  1  2  2  0
  2 24  1  0
  2  3  1  0
  3  4  1  0
  3 26  1  0
  3 27  1  0
  4  5  1  0
  4 28  1  0
  4 29  1  0
  5 16  1  0
  5  6  1  1
  5  7  1  0
  6 30  1  0
  7 19  1  0
  7  8  1  0
  7 31  1  6
  8  9  1  0
  8 32  1  0
  8 33  1  0
  9 15  2  0
  9 10  1  0
 10 11  2  0
 10 34  1  0
 11 12  1  0
 11 35  1  0
 12 13  1  0
 12 14  2  0
 13 36  1  0
 14 25  1  0
 14 15  1  0
 15 16  1  0
 16 17  1  6
 16 24  1  0
 17 18  1  0
 17 37  1  0
 17 38  1  0
 18 19  1  0
 18 39  1  0
 18 40  1  0
 19 20  1  0
 20 21  1  0
 20 41  1  0
 20 42  1  0
 21 23  1  0
 21 22  1  0
 21 43  1  0
 22 23  1  0
 22 44  1  0
 22 45  1  0
 23 46  1  0
 23 47  1  0
 24 25  1  0
 24 48  1  1
M  END
>  <i_m_ct_stereo_status>  (188) 
1

>  <s_m_source_file>  (188) 
/var/tmp/pbs.5076255.sched01/tmpqwfmwtcs/46j3o47u_k.sdf

>  <i_m_source_file_index>  (188) 
29

>  <i_lp_mmshare_version>  (188) 
48012

>  <i_f3d_flags>  (188) 
0

>  <s_epik_input>  (188) 
W0NIMl0xW0NIMl1DKD1PKVtDQEhdMk9jKGMoW09IXSlbY0hdW2NIXTMpYzRjM1tDSDJdW0NASF0oW0NAQF0xKFtDQF0yNDUpW09IXSlOKFtDSDJdW0NIMl01KVtDSDJdW0NIXTZbQ0gyXVtDSDJdNg==

>  <s_epik_cmdline>  (188) 
J2VwaWtfcHl0aG9uJywgJy1waHQnLCAnMi4wJywgJy1waCcsICc3LjAnLCAnLXRuJywgJzgnLCAnLW1hJywgJzIwMCcsICctaW1hZScsICc8aW5maWxlLm1hZT4nLCAnLW9tYWUnLCAnPG91dGZpbGUubWFlPic=

>  <r_lp_tautomer_probability>  (188) 
1

>  <r_epik_Ionization_Penalty>  (188) 
1.61846

>  <r_epik_Ionization_Penalty_Charging>  (188) 
0

>  <r_epik_Ionization_Penalty_Neutral>  (188) 
1.61846

>  <r_epik_State_Penalty>  (188) 
1.73553

>  <r_epik_Charging_Adjusted_Penalty>  (188) 
1.73553

>  <i_epik_Tot_Q>  (188) 
0

>  <i_epik_Tot_abs_Q>  (188) 
0

>  <s_lp_Force_Field>  (188) 
OPLS3e

>  <r_lp_Energy>  (188) 
79.2467

>  <b_lp_Chiralities_Consistent>  (188) 
1

>  <s_lp_Variant>  (188) 
51:0-2

>  <s_i_glide_gridfile>  (188) 
pfpi4k_grid

>  <i_i_glide_lignum>  (188) 
29

>  <i_i_glide_rotatable_bonds>  (188) 
4

>  <r_i_docking_score>  (188) 
-3.7083

>  <r_i_glide_ligand_efficiency>  (188) 
-0.148332

>  <r_i_glide_ligand_efficiency_sa>  (188) 
-0.433726

>  <r_i_glide_ligand_efficiency_ln>  (188) 
-0.878979

>  <r_i_glide_gscore>  (188) 
-3.7083

>  <r_i_glide_lipo>  (188) 
-1.12365

>  <r_i_glide_hbond>  (188) 
0

>  <r_i_glide_metal>  (188) 
-0

>  <r_i_glide_rewards>  (188) 
-1.08136

>  <r_i_glide_evdw>  (188) 
-28.1587

>  <r_i_glide_ecoul>  (188) 
-2.77237

>  <r_i_glide_erotb>  (188) 
0.325161

>  <r_i_glide_esite>  (188) 
-0.00466226

>  <r_i_glide_emodel>  (188) 
-37.8695

>  <r_i_glide_energy>  (188) 
-30.9311

>  <r_i_glide_einternal>  (188) 
0.619736

>  <r_i_glide_intrahb_reward>  (188) 
-0

>  <i_i_glide_confnum>  (188) 
1

>  <i_i_glide_posenum>  (188) 
21

>  <r_i_glide_eff_state_penalty>  (188) 
0

>  <ligand_id>  (188) 
51

>  <original_smiles>  (188) 
O=C1CCC2(O)C3Cc4ccc(O)c5c4C2(CCN3CC2CC2)C1O5

>  <smiles>  (188) 
[H]Oc1c([H])c([H])c2c3c1OC1([H])C(=O)C([H])([H])C([H])([H])C4(O[H])C([H])(N(C([H])([H])C5([H])C([H])([H])C5([H])[H])C([H])([H])C([H])([H])C314)C2([H])[H]

$$$$
51:1:1
     RDKit          3D

 48 53  0  0  1  0  0  0  0  0999 V2000
    1.8972   -4.2722    2.5083 O   0  0  0  0  0  0  0  0  0  0  0  0
    2.8366   -3.4925    2.3522 C   0  0  0  0  0  0  0  0  0  0  0  0
    2.6646   -1.9595    2.2438 C   0  0  0  0  0  0  0  0  0  0  0  0
    3.5991   -1.2421    1.1921 C   0  0  0  0  0  0  0  0  0  0  0  0
    5.0329   -1.8579    1.0071 C   0  0  2  0  0  0  0  0  0  0  0  0
    5.7473   -1.4512    2.1667 O   0  0  0  0  0  0  0  0  0  0  0  0
    5.9267   -1.5374   -0.2509 C   0  0  1  0  0  0  0  0  0  0  0  0
    7.3313   -2.2210   -0.1101 C   0  0  0  0  0  0  0  0  0  0  0  0
    7.3607   -3.6622    0.4277 C   0  0  0  0  0  0  0  0  0  0  0  0
    8.4172   -4.5914    0.4760 C   0  0  0  0  0  0  0  0  0  0  0  0
    8.2105   -5.8665    1.0752 C   0  0  0  0  0  0  0  0  0  0  0  0
    6.9687   -6.2116    1.6788 C   0  0  0  0  0  0  0  0  0  0  0  0
    6.8120   -7.4277    2.2748 O   0  0  0  0  0  0  0  0  0  0  0  0
    5.9018   -5.2862    1.6673 C   0  0  0  0  0  0  0  0  0  0  0  0
    6.1654   -4.1020    0.9992 C   0  0  0  0  0  0  0  0  0  0  0  0
    4.8856   -3.3708    0.9722 C   0  0  2  0  0  0  0  0  0  0  0  0
    4.1152   -3.7759   -0.3270 C   0  0  0  0  0  0  0  0  0  0  0  0
    4.8998   -3.3486   -1.5745 C   0  0  0  0  0  0  0  0  0  0  0  0
    5.3534   -1.9444   -1.5511 N   0  0  0  0  0  0  0  0  0  0  0  0
    4.4600   -0.9815   -2.1886 C   0  0  0  0  0  0  0  0  0  0  0  0
    4.1225   -1.3185   -3.6253 C   0  0  0  0  0  0  0  0  0  0  0  0
    3.0044   -0.5900   -4.3284 C   0  0  0  0  0  0  0  0  0  0  0  0
    2.8261   -2.0346   -3.9324 C   0  0  0  0  0  0  0  0  0  0  0  0
    4.2855   -3.9317    2.2539 C   0  0  2  0  0  0  0  0  0  0  0  0
    4.6371   -5.3273    2.2275 O   0  0  0  0  0  0  0  0  0  0  0  0
    1.6165   -1.7340    2.0274 H   0  0  0  0  0  0  0  0  0  0  0  0
    2.8671   -1.5596    3.2370 H   0  0  0  0  0  0  0  0  0  0  0  0
    3.0420   -1.2497    0.2632 H   0  0  0  0  0  0  0  0  0  0  0  0
    3.6812   -0.1882    1.4574 H   0  0  0  0  0  0  0  0  0  0  0  0
    5.9310   -0.5268    2.1112 H   0  0  0  0  0  0  0  0  0  0  0  0
    6.0992   -0.4627   -0.2815 H   0  0  0  0  0  0  0  0  0  0  0  0
    7.8371   -2.2340   -1.0770 H   0  0  0  0  0  0  0  0  0  0  0  0
    7.9535   -1.6177    0.5472 H   0  0  0  0  0  0  0  0  0  0  0  0
    9.3665   -4.3356    0.0388 H   0  0  0  0  0  0  0  0  0  0  0  0
    9.0168   -6.5835    1.0738 H   0  0  0  0  0  0  0  0  0  0  0  0
    7.5952   -7.9537    2.2305 H   0  0  0  0  0  0  0  0  0  0  0  0
    3.9434   -4.8531   -0.3657 H   0  0  0  0  0  0  0  0  0  0  0  0
    3.1193   -3.3349   -0.3793 H   0  0  0  0  0  0  0  0  0  0  0  0
    5.7672   -4.0019   -1.6823 H   0  0  0  0  0  0  0  0  0  0  0  0
    4.2943   -3.5607   -2.4532 H   0  0  0  0  0  0  0  0  0  0  0  0
    3.5246   -0.8737   -1.6460 H   0  0  0  0  0  0  0  0  0  0  0  0
    4.9355    0.0005   -2.2014 H   0  0  0  0  0  0  0  0  0  0  0  0
    4.9819   -1.5704   -4.2442 H   0  0  0  0  0  0  0  0  0  0  0  0
    2.4688    0.1588   -3.7524 H   0  0  0  0  0  0  0  0  0  0  0  0
    3.1212   -0.3715   -5.3879 H   0  0  0  0  0  0  0  0  0  0  0  0
    2.8552   -2.7912   -4.7131 H   0  0  0  0  0  0  0  0  0  0  0  0
    2.1805   -2.2641   -3.0842 H   0  0  0  0  0  0  0  0  0  0  0  0
    4.7871   -3.5088    3.1251 H   0  0  0  0  0  0  0  0  0  0  0  0
  1  2  2  0
  2 24  1  0
  2  3  1  0
  3  4  1  0
  3 26  1  0
  3 27  1  0
  4  5  1  0
  4 28  1  0
  4 29  1  0
  5 16  1  0
  5  6  1  1
  5  7  1  0
  6 30  1  0
  7 19  1  0
  7  8  1  0
  7 31  1  6
  8  9  1  0
  8 32  1  0
  8 33  1  0
  9 15  2  0
  9 10  1  0
 10 11  2  0
 10 34  1  0
 11 12  1  0
 11 35  1  0
 12 13  1  0
 12 14  2  0
 13 36  1  0
 14 25  1  0
 14 15  1  0
 15 16  1  0
 16 17  1  6
 16 24  1  0
 17 18  1  0
 17 37  1  0
 17 38  1  0
 18 19  1  0
 18 39  1  0
 18 40  1  0
 19 20  1  0
 20 21  1  0
 20 41  1  0
 20 42  1  0
 21 23  1  0
 21 22  1  0
 21 43  1  0
 22 23  1  0
 22 44  1  0
 22 45  1  0
 23 46  1  0
 23 47  1  0
 24 25  1  0
 24 48  1  1
M  END
>  <i_m_ct_stereo_status>  (189) 
1

>  <s_m_source_file>  (189) 
/var/tmp/pbs.5076255.sched01/tmpqwfmwtcs/46j3o47u_k.sdf

>  <i_m_source_file_index>  (189) 
29

>  <i_lp_mmshare_version>  (189) 
48012

>  <i_f3d_flags>  (189) 
0

>  <s_epik_input>  (189) 
W0NIMl0xW0NIMl1DKD1PKVtDQEhdMk9jKGMoW09IXSlbY0hdW2NIXTMpYzRjM1tDSDJdW0NASF0oW0NAQF0xKFtDQF0yNDUpW09IXSlOKFtDSDJdW0NIMl01KVtDSDJdW0NIXTZbQ0gyXVtDSDJdNg==

>  <s_epik_cmdline>  (189) 
J2VwaWtfcHl0aG9uJywgJy1waHQnLCAnMi4wJywgJy1waCcsICc3LjAnLCAnLXRuJywgJzgnLCAnLW1hJywgJzIwMCcsICctaW1hZScsICc8aW5maWxlLm1hZT4nLCAnLW9tYWUnLCAnPG91dGZpbGUubWFlPic=

>  <r_lp_tautomer_probability>  (189) 
1

>  <r_epik_Ionization_Penalty>  (189) 
1.61846

>  <r_epik_Ionization_Penalty_Charging>  (189) 
0

>  <r_epik_Ionization_Penalty_Neutral>  (189) 
1.61846

>  <r_epik_State_Penalty>  (189) 
1.73553

>  <r_epik_Charging_Adjusted_Penalty>  (189) 
1.73553

>  <i_epik_Tot_Q>  (189) 
0

>  <i_epik_Tot_abs_Q>  (189) 
0

>  <s_lp_Force_Field>  (189) 
OPLS3e

>  <r_lp_Energy>  (189) 
79.2467

>  <b_lp_Chiralities_Consistent>  (189) 
1

>  <s_lp_Variant>  (189) 
51:0-2

>  <s_i_glide_gridfile>  (189) 
pfpi4k_grid

>  <i_i_glide_lignum>  (189) 
29

>  <i_i_glide_rotatable_bonds>  (189) 
4

>  <r_i_docking_score>  (189) 
-3.4684

>  <r_i_glide_ligand_efficiency>  (189) 
-0.138736

>  <r_i_glide_ligand_efficiency_sa>  (189) 
-0.405666

>  <r_i_glide_ligand_efficiency_ln>  (189) 
-0.822114

>  <r_i_glide_gscore>  (189) 
-3.4684

>  <r_i_glide_lipo>  (189) 
-1.147

>  <r_i_glide_hbond>  (189) 
0

>  <r_i_glide_metal>  (189) 
-0

>  <r_i_glide_rewards>  (189) 
-1.08136

>  <r_i_glide_evdw>  (189) 
-27.7211

>  <r_i_glide_ecoul>  (189) 
-1.18323

>  <r_i_glide_erotb>  (189) 
0.325161

>  <r_i_glide_esite>  (189) 
-0.00166031

>  <r_i_glide_emodel>  (189) 
-35.6292

>  <r_i_glide_energy>  (189) 
-28.9043

>  <r_i_glide_einternal>  (189) 
0.188593

>  <r_i_glide_intrahb_reward>  (189) 
-0

>  <i_i_glide_confnum>  (189) 
1

>  <i_i_glide_posenum>  (189) 
2

>  <r_i_glide_eff_state_penalty>  (189) 
0

>  <ligand_id>  (189) 
51

>  <original_smiles>  (189) 
O=C1CCC2(O)C3Cc4ccc(O)c5c4C2(CCN3CC2CC2)C1O5

>  <smiles>  (189) 
[H]Oc1c([H])c([H])c2c3c1OC1([H])C(=O)C([H])([H])C([H])([H])C4(O[H])C([H])(N(C([H])([H])C5([H])C([H])([H])C5([H])[H])C([H])([H])C([H])([H])C314)C2([H])[H]

$$$$
51:1:2
     RDKit          3D

 48 53  0  0  1  0  0  0  0  0999 V2000
    7.6347   -7.7413    5.3552 O   0  0  0  0  0  0  0  0  0  0  0  0
    7.1531   -8.2838    4.3638 C   0  0  0  0  0  0  0  0  0  0  0  0
    7.8182   -8.2545    2.9729 C   0  0  0  0  0  0  0  0  0  0  0  0
    6.8301   -8.0910    1.7543 C   0  0  0  0  0  0  0  0  0  0  0  0
    5.4265   -8.7741    1.8935 C   0  0  2  0  0  0  0  0  0  0  0  0
    5.7169  -10.1429    1.6564 O   0  0  0  0  0  0  0  0  0  0  0  0
    4.2080   -8.3745    0.9900 C   0  0  1  0  0  0  0  0  0  0  0  0
    2.9573   -9.2716    1.3166 C   0  0  0  0  0  0  0  0  0  0  0  0
    2.6614   -9.5623    2.7949 C   0  0  0  0  0  0  0  0  0  0  0  0
    1.5390  -10.1554    3.3970 C   0  0  0  0  0  0  0  0  0  0  0  0
    1.5254  -10.3641    4.8016 C   0  0  0  0  0  0  0  0  0  0  0  0
    2.6491  -10.0278    5.6232 C   0  0  0  0  0  0  0  0  0  0  0  0
    2.6191  -10.2479    6.9731 O   0  0  0  0  0  0  0  0  0  0  0  0
    3.7976   -9.4511    5.0342 C   0  0  0  0  0  0  0  0  0  0  0  0
    3.6988   -9.2211    3.6695 C   0  0  0  0  0  0  0  0  0  0  0  0
    4.9292   -8.4976    3.3038 C   0  0  2  0  0  0  0  0  0  0  0  0
    4.6483   -6.9605    3.4556 C   0  0  0  0  0  0  0  0  0  0  0  0
    3.5622   -6.5053    2.4699 C   0  0  0  0  0  0  0  0  0  0  0  0
    3.7819   -6.9623    1.0911 N   0  0  0  0  0  0  0  0  0  0  0  0
    4.4743   -6.0233    0.2181 C   0  0  0  0  0  0  0  0  0  0  0  0
    3.7509   -4.7009    0.0518 C   0  0  0  0  0  0  0  0  0  0  0  0
    4.3011   -3.6613   -0.8979 C   0  0  0  0  0  0  0  0  0  0  0  0
    4.3699   -3.4352    0.5903 C   0  0  0  0  0  0  0  0  0  0  0  0
    5.8491   -9.0620    4.3760 C   0  0  2  0  0  0  0  0  0  0  0  0
    5.0308   -9.1044    5.5595 O   0  0  0  0  0  0  0  0  0  0  0  0
    8.5824   -7.4708    2.9559 H   0  0  0  0  0  0  0  0  0  0  0  0
    8.3524   -9.1989    2.8801 H   0  0  0  0  0  0  0  0  0  0  0  0
    6.7392   -7.0241    1.5870 H   0  0  0  0  0  0  0  0  0  0  0  0
    7.3348   -8.4771    0.8696 H   0  0  0  0  0  0  0  0  0  0  0  0
    4.9279  -10.6095    1.4035 H   0  0  0  0  0  0  0  0  0  0  0  0
    4.4683   -8.5732   -0.0499 H   0  0  0  0  0  0  0  0  0  0  0  0
    2.0636   -8.8276    0.8755 H   0  0  0  0  0  0  0  0  0  0  0  0
    3.0587  -10.2331    0.8205 H   0  0  0  0  0  0  0  0  0  0  0  0
    0.6902  -10.4407    2.7921 H   0  0  0  0  0  0  0  0  0  0  0  0
    0.6501  -10.7858    5.2608 H   0  0  0  0  0  0  0  0  0  0  0  0
    2.0452  -10.9773    7.2309 H   0  0  0  0  0  0  0  0  0  0  0  0
    4.3354   -6.7099    4.4757 H   0  0  0  0  0  0  0  0  0  0  0  0
    5.5367   -6.3543    3.2870 H   0  0  0  0  0  0  0  0  0  0  0  0
    2.5990   -6.8781    2.8205 H   0  0  0  0  0  0  0  0  0  0  0  0
    3.4748   -5.4219    2.5087 H   0  0  0  0  0  0  0  0  0  0  0  0
    5.4756   -5.8080    0.5788 H   0  0  0  0  0  0  0  0  0  0  0  0
    4.5750   -6.4613   -0.7753 H   0  0  0  0  0  0  0  0  0  0  0  0
    2.6610   -4.7723    0.0788 H   0  0  0  0  0  0  0  0  0  0  0  0
    5.2164   -3.9205   -1.4250 H   0  0  0  0  0  0  0  0  0  0  0  0
    3.5838   -3.0685   -1.4611 H   0  0  0  0  0  0  0  0  0  0  0  0
    3.6991   -2.6925    1.0233 H   0  0  0  0  0  0  0  0  0  0  0  0
    5.3372   -3.5345    1.0848 H   0  0  0  0  0  0  0  0  0  0  0  0
    6.1097  -10.0948    4.1469 H   0  0  0  0  0  0  0  0  0  0  0  0
  1  2  2  0
  2 24  1  0
  2  3  1  0
  3  4  1  0
  3 26  1  0
  3 27  1  0
  4  5  1  0
  4 28  1  0
  4 29  1  0
  5 16  1  0
  5  6  1  1
  5  7  1  0
  6 30  1  0
  7 19  1  0
  7  8  1  0
  7 31  1  6
  8  9  1  0
  8 32  1  0
  8 33  1  0
  9 15  2  0
  9 10  1  0
 10 11  2  0
 10 34  1  0
 11 12  1  0
 11 35  1  0
 12 13  1  0
 12 14  2  0
 13 36  1  0
 14 25  1  0
 14 15  1  0
 15 16  1  0
 16 17  1  1
 16 24  1  0
 17 18  1  0
 17 37  1  0
 17 38  1  0
 18 19  1  0
 18 39  1  0
 18 40  1  0
 19 20  1  0
 20 21  1  0
 20 41  1  0
 20 42  1  0
 21 23  1  0
 21 22  1  0
 21 43  1  0
 22 23  1  0
 22 44  1  0
 22 45  1  0
 23 46  1  0
 23 47  1  0
 24 25  1  0
 24 48  1  6
M  END
>  <i_m_ct_stereo_status>  (190) 
1

>  <s_m_source_file>  (190) 
/var/tmp/pbs.5076255.sched01/tmpqwfmwtcs/46j3o47u_k.sdf

>  <i_m_source_file_index>  (190) 
29

>  <i_lp_mmshare_version>  (190) 
48012

>  <i_f3d_flags>  (190) 
0

>  <s_epik_input>  (190) 
W0NIMl0xW0NIMl1DKD1PKVtDQEhdMk9jKGMoW09IXSlbY0hdW2NIXTMpYzRjM1tDSDJdW0NASF0oW0NAQF0xKFtDQF0yNDUpW09IXSlOKFtDSDJdW0NIMl01KVtDSDJdW0NIXTZbQ0gyXVtDSDJdNg==

>  <s_epik_cmdline>  (190) 
J2VwaWtfcHl0aG9uJywgJy1waHQnLCAnMi4wJywgJy1waCcsICc3LjAnLCAnLXRuJywgJzgnLCAnLW1hJywgJzIwMCcsICctaW1hZScsICc8aW5maWxlLm1hZT4nLCAnLW9tYWUnLCAnPG91dGZpbGUubWFlPic=

>  <r_lp_tautomer_probability>  (190) 
1

>  <r_epik_Ionization_Penalty>  (190) 
1.61846

>  <r_epik_Ionization_Penalty_Charging>  (190) 
0

>  <r_epik_Ionization_Penalty_Neutral>  (190) 
1.61846

>  <r_epik_State_Penalty>  (190) 
1.73553

>  <r_epik_Charging_Adjusted_Penalty>  (190) 
1.73553

>  <i_epik_Tot_Q>  (190) 
0

>  <i_epik_Tot_abs_Q>  (190) 
0

>  <s_lp_Force_Field>  (190) 
OPLS3e

>  <r_lp_Energy>  (190) 
79.2467

>  <b_lp_Chiralities_Consistent>  (190) 
1

>  <s_lp_Variant>  (190) 
51:0-2

>  <s_i_glide_gridfile>  (190) 
pfpi4k_grid

>  <i_i_glide_lignum>  (190) 
29

>  <i_i_glide_rotatable_bonds>  (190) 
4

>  <r_i_docking_score>  (190) 
-3.32439

>  <r_i_glide_ligand_efficiency>  (190) 
-0.132976

>  <r_i_glide_ligand_efficiency_sa>  (190) 
-0.388823

>  <r_i_glide_ligand_efficiency_ln>  (190) 
-0.78798

>  <r_i_glide_gscore>  (190) 
-3.32439

>  <r_i_glide_lipo>  (190) 
-0.294131

>  <r_i_glide_hbond>  (190) 
-0.141997

>  <r_i_glide_metal>  (190) 
-0

>  <r_i_glide_rewards>  (190) 
-1.08187

>  <r_i_glide_evdw>  (190) 
-17.4855

>  <r_i_glide_ecoul>  (190) 
-8.38186

>  <r_i_glide_erotb>  (190) 
0.325161

>  <r_i_glide_esite>  (190) 
0

>  <r_i_glide_emodel>  (190) 
-30.9773

>  <r_i_glide_energy>  (190) 
-25.8674

>  <r_i_glide_einternal>  (190) 
1.76505

>  <r_i_glide_intrahb_reward>  (190) 
-0

>  <i_i_glide_confnum>  (190) 
6

>  <i_i_glide_posenum>  (190) 
27

>  <r_i_glide_eff_state_penalty>  (190) 
0

>  <ligand_id>  (190) 
51

>  <original_smiles>  (190) 
O=C1CCC2(O)C3Cc4ccc(O)c5c4C2(CCN3CC2CC2)C1O5

>  <smiles>  (190) 
[H]Oc1c([H])c([H])c2c3c1OC1([H])C(=O)C([H])([H])C([H])([H])C4(O[H])C([H])(N(C([H])([H])C5([H])C([H])([H])C5([H])[H])C([H])([H])C([H])([H])C314)C2([H])[H]

$$$$
51:2:0
     RDKit          3D

 48 53  0  0  1  0  0  0  0  0999 V2000
    0.9234   -3.2505    3.9630 O   0  0  0  0  0  0  0  0  0  0  0  0
    1.8627   -2.5312    3.6277 C   0  0  0  0  0  0  0  0  0  0  0  0
    1.7130   -1.0142    3.3746 C   0  0  0  0  0  0  0  0  0  0  0  0
    2.5550   -0.4353    2.1693 C   0  0  0  0  0  0  0  0  0  0  0  0
    3.9450   -1.1163    1.9208 C   0  0  2  0  0  0  0  0  0  0  0  0
    4.7942   -0.6311    2.9553 O   0  0  0  0  0  0  0  0  0  0  0  0
    4.6752   -0.9343    0.5437 C   0  0  1  0  0  0  0  0  0  0  0  0
    6.0663   -1.6852    0.5671 C   0  0  0  0  0  0  0  0  0  0  0  0
    6.1041   -3.0897    1.1917 C   0  0  0  0  0  0  0  0  0  0  0  0
    7.1001   -4.0885    1.1462 C   0  0  0  0  0  0  0  0  0  0  0  0
    6.9114   -5.2907    1.8809 C   0  0  0  0  0  0  0  0  0  0  0  0
    5.7658   -5.5043    2.6979 C   0  0  0  0  0  0  0  0  0  0  0  0
    5.6372   -6.6622    3.4125 O   0  0  0  0  0  0  0  0  0  0  0  0
    4.7624   -4.5114    2.7718 C   0  0  0  0  0  0  0  0  0  0  0  0
    4.9947   -3.4064    1.9767 C   0  0  0  0  0  0  0  0  0  0  0  0
    3.7522   -2.6188    2.0430 C   0  0  2  0  0  0  0  0  0  0  0  0
    2.8240   -3.1221    0.8859 C   0  0  0  0  0  0  0  0  0  0  0  0
    3.4199   -2.8224   -0.4963 C   0  0  0  0  0  0  0  0  0  0  0  0
    3.8120   -1.3947   -0.5992 N   0  0  2  0  0  0  0  0  0  0  0  0
    4.3759   -1.0602   -1.9339 C   0  0  0  0  0  0  0  0  0  0  0  0
    3.3290   -1.0849   -3.0258 C   0  0  0  0  0  0  0  0  0  0  0  0
    3.1687   -2.2977   -3.9148 C   0  0  0  0  0  0  0  0  0  0  0  0
    3.7458   -1.0231   -4.4781 C   0  0  0  0  0  0  0  0  0  0  0  0
    3.2829   -3.0328    3.4315 C   0  0  2  0  0  0  0  0  0  0  0  0
    3.5809   -4.4395    3.4891 O   0  0  0  0  0  0  0  0  0  0  0  0
    0.6541   -0.7795    3.2440 H   0  0  0  0  0  0  0  0  0  0  0  0
    2.0220   -0.5247    4.2988 H   0  0  0  0  0  0  0  0  0  0  0  0
    1.9337   -0.4993    1.2767 H   0  0  0  0  0  0  0  0  0  0  0  0
    2.6923    0.6353    2.3276 H   0  0  0  0  0  0  0  0  0  0  0  0
    4.7198    0.3084    3.0149 H   0  0  0  0  0  0  0  0  0  0  0  0
    4.8642    0.1325    0.3948 H   0  0  0  0  0  0  0  0  0  0  0  0
    6.4994   -1.7505   -0.4289 H   0  0  0  0  0  0  0  0  0  0  0  0
    6.7721   -1.0772    1.1375 H   0  0  0  0  0  0  0  0  0  0  0  0
    7.9959   -3.9311    0.5653 H   0  0  0  0  0  0  0  0  0  0  0  0
    7.6679   -6.0567    1.8326 H   0  0  0  0  0  0  0  0  0  0  0  0
    2.6394   -4.1957    0.9720 H   0  0  0  0  0  0  0  0  0  0  0  0
    1.8367   -2.6626    0.9237 H   0  0  0  0  0  0  0  0  0  0  0  0
    4.2662   -3.4810   -0.6975 H   0  0  0  0  0  0  0  0  0  0  0  0
    2.6750   -3.0587   -1.2563 H   0  0  0  0  0  0  0  0  0  0  0  0
    4.8022   -0.0579   -1.9253 H   0  0  0  0  0  0  0  0  0  0  0  0
    5.1814   -1.7429   -2.2102 H   0  0  0  0  0  0  0  0  0  0  0  0
    2.4337   -0.5124   -2.7853 H   0  0  0  0  0  0  0  0  0  0  0  0
    3.8413   -3.1380   -3.7491 H   0  0  0  0  0  0  0  0  0  0  0  0
    2.1538   -2.5658   -4.2125 H   0  0  0  0  0  0  0  0  0  0  0  0
    3.1119   -0.4754   -5.1741 H   0  0  0  0  0  0  0  0  0  0  0  0
    4.8063   -1.0193   -4.7160 H   0  0  0  0  0  0  0  0  0  0  0  0
    3.8881   -2.5619    4.2048 H   0  0  0  0  0  0  0  0  0  0  0  0
    2.9349   -0.8848   -0.5294 H   0  0  0  0  0  0  0  0  0  0  0  0
  1  2  2  0
  2 24  1  0
  2  3  1  0
  3  4  1  0
  3 26  1  0
  3 27  1  0
  4  5  1  0
  4 28  1  0
  4 29  1  0
  5 16  1  0
  5  6  1  1
  5  7  1  0
  6 30  1  0
  7 19  1  0
  7  8  1  0
  7 31  1  6
  8  9  1  0
  8 32  1  0
  8 33  1  0
  9 15  2  0
  9 10  1  0
 10 11  2  0
 10 34  1  0
 11 12  1  0
 11 35  1  0
 12 13  1  0
 12 14  2  0
 14 25  1  0
 14 15  1  0
 15 16  1  0
 16 17  1  6
 16 24  1  0
 17 18  1  0
 17 36  1  0
 17 37  1  0
 18 19  1  0
 18 38  1  0
 18 39  1  0
 19 20  1  0
 19 48  1  1
 20 21  1  0
 20 40  1  0
 20 41  1  0
 21 23  1  0
 21 22  1  0
 21 42  1  0
 22 23  1  0
 22 43  1  0
 22 44  1  0
 23 45  1  0
 23 46  1  0
 24 25  1  0
 24 47  1  1
M  CHG  2  13  -1  19   1
M  END
>  <i_m_ct_stereo_status>  (191) 
1

>  <s_m_source_file>  (191) 
/var/tmp/pbs.5076255.sched01/tmpqwfmwtcs/46j3o47u_k.sdf

>  <i_m_source_file_index>  (191) 
30

>  <i_lp_mmshare_version>  (191) 
48012

>  <i_f3d_flags>  (191) 
0

>  <s_epik_input>  (191) 
W0NIMl0xW0NIMl1DKD1PKVtDQEhdMk9jKGMoW09IXSlbY0hdW2NIXTMpYzRjM1tDSDJdW0NASF0oW0NAQF0xKFtDQF0yNDUpW09IXSlOKFtDSDJdW0NIMl01KVtDSDJdW0NIXTZbQ0gyXVtDSDJdNg==

>  <s_epik_cmdline>  (191) 
J2VwaWtfcHl0aG9uJywgJy1waHQnLCAnMi4wJywgJy1waCcsICc3LjAnLCAnLXRuJywgJzgnLCAnLW1hJywgJzIwMCcsICctaW1hZScsICc8aW5maWxlLm1hZT4nLCAnLW9tYWUnLCAnPG91dGZpbGUubWFlPic=

>  <r_epik_Ionization_Penalty>  (191) 
1.92853

>  <r_epik_Ionization_Penalty_Charging>  (191) 
1.92853

>  <r_epik_Ionization_Penalty_Neutral>  (191) 
2.69768e-07

>  <r_epik_State_Penalty>  (191) 
2.04517

>  <r_epik_Charging_Adjusted_Penalty>  (191) 
3.97369

>  <i_epik_Tot_Q>  (191) 
0

>  <i_epik_Tot_abs_Q>  (191) 
2

>  <s_lp_Force_Field>  (191) 
OPLS3e

>  <r_lp_Energy>  (191) 
68.3311

>  <b_lp_Chiralities_Consistent>  (191) 
1

>  <s_lp_Variant>  (191) 
51:0-3

>  <s_i_glide_gridfile>  (191) 
pfpi4k_grid

>  <i_i_glide_lignum>  (191) 
30

>  <i_i_glide_rotatable_bonds>  (191) 
3

>  <r_i_docking_score>  (191) 
-3.35661

>  <r_i_glide_ligand_efficiency>  (191) 
-0.134264

>  <r_i_glide_ligand_efficiency_sa>  (191) 
-0.392591

>  <r_i_glide_ligand_efficiency_ln>  (191) 
-0.795617

>  <r_i_glide_gscore>  (191) 
-3.35661

>  <r_i_glide_lipo>  (191) 
-0.611644

>  <r_i_glide_hbond>  (191) 
-0.0940819

>  <r_i_glide_metal>  (191) 
-0

>  <r_i_glide_rewards>  (191) 
-1.10073

>  <r_i_glide_evdw>  (191) 
-27.644

>  <r_i_glide_ecoul>  (191) 
-2.76466

>  <r_i_glide_erotb>  (191) 
0.325161

>  <r_i_glide_esite>  (191) 
-0.0784192

>  <r_i_glide_emodel>  (191) 
-39.3503

>  <r_i_glide_energy>  (191) 
-30.4087

>  <r_i_glide_einternal>  (191) 
0.161305

>  <r_i_glide_intrahb_reward>  (191) 
-0

>  <i_i_glide_confnum>  (191) 
1

>  <i_i_glide_posenum>  (191) 
23

>  <r_i_glide_eff_state_penalty>  (191) 
0

>  <ligand_id>  (191) 
51

>  <original_smiles>  (191) 
O=C1CCC2(O)C3Cc4ccc(O)c5c4C2(CCN3CC2CC2)C1O5

>  <smiles>  (191) 
[H]OC12C([H])([H])C([H])([H])C(=O)C3([H])Oc4c([O-])c([H])c([H])c5c4C31C([H])([H])C([H])([H])[N+]([H])(C([H])([H])C1([H])C([H])([H])C1([H])[H])C2([H])C5([H])[H]

$$$$
51:2:1
     RDKit          3D

 48 53  0  0  1  0  0  0  0  0999 V2000
    8.2211   -6.9415    0.5109 O   0  0  0  0  0  0  0  0  0  0  0  0
    7.5710   -6.5755    1.4824 C   0  0  0  0  0  0  0  0  0  0  0  0
    7.2339   -7.4805    2.6927 C   0  0  0  0  0  0  0  0  0  0  0  0
    5.7909   -7.2888    3.3094 C   0  0  0  0  0  0  0  0  0  0  0  0
    5.2242   -5.8333    3.2723 C   0  0  2  0  0  0  0  0  0  0  0  0
    5.9103   -5.1699    4.3204 O   0  0  0  0  0  0  0  0  0  0  0  0
    3.6971   -5.5609    3.4729 C   0  0  1  0  0  0  0  0  0  0  0  0
    3.3928   -4.0148    3.4383 C   0  0  0  0  0  0  0  0  0  0  0  0
    4.1042   -3.1761    2.3694 C   0  0  0  0  0  0  0  0  0  0  0  0
    3.8818   -1.8522    1.9342 C   0  0  0  0  0  0  0  0  0  0  0  0
    4.7491   -1.3053    0.9434 C   0  0  0  0  0  0  0  0  0  0  0  0
    5.8426   -2.0351    0.4048 C   0  0  0  0  0  0  0  0  0  0  0  0
    6.6040   -1.5123   -0.5894 O   0  0  0  0  0  0  0  0  0  0  0  0
    6.1171   -3.3374    0.8632 C   0  0  0  0  0  0  0  0  0  0  0  0
    5.1969   -3.8206    1.7664 C   0  0  0  0  0  0  0  0  0  0  0  0
    5.5317   -5.2449    1.9100 C   0  0  2  0  0  0  0  0  0  0  0  0
    4.7313   -6.0304    0.8187 C   0  0  0  0  0  0  0  0  0  0  0  0
    3.2225   -5.9367    1.0624 C   0  0  0  0  0  0  0  0  0  0  0  0
    2.8810   -6.3029    2.4601 N   0  0  2  0  0  0  0  0  0  0  0  0
    1.4193   -6.2681    2.7275 C   0  0  0  0  0  0  0  0  0  0  0  0
    0.6675   -7.4077    2.0587 C   0  0  0  0  0  0  0  0  0  0  0  0
   -0.7476   -7.7433    2.4842 C   0  0  0  0  0  0  0  0  0  0  0  0
    0.3813   -8.6787    2.8224 C   0  0  0  0  0  0  0  0  0  0  0  0
    7.0237   -5.1699    1.6321 C   0  0  2  0  0  0  0  0  0  0  0  0
    7.1218   -4.2399    0.5479 O   0  0  0  0  0  0  0  0  0  0  0  0
    7.3842   -8.5228    2.4095 H   0  0  0  0  0  0  0  0  0  0  0  0
    7.9870   -7.2664    3.4523 H   0  0  0  0  0  0  0  0  0  0  0  0
    5.1097   -7.9680    2.7999 H   0  0  0  0  0  0  0  0  0  0  0  0
    5.8106   -7.6339    4.3440 H   0  0  0  0  0  0  0  0  0  0  0  0
    6.8409   -5.2162    4.1555 H   0  0  0  0  0  0  0  0  0  0  0  0
    3.4119   -5.9353    4.4544 H   0  0  0  0  0  0  0  0  0  0  0  0
    2.3264   -3.8179    3.3652 H   0  0  0  0  0  0  0  0  0  0  0  0
    3.6934   -3.5895    4.3962 H   0  0  0  0  0  0  0  0  0  0  0  0
    3.0500   -1.2775    2.3291 H   0  0  0  0  0  0  0  0  0  0  0  0
    4.5531   -0.3102    0.5794 H   0  0  0  0  0  0  0  0  0  0  0  0
    4.9561   -5.6581   -0.1841 H   0  0  0  0  0  0  0  0  0  0  0  0
    5.0042   -7.0849    0.7842 H   0  0  0  0  0  0  0  0  0  0  0  0
    2.8578   -4.9421    0.8107 H   0  0  0  0  0  0  0  0  0  0  0  0
    2.7321   -6.6080    0.3706 H   0  0  0  0  0  0  0  0  0  0  0  0
    1.2312   -6.3264    3.7979 H   0  0  0  0  0  0  0  0  0  0  0  0
    0.9819   -5.3313    2.3920 H   0  0  0  0  0  0  0  0  0  0  0  0
    0.8210   -7.5122    0.9849 H   0  0  0  0  0  0  0  0  0  0  0  0
   -1.1964   -7.1789    3.2997 H   0  0  0  0  0  0  0  0  0  0  0  0
   -1.4438   -8.0957    1.7246 H   0  0  0  0  0  0  0  0  0  0  0  0
    0.4447   -9.6137    2.2658 H   0  0  0  0  0  0  0  0  0  0  0  0
    0.7173   -8.7245    3.8566 H   0  0  0  0  0  0  0  0  0  0  0  0
    7.5566   -4.7181    2.4649 H   0  0  0  0  0  0  0  0  0  0  0  0
    3.1418   -7.2692    2.5712 H   0  0  0  0  0  0  0  0  0  0  0  0
  1  2  2  0
  2 24  1  0
  2  3  1  0
  3  4  1  0
  3 26  1  0
  3 27  1  0
  4  5  1  0
  4 28  1  0
  4 29  1  0
  5 16  1  0
  5  6  1  1
  5  7  1  0
  6 30  1  0
  7 19  1  0
  7  8  1  0
  7 31  1  1
  8  9  1  0
  8 32  1  0
  8 33  1  0
  9 15  2  0
  9 10  1  0
 10 11  2  0
 10 34  1  0
 11 12  1  0
 11 35  1  0
 12 13  1  0
 12 14  2  0
 14 25  1  0
 14 15  1  0
 15 16  1  0
 16 17  1  6
 16 24  1  0
 17 18  1  0
 17 36  1  0
 17 37  1  0
 18 19  1  0
 18 38  1  0
 18 39  1  0
 19 20  1  0
 19 48  1  6
 20 21  1  0
 20 40  1  0
 20 41  1  0
 21 23  1  0
 21 22  1  0
 21 42  1  0
 22 23  1  0
 22 43  1  0
 22 44  1  0
 23 45  1  0
 23 46  1  0
 24 25  1  0
 24 47  1  1
M  CHG  2  13  -1  19   1
M  END
>  <i_m_ct_stereo_status>  (192) 
1

>  <s_m_source_file>  (192) 
/var/tmp/pbs.5076255.sched01/tmpqwfmwtcs/46j3o47u_k.sdf

>  <i_m_source_file_index>  (192) 
30

>  <i_lp_mmshare_version>  (192) 
48012

>  <i_f3d_flags>  (192) 
0

>  <s_epik_input>  (192) 
W0NIMl0xW0NIMl1DKD1PKVtDQEhdMk9jKGMoW09IXSlbY0hdW2NIXTMpYzRjM1tDSDJdW0NASF0oW0NAQF0xKFtDQF0yNDUpW09IXSlOKFtDSDJdW0NIMl01KVtDSDJdW0NIXTZbQ0gyXVtDSDJdNg==

>  <s_epik_cmdline>  (192) 
J2VwaWtfcHl0aG9uJywgJy1waHQnLCAnMi4wJywgJy1waCcsICc3LjAnLCAnLXRuJywgJzgnLCAnLW1hJywgJzIwMCcsICctaW1hZScsICc8aW5maWxlLm1hZT4nLCAnLW9tYWUnLCAnPG91dGZpbGUubWFlPic=

>  <r_epik_Ionization_Penalty>  (192) 
1.92853

>  <r_epik_Ionization_Penalty_Charging>  (192) 
1.92853

>  <r_epik_Ionization_Penalty_Neutral>  (192) 
2.69768e-07

>  <r_epik_State_Penalty>  (192) 
2.04517

>  <r_epik_Charging_Adjusted_Penalty>  (192) 
3.97369

>  <i_epik_Tot_Q>  (192) 
0

>  <i_epik_Tot_abs_Q>  (192) 
2

>  <s_lp_Force_Field>  (192) 
OPLS3e

>  <r_lp_Energy>  (192) 
68.3311

>  <b_lp_Chiralities_Consistent>  (192) 
1

>  <s_lp_Variant>  (192) 
51:0-3

>  <s_i_glide_gridfile>  (192) 
pfpi4k_grid

>  <i_i_glide_lignum>  (192) 
30

>  <i_i_glide_rotatable_bonds>  (192) 
3

>  <r_i_docking_score>  (192) 
-2.85051

>  <r_i_glide_ligand_efficiency>  (192) 
-0.114021

>  <r_i_glide_ligand_efficiency_sa>  (192) 
-0.333398

>  <r_i_glide_ligand_efficiency_ln>  (192) 
-0.675657

>  <r_i_glide_gscore>  (192) 
-2.85051

>  <r_i_glide_lipo>  (192) 
-0.462422

>  <r_i_glide_hbond>  (192) 
-0.160541

>  <r_i_glide_metal>  (192) 
-0

>  <r_i_glide_rewards>  (192) 
-1.08136

>  <r_i_glide_evdw>  (192) 
-22.7763

>  <r_i_glide_ecoul>  (192) 
-2.14924

>  <r_i_glide_erotb>  (192) 
0.325161

>  <r_i_glide_esite>  (192) 
-0.0101517

>  <r_i_glide_emodel>  (192) 
-32.3862

>  <r_i_glide_energy>  (192) 
-24.9256

>  <r_i_glide_einternal>  (192) 
0.225527

>  <r_i_glide_intrahb_reward>  (192) 
-0

>  <i_i_glide_confnum>  (192) 
1

>  <i_i_glide_posenum>  (192) 
5

>  <r_i_glide_eff_state_penalty>  (192) 
0

>  <ligand_id>  (192) 
51

>  <original_smiles>  (192) 
O=C1CCC2(O)C3Cc4ccc(O)c5c4C2(CCN3CC2CC2)C1O5

>  <smiles>  (192) 
[H]OC12C([H])([H])C([H])([H])C(=O)C3([H])Oc4c([O-])c([H])c([H])c5c4C31C([H])([H])C([H])([H])[N+]([H])(C([H])([H])C1([H])C([H])([H])C1([H])[H])C2([H])C5([H])[H]

$$$$
51:2:2
     RDKit          3D

 48 53  0  0  1  0  0  0  0  0999 V2000
    2.6889   -1.3165   -2.8781 O   0  0  0  0  0  0  0  0  0  0  0  0
    3.7150   -1.7417   -2.3671 C   0  0  0  0  0  0  0  0  0  0  0  0
    4.6831   -2.6509   -3.1392 C   0  0  0  0  0  0  0  0  0  0  0  0
    5.3942   -3.7615   -2.2851 C   0  0  0  0  0  0  0  0  0  0  0  0
    5.7170   -3.4030   -0.7967 C   0  0  2  0  0  0  0  0  0  0  0  0
    6.8528   -2.5471   -0.8607 O   0  0  0  0  0  0  0  0  0  0  0  0
    6.0188   -4.5374    0.2467 C   0  0  1  0  0  0  0  0  0  0  0  0
    6.3390   -3.9150    1.6544 C   0  0  0  0  0  0  0  0  0  0  0  0
    5.4523   -2.7519    2.1270 C   0  0  0  0  0  0  0  0  0  0  0  0
    5.3197   -2.1567    3.3991 C   0  0  0  0  0  0  0  0  0  0  0  0
    4.4787   -1.0259    3.5583 C   0  0  0  0  0  0  0  0  0  0  0  0
    3.7745   -0.4548    2.4667 C   0  0  0  0  0  0  0  0  0  0  0  0
    2.9669    0.6259    2.6671 O   0  0  0  0  0  0  0  0  0  0  0  0
    3.9104   -1.0194    1.1799 C   0  0  0  0  0  0  0  0  0  0  0  0
    4.6957   -2.1525    1.1259 C   0  0  0  0  0  0  0  0  0  0  0  0
    4.5045   -2.6936   -0.2298 C   0  0  2  0  0  0  0  0  0  0  0  0
    3.2931   -3.6866   -0.1755 C   0  0  0  0  0  0  0  0  0  0  0  0
    3.6007   -4.9070    0.7026 C   0  0  0  0  0  0  0  0  0  0  0  0
    4.8947   -5.5290    0.3205 N   0  0  2  0  0  0  0  0  0  0  0  0
    5.2145   -6.7313    1.1397 C   0  0  0  0  0  0  0  0  0  0  0  0
    4.2919   -7.8989    0.8493 C   0  0  0  0  0  0  0  0  0  0  0  0
    3.0557   -8.1429    1.6889 C   0  0  0  0  0  0  0  0  0  0  0  0
    4.2302   -9.0806    1.7923 C   0  0  0  0  0  0  0  0  0  0  0  0
    4.2093   -1.3965   -0.9654 C   0  0  2  0  0  0  0  0  0  0  0  0
    3.4003   -0.6538   -0.0431 O   0  0  0  0  0  0  0  0  0  0  0  0
    4.1573   -3.0937   -3.9872 H   0  0  0  0  0  0  0  0  0  0  0  0
    5.4206   -1.9693   -3.5512 H   0  0  0  0  0  0  0  0  0  0  0  0
    4.7819   -4.6582   -2.3321 H   0  0  0  0  0  0  0  0  0  0  0  0
    6.3148   -4.0120   -2.8015 H   0  0  0  0  0  0  0  0  0  0  0  0
    7.0500   -2.2548    0.0182 H   0  0  0  0  0  0  0  0  0  0  0  0
    6.9057   -5.0836   -0.0828 H   0  0  0  0  0  0  0  0  0  0  0  0
    6.3574   -4.6740    2.4335 H   0  0  0  0  0  0  0  0  0  0  0  0
    7.3602   -3.5324    1.6239 H   0  0  0  0  0  0  0  0  0  0  0  0
    5.8365   -2.5671    4.2500 H   0  0  0  0  0  0  0  0  0  0  0  0
    4.3712   -0.5887    4.5365 H   0  0  0  0  0  0  0  0  0  0  0  0
    2.3965   -3.1885    0.1971 H   0  0  0  0  0  0  0  0  0  0  0  0
    3.0091   -4.0570   -1.1603 H   0  0  0  0  0  0  0  0  0  0  0  0
    3.6025   -4.6261    1.7573 H   0  0  0  0  0  0  0  0  0  0  0  0
    2.7942   -5.6298    0.5922 H   0  0  0  0  0  0  0  0  0  0  0  0
    6.2336   -7.0616    0.9360 H   0  0  0  0  0  0  0  0  0  0  0  0
    5.1637   -6.5097    2.2059 H   0  0  0  0  0  0  0  0  0  0  0  0
    4.2317   -8.1628   -0.2050 H   0  0  0  0  0  0  0  0  0  0  0  0
    2.8710   -7.4591    2.5146 H   0  0  0  0  0  0  0  0  0  0  0  0
    2.1658   -8.5073    1.1759 H   0  0  0  0  0  0  0  0  0  0  0  0
    4.0911  -10.0725    1.3665 H   0  0  0  0  0  0  0  0  0  0  0  0
    4.8232   -9.0497    2.7044 H   0  0  0  0  0  0  0  0  0  0  0  0
    5.1113   -0.7965   -1.0902 H   0  0  0  0  0  0  0  0  0  0  0  0
    4.7668   -5.8619   -0.6272 H   0  0  0  0  0  0  0  0  0  0  0  0
  1  2  2  0
  2 24  1  0
  2  3  1  0
  3  4  1  0
  3 26  1  0
  3 27  1  0
  4  5  1  0
  4 28  1  0
  4 29  1  0
  5 16  1  0
  5  6  1  6
  5  7  1  0
  6 30  1  0
  7 19  1  0
  7  8  1  0
  7 31  1  6
  8  9  1  0
  8 32  1  0
  8 33  1  0
  9 15  2  0
  9 10  1  0
 10 11  2  0
 10 34  1  0
 11 12  1  0
 11 35  1  0
 12 13  1  0
 12 14  2  0
 14 25  1  0
 14 15  1  0
 15 16  1  0
 16 17  1  1
 16 24  1  0
 17 18  1  0
 17 36  1  0
 17 37  1  0
 18 19  1  0
 18 38  1  0
 18 39  1  0
 19 20  1  0
 19 48  1  6
 20 21  1  0
 20 40  1  0
 20 41  1  0
 21 23  1  0
 21 22  1  0
 21 42  1  0
 22 23  1  0
 22 43  1  0
 22 44  1  0
 23 45  1  0
 23 46  1  0
 24 25  1  0
 24 47  1  6
M  CHG  2  13  -1  19   1
M  END
>  <i_m_ct_stereo_status>  (193) 
1

>  <s_m_source_file>  (193) 
/var/tmp/pbs.5076255.sched01/tmpqwfmwtcs/46j3o47u_k.sdf

>  <i_m_source_file_index>  (193) 
30

>  <i_lp_mmshare_version>  (193) 
48012

>  <i_f3d_flags>  (193) 
0

>  <s_epik_input>  (193) 
W0NIMl0xW0NIMl1DKD1PKVtDQEhdMk9jKGMoW09IXSlbY0hdW2NIXTMpYzRjM1tDSDJdW0NASF0oW0NAQF0xKFtDQF0yNDUpW09IXSlOKFtDSDJdW0NIMl01KVtDSDJdW0NIXTZbQ0gyXVtDSDJdNg==

>  <s_epik_cmdline>  (193) 
J2VwaWtfcHl0aG9uJywgJy1waHQnLCAnMi4wJywgJy1waCcsICc3LjAnLCAnLXRuJywgJzgnLCAnLW1hJywgJzIwMCcsICctaW1hZScsICc8aW5maWxlLm1hZT4nLCAnLW9tYWUnLCAnPG91dGZpbGUubWFlPic=

>  <r_epik_Ionization_Penalty>  (193) 
1.92853

>  <r_epik_Ionization_Penalty_Charging>  (193) 
1.92853

>  <r_epik_Ionization_Penalty_Neutral>  (193) 
2.69768e-07

>  <r_epik_State_Penalty>  (193) 
2.04517

>  <r_epik_Charging_Adjusted_Penalty>  (193) 
3.97369

>  <i_epik_Tot_Q>  (193) 
0

>  <i_epik_Tot_abs_Q>  (193) 
2

>  <s_lp_Force_Field>  (193) 
OPLS3e

>  <r_lp_Energy>  (193) 
68.3311

>  <b_lp_Chiralities_Consistent>  (193) 
1

>  <s_lp_Variant>  (193) 
51:0-3

>  <s_i_glide_gridfile>  (193) 
pfpi4k_grid

>  <i_i_glide_lignum>  (193) 
30

>  <i_i_glide_rotatable_bonds>  (193) 
3

>  <r_i_docking_score>  (193) 
-2.81937

>  <r_i_glide_ligand_efficiency>  (193) 
-0.112775

>  <r_i_glide_ligand_efficiency_sa>  (193) 
-0.329756

>  <r_i_glide_ligand_efficiency_ln>  (193) 
-0.668275

>  <r_i_glide_gscore>  (193) 
-2.81937

>  <r_i_glide_lipo>  (193) 
-0.742902

>  <r_i_glide_hbond>  (193) 
-0.0568007

>  <r_i_glide_metal>  (193) 
-0

>  <r_i_glide_rewards>  (193) 
-1.08136

>  <r_i_glide_evdw>  (193) 
-24.643

>  <r_i_glide_ecoul>  (193) 
0.0589092

>  <r_i_glide_erotb>  (193) 
0.325161

>  <r_i_glide_esite>  (193) 
-0.0401573

>  <r_i_glide_emodel>  (193) 
-32.0188

>  <r_i_glide_energy>  (193) 
-24.5841

>  <r_i_glide_einternal>  (193) 
0.122696

>  <r_i_glide_intrahb_reward>  (193) 
-0

>  <i_i_glide_confnum>  (193) 
1

>  <i_i_glide_posenum>  (193) 
8

>  <r_i_glide_eff_state_penalty>  (193) 
0

>  <ligand_id>  (193) 
51

>  <original_smiles>  (193) 
O=C1CCC2(O)C3Cc4ccc(O)c5c4C2(CCN3CC2CC2)C1O5

>  <smiles>  (193) 
[H]OC12C([H])([H])C([H])([H])C(=O)C3([H])Oc4c([O-])c([H])c([H])c5c4C31C([H])([H])C([H])([H])[N+]([H])(C([H])([H])C1([H])C([H])([H])C1([H])[H])C2([H])C5([H])[H]

$$$$
52:0:0
     RDKit          3D

 80 86  0  0  1  0  0  0  0  0999 V2000
    0.3742   -8.0707    6.3031 C   0  0  0  0  0  0  0  0  0  0  0  0
    1.1205   -9.1433    5.4919 C   0  0  2  0  0  0  0  0  0  0  0  0
    2.2309   -9.8836    6.2596 C   0  0  0  0  0  0  0  0  0  0  0  0
    3.7055   -9.3826    6.0925 C   0  0  0  0  0  0  0  0  0  0  0  0
    4.1433   -8.4827    4.8668 C   0  0  1  0  0  0  0  0  0  0  0  0
    5.2897   -7.6467    5.5014 C   0  0  0  0  0  0  0  0  0  0  0  0
    4.7892   -9.2134    3.6198 C   0  0  0  0  0  0  0  0  0  0  0  0
    3.9903   -9.5196    2.3203 C   0  0  0  0  0  0  0  0  0  0  0  0
    3.3344   -8.3678    1.5023 C   0  0  2  0  0  0  0  0  0  0  0  0
    4.4280   -7.6609    0.6263 C   0  0  0  0  0  0  0  0  0  0  0  0
    4.3525   -6.1504    0.5001 C   0  0  0  0  0  0  0  0  0  0  0  0
    4.2039   -5.2989    1.5270 C   0  0  0  0  0  0  0  0  0  0  0  0
    3.8894   -3.8251    1.3071 C   0  0  2  0  0  0  0  0  0  0  0  0
    4.8522   -3.0898    0.3428 C   0  0  1  0  0  0  0  0  0  0  0  0
    4.3995   -3.0163   -1.1109 C   0  0  0  0  0  0  0  0  0  0  0  0
    5.2882   -2.9775   -2.1441 N   0  0  0  0  0  0  0  0  0  0  0  0
    4.6465   -3.0195   -3.3953 N   0  0  0  0  0  0  0  0  0  0  0  0
    3.3017   -3.0515   -3.2469 C   0  0  0  0  0  0  0  0  0  0  0  0
    2.6781   -3.0754   -1.6065 S   0  0  0  0  0  0  0  0  0  0  0  0
    4.9260   -1.6862    0.7777 N   0  0  0  0  0  0  0  0  0  0  0  0
    4.0804   -1.5171    1.9550 C   0  0  0  0  0  0  0  0  0  0  0  0
    4.6423   -0.5061    2.9817 C   0  0  0  0  0  0  0  0  0  0  0  0
    2.7213   -0.9550    1.5019 C   0  0  0  0  0  0  0  0  0  0  0  0
    3.8970   -2.9290    2.5399 C   0  0  2  0  0  0  0  0  0  0  0  0
    4.9936   -3.3979    3.4921 C   0  0  0  0  0  0  0  0  0  0  0  0
    4.7195   -4.8220    4.0031 C   0  0  0  0  0  0  0  0  0  0  0  0
    4.1601   -5.8320    2.9532 C   0  0  1  0  0  0  0  0  0  0  0  0
    2.8130   -6.5753    3.3080 C   0  0  2  0  0  0  0  0  0  0  0  0
    1.7527   -5.4967    3.7017 C   0  0  0  0  0  0  0  0  0  0  0  0
    2.9079   -7.6009    4.5055 C   0  0  1  0  0  0  0  0  0  0  0  0
    1.8063   -8.6394    4.2381 C   0  0  2  0  0  0  0  0  0  0  0  0
    1.1357   -8.3267    2.9193 C   0  0  0  0  0  0  0  0  0  0  0  0
    2.2037   -7.4736    2.1702 C   0  0  2  0  0  0  0  0  0  0  0  0
    1.3500   -6.7366    1.0914 C   0  0  0  0  0  0  0  0  0  0  0  0
    1.0311   -7.3419    6.7692 H   0  0  0  0  0  0  0  0  0  0  0  0
   -0.1879   -8.5488    7.1066 H   0  0  0  0  0  0  0  0  0  0  0  0
   -0.3397   -7.5386    5.6758 H   0  0  0  0  0  0  0  0  0  0  0  0
    0.3677   -9.8865    5.2120 H   0  0  0  0  0  0  0  0  0  0  0  0
    2.0028   -9.8462    7.3339 H   0  0  0  0  0  0  0  0  0  0  0  0
    2.1905  -10.9303    6.0150 H   0  0  0  0  0  0  0  0  0  0  0  0
    3.9802   -8.9206    7.0218 H   0  0  0  0  0  0  0  0  0  0  0  0
    4.3229  -10.2910    6.0736 H   0  0  0  0  0  0  0  0  0  0  0  0
    5.9572   -7.1838    4.7771 H   0  0  0  0  0  0  0  0  0  0  0  0
    5.9441   -8.2929    6.0968 H   0  0  0  0  0  0  0  0  0  0  0  0
    4.9005   -6.8728    6.1741 H   0  0  0  0  0  0  0  0  0  0  0  0
    5.6643   -8.6631    3.2856 H   0  0  0  0  0  0  0  0  0  0  0  0
    5.2130  -10.1551    3.9692 H   0  0  0  0  0  0  0  0  0  0  0  0
    4.7046   -9.9969    1.6435 H   0  0  0  0  0  0  0  0  0  0  0  0
    3.2919  -10.3428    2.4587 H   0  0  0  0  0  0  0  0  0  0  0  0
    2.7672   -8.9611    0.7836 H   0  0  0  0  0  0  0  0  0  0  0  0
    5.4342   -7.9241    0.9448 H   0  0  0  0  0  0  0  0  0  0  0  0
    4.3450   -8.0534   -0.3885 H   0  0  0  0  0  0  0  0  0  0  0  0
    4.3469   -5.7811   -0.5212 H   0  0  0  0  0  0  0  0  0  0  0  0
    2.8669   -3.7882    0.9513 H   0  0  0  0  0  0  0  0  0  0  0  0
    5.8550   -3.5233    0.3554 H   0  0  0  0  0  0  0  0  0  0  0  0
    2.6721   -3.0682   -4.1319 H   0  0  0  0  0  0  0  0  0  0  0  0
    5.8710   -1.5637    1.1254 H   0  0  0  0  0  0  0  0  0  0  0  0
    3.9912   -0.4905    3.8670 H   0  0  0  0  0  0  0  0  0  0  0  0
    4.6337    0.5097    2.5909 H   0  0  0  0  0  0  0  0  0  0  0  0
    5.6471   -0.7299    3.3291 H   0  0  0  0  0  0  0  0  0  0  0  0
    2.0271   -0.8579    2.3445 H   0  0  0  0  0  0  0  0  0  0  0  0
    2.2524   -1.6066    0.7762 H   0  0  0  0  0  0  0  0  0  0  0  0
    2.8172    0.0332    1.0402 H   0  0  0  0  0  0  0  0  0  0  0  0
    2.9523   -2.9941    3.0709 H   0  0  0  0  0  0  0  0  0  0  0  0
    5.9472   -3.3989    2.9640 H   0  0  0  0  0  0  0  0  0  0  0  0
    5.0991   -2.7482    4.3543 H   0  0  0  0  0  0  0  0  0  0  0  0
    5.6778   -5.1689    4.3818 H   0  0  0  0  0  0  0  0  0  0  0  0
    4.0883   -4.7718    4.8899 H   0  0  0  0  0  0  0  0  0  0  0  0
    4.9203   -6.6063    2.9271 H   0  0  0  0  0  0  0  0  0  0  0  0
    0.7833   -5.9211    3.9562 H   0  0  0  0  0  0  0  0  0  0  0  0
    1.5847   -4.7822    2.8957 H   0  0  0  0  0  0  0  0  0  0  0  0
    2.0339   -4.9243    4.5851 H   0  0  0  0  0  0  0  0  0  0  0  0
    2.6783   -7.0348    5.4090 H   0  0  0  0  0  0  0  0  0  0  0  0
    2.2394   -9.5896    3.9604 H   0  0  0  0  0  0  0  0  0  0  0  0
    0.8649   -9.2315    2.3747 H   0  0  0  0  0  0  0  0  0  0  0  0
    0.2087   -7.7919    3.1106 H   0  0  0  0  0  0  0  0  0  0  0  0
    0.4493   -6.2912    1.5024 H   0  0  0  0  0  0  0  0  0  0  0  0
    1.0009   -7.4570    0.3535 H   0  0  0  0  0  0  0  0  0  0  0  0
    1.8549   -5.9496    0.5457 H   0  0  0  0  0  0  0  0  0  0  0  0
    4.7432   -1.0093    0.0511 H   0  0  0  0  0  0  0  0  0  0  0  0
  1  2  1  0
  1 35  1  0
  1 36  1  0
  1 37  1  0
  2 31  1  0
  2  3  1  0
  2 38  1  6
  3  4  1  0
  3 39  1  0
  3 40  1  0
  4  5  1  0
  4 41  1  0
  4 42  1  0
  5 30  1  0
  5  6  1  1
  5  7  1  0
  6 43  1  0
  6 44  1  0
  6 45  1  0
  7  8  1  0
  7 46  1  0
  7 47  1  0
  8  9  1  0
  8 48  1  0
  8 49  1  0
  9 33  1  0
  9 10  1  0
  9 50  1  6
 10 11  1  0
 10 51  1  0
 10 52  1  0
 11 12  2  0
 11 53  1  0
 12 27  1  0
 12 13  1  0
 13 24  1  0
 13 14  1  0
 13 54  1  6
 14 15  1  0
 14 20  1  0
 14 55  1  6
 15 19  1  0
 15 16  2  0
 16 17  1  0
 17 18  2  0
 18 19  1  0
 18 56  1  0
 20 21  1  0
 20 57  1  0
 20 80  1  0
 21 22  1  0
 21 23  1  0
 21 24  1  0
 22 58  1  0
 22 59  1  0
 22 60  1  0
 23 61  1  0
 23 62  1  0
 23 63  1  0
 24 25  1  0
 24 64  1  1
 25 26  1  0
 25 65  1  0
 25 66  1  0
 26 27  1  0
 26 67  1  0
 26 68  1  0
 27 28  1  0
 27 69  1  6
 28 33  1  0
 28 29  1  1
 28 30  1  0
 29 70  1  0
 29 71  1  0
 29 72  1  0
 30 31  1  0
 30 73  1  1
 31 32  1  0
 31 74  1  6
 32 33  1  0
 32 75  1  0
 32 76  1  0
 33 34  1  6
 34 77  1  0
 34 78  1  0
 34 79  1  0
M  CHG  1  20   1
M  END
>  <i_m_ct_stereo_status>  (194) 
1

>  <s_m_source_file>  (194) 
/var/tmp/pbs.5076255.sched01/tmpqwfmwtcs/46j3o47u_k.sdf

>  <i_m_source_file_index>  (194) 
31

>  <i_lp_mmshare_version>  (194) 
48012

>  <i_f3d_flags>  (194) 
0

>  <s_epik_input>  (194) 
W0NIMl0xW0NIMl1bQ0BASF0oW0NIM10pW0NASF0yW0NIMl1bQ0BdMyhbQ0gzXSlbQ0BIXShbQ0gyXVtDSDJdNClbQ0gyXVtDSF09QyhbQ0BASF01W0NAXTMoW0NIM10pW0NAQEhdMltDQEBdMTRbQ0gzXSlbQ0BIXTZbQ0BASF0oW0NIMl1bQ0gyXTUpQyhbQ0gzXSkoW0NIM10pW05IXVtDQEBIXTZjN25uW2NIXXM3

>  <s_epik_cmdline>  (194) 
J2VwaWtfcHl0aG9uJywgJy1waHQnLCAnMi4wJywgJy1waCcsICc3LjAnLCAnLXRuJywgJzgnLCAnLW1hJywgJzIwMCcsICctaW1hZScsICc8aW5maWxlLm1hZT4nLCAnLW9tYWUnLCAnPG91dGZpbGUubWFlPic=

>  <r_lp_tautomer_probability>  (194) 
1

>  <r_epik_Ionization_Penalty>  (194) 
0.0153298

>  <r_epik_Ionization_Penalty_Charging>  (194) 
0.0153298

>  <r_epik_Ionization_Penalty_Neutral>  (194) 
4.17375e-09

>  <r_epik_State_Penalty>  (194) 
0.0120409

>  <r_epik_Charging_Adjusted_Penalty>  (194) 
0.0273707

>  <i_epik_Tot_Q>  (194) 
1

>  <i_epik_Tot_abs_Q>  (194) 
1

>  <s_lp_Force_Field>  (194) 
OPLS3e

>  <r_lp_Energy>  (194) 
115.388

>  <b_lp_Chiralities_Consistent>  (194) 
1

>  <s_lp_Variant>  (194) 
52:0-1

>  <s_i_glide_gridfile>  (194) 
pfpi4k_grid

>  <i_i_glide_lignum>  (194) 
31

>  <i_i_glide_rotatable_bonds>  (194) 
1

>  <r_i_docking_score>  (194) 
-2.92468

>  <r_i_glide_ligand_efficiency>  (194) 
-0.0860199

>  <r_i_glide_ligand_efficiency_sa>  (194) 
-0.278671

>  <r_i_glide_ligand_efficiency_ln>  (194) 
-0.646143

>  <r_i_glide_gscore>  (194) 
-2.92468

>  <r_i_glide_lipo>  (194) 
-0.516864

>  <r_i_glide_hbond>  (194) 
0

>  <r_i_glide_metal>  (194) 
-0

>  <r_i_glide_rewards>  (194) 
-0.131098

>  <r_i_glide_evdw>  (194) 
-34.4876

>  <r_i_glide_ecoul>  (194) 
-4.26719

>  <r_i_glide_erotb>  (194) 
0.0877447

>  <r_i_glide_esite>  (194) 
0

>  <r_i_glide_emodel>  (194) 
-43.7153

>  <r_i_glide_energy>  (194) 
-38.7548

>  <r_i_glide_einternal>  (194) 
2.6299

>  <r_i_glide_intrahb_reward>  (194) 
-0

>  <i_i_glide_confnum>  (194) 
1

>  <i_i_glide_posenum>  (194) 
38

>  <r_i_glide_eff_state_penalty>  (194) 
0

>  <ligand_id>  (194) 
52

>  <original_smiles>  (194) 
CC1CCC2(C)CCC3CC=C4C5C(c6nncs6)NC(C)(C)C5CCC4C4(C)C2C1CC34C

>  <smiles>  (194) 
[H]C1=C2C([H])(C([H])([H])C([H])([H])C3([H])C2([H])C([H])(c2nnc([H])s2)[N+]([H])([H])C3(C([H])([H])[H])C([H])([H])[H])C2(C([H])([H])[H])C3([H])C4([H])C([H])([H])C2(C([H])([H])[H])C([H])(C1([H])[H])C([H])([H])C([H])([H])C3(C([H])([H])[H])C([H])([H])C([H])([H])C4([H])C([H])([H])[H]

$$$$
52:0:1
     RDKit          3D

 80 86  0  0  1  0  0  0  0  0999 V2000
    0.6001   -8.3154    6.4989 C   0  0  0  0  0  0  0  0  0  0  0  0
    1.4512   -9.2576    5.6264 C   0  0  2  0  0  0  0  0  0  0  0  0
    2.6498   -9.9163    6.3406 C   0  0  0  0  0  0  0  0  0  0  0  0
    4.0559   -9.2451    6.1784 C   0  0  0  0  0  0  0  0  0  0  0  0
    4.3715   -8.2387    4.9988 C   0  0  1  0  0  0  0  0  0  0  0  0
    5.4297   -7.3100    5.6647 C   0  0  0  0  0  0  0  0  0  0  0  0
    5.0739   -8.8248    3.7077 C   0  0  0  0  0  0  0  0  0  0  0  0
    4.2928   -9.1569    2.3990 C   0  0  0  0  0  0  0  0  0  0  0  0
    3.4966   -8.0430    1.6483 C   0  0  2  0  0  0  0  0  0  0  0  0
    4.4941   -7.1805    0.7999 C   0  0  0  0  0  0  0  0  0  0  0  0
    4.2709   -5.6823    0.7664 C   0  0  0  0  0  0  0  0  0  0  0  0
    4.0295   -4.8978    1.8297 C   0  0  0  0  0  0  0  0  0  0  0  0
    3.5534   -3.4515    1.6984 C   0  0  2  0  0  0  0  0  0  0  0  0
    4.4089   -2.5720    0.7565 C   0  0  1  0  0  0  0  0  0  0  0  0
    3.9147   -2.4657   -0.6834 C   0  0  0  0  0  0  0  0  0  0  0  0
    4.5355   -1.7116   -1.6235 N   0  0  0  0  0  0  0  0  0  0  0  0
    3.9687   -1.8783   -2.9001 N   0  0  0  0  0  0  0  0  0  0  0  0
    2.9166   -2.7240   -2.8562 C   0  0  0  0  0  0  0  0  0  0  0  0
    2.5501   -3.4489   -1.3160 S   0  0  0  0  0  0  0  0  0  0  0  0
    4.3373   -1.1944    1.2564 N   0  0  0  0  0  0  0  0  0  0  0  0
    3.5044   -1.1759    2.4464 C   0  0  0  0  0  0  0  0  0  0  0  0
    3.9553   -0.1540    3.5211 C   0  0  0  0  0  0  0  0  0  0  0  0
    2.0731   -0.7513    2.0435 C   0  0  0  0  0  0  0  0  0  0  0  0
    3.4908   -2.6245    2.9691 C   0  0  2  0  0  0  0  0  0  0  0  0
    4.6500   -3.0181    3.8842 C   0  0  0  0  0  0  0  0  0  0  0  0
    4.5310   -4.4906    4.3221 C   0  0  0  0  0  0  0  0  0  0  0  0
    4.0632   -5.5039    3.2250 C   0  0  1  0  0  0  0  0  0  0  0  0
    2.8134   -6.4111    3.5528 C   0  0  2  0  0  0  0  0  0  0  0  0
    1.6488   -5.4756    4.0131 C   0  0  0  0  0  0  0  0  0  0  0  0
    3.0419   -7.4766    4.6973 C   0  0  1  0  0  0  0  0  0  0  0  0
    2.0559   -8.6178    4.3897 C   0  0  2  0  0  0  0  0  0  0  0  0
    1.3350   -8.3137    3.0937 C   0  0  0  0  0  0  0  0  0  0  0  0
    2.2900   -7.3146    2.3745 C   0  0  2  0  0  0  0  0  0  0  0  0
    1.3516   -6.6339    1.3291 C   0  0  0  0  0  0  0  0  0  0  0  0
    1.1835   -7.5460    7.0009 H   0  0  0  0  0  0  0  0  0  0  0  0
    0.0860   -8.8867    7.2740 H   0  0  0  0  0  0  0  0  0  0  0  0
   -0.1697   -7.8265    5.9025 H   0  0  0  0  0  0  0  0  0  0  0  0
    0.7777  -10.0623    5.3121 H   0  0  0  0  0  0  0  0  0  0  0  0
    2.4353   -9.9552    7.4125 H   0  0  0  0  0  0  0  0  0  0  0  0
    2.7045  -10.9551    6.0477 H   0  0  0  0  0  0  0  0  0  0  0  0
    4.2913   -8.7962    7.1301 H   0  0  0  0  0  0  0  0  0  0  0  0
    4.7714  -10.0693    6.1098 H   0  0  0  0  0  0  0  0  0  0  0  0
    6.0327   -6.7393    4.9584 H   0  0  0  0  0  0  0  0  0  0  0  0
    6.1617   -7.9084    6.2208 H   0  0  0  0  0  0  0  0  0  0  0  0
    4.9688   -6.6176    6.3811 H   0  0  0  0  0  0  0  0  0  0  0  0
    5.8781   -8.1643    3.3943 H   0  0  0  0  0  0  0  0  0  0  0  0
    5.6065   -9.7284    4.0034 H   0  0  0  0  0  0  0  0  0  0  0  0
    5.0442   -9.5151    1.6912 H   0  0  0  0  0  0  0  0  0  0  0  0
    3.6908  -10.0563    2.5056 H   0  0  0  0  0  0  0  0  0  0  0  0
    2.9802   -8.6396    0.8948 H   0  0  0  0  0  0  0  0  0  0  0  0
    5.5302   -7.3533    1.0884 H   0  0  0  0  0  0  0  0  0  0  0  0
    4.4245   -7.5152   -0.2375 H   0  0  0  0  0  0  0  0  0  0  0  0
    4.2537   -5.2850   -0.2366 H   0  0  0  0  0  0  0  0  0  0  0  0
    2.5231   -3.4833    1.3698 H   0  0  0  0  0  0  0  0  0  0  0  0
    5.4468   -2.8910    0.7092 H   0  0  0  0  0  0  0  0  0  0  0  0
    2.3698   -2.9318   -3.7606 H   0  0  0  0  0  0  0  0  0  0  0  0
    5.2690   -0.9867    1.6010 H   0  0  0  0  0  0  0  0  0  0  0  0
    3.3209   -0.2561    4.4152 H   0  0  0  0  0  0  0  0  0  0  0  0
    3.8399    0.8822    3.1880 H   0  0  0  0  0  0  0  0  0  0  0  0
    4.9844   -0.2892    3.8509 H   0  0  0  0  0  0  0  0  0  0  0  0
    1.3808   -0.7787    2.8958 H   0  0  0  0  0  0  0  0  0  0  0  0
    1.6505   -1.4145    1.2845 H   0  0  0  0  0  0  0  0  0  0  0  0
    2.0505    0.2658    1.6304 H   0  0  0  0  0  0  0  0  0  0  0  0
    2.5697   -2.8232    3.5090 H   0  0  0  0  0  0  0  0  0  0  0  0
    5.6014   -2.8870    3.3655 H   0  0  0  0  0  0  0  0  0  0  0  0
    4.6888   -2.4061    4.7837 H   0  0  0  0  0  0  0  0  0  0  0  0
    5.5285   -4.7525    4.6757 H   0  0  0  0  0  0  0  0  0  0  0  0
    3.9101   -4.5509    5.2187 H   0  0  0  0  0  0  0  0  0  0  0  0
    4.9037   -6.1855    3.1555 H   0  0  0  0  0  0  0  0  0  0  0  0
    0.7354   -6.0163    4.2560 H   0  0  0  0  0  0  0  0  0  0  0  0
    1.3915   -4.7444    3.2470 H   0  0  0  0  0  0  0  0  0  0  0  0
    1.8808   -4.9212    4.9223 H   0  0  0  0  0  0  0  0  0  0  0  0
    2.7661   -6.9865    5.6315 H   0  0  0  0  0  0  0  0  0  0  0  0
    2.5882   -9.4962    4.0576 H   0  0  0  0  0  0  0  0  0  0  0  0
    1.1554   -9.2155    2.5077 H   0  0  0  0  0  0  0  0  0  0  0  0
    0.3588   -7.8929    3.3213 H   0  0  0  0  0  0  0  0  0  0  0  0
    0.4135   -6.3086    1.7726 H   0  0  0  0  0  0  0  0  0  0  0  0
    1.0713   -7.3388    0.5452 H   0  0  0  0  0  0  0  0  0  0  0  0
    1.7624   -5.7636    0.8326 H   0  0  0  0  0  0  0  0  0  0  0  0
    4.0770   -0.5112    0.5607 H   0  0  0  0  0  0  0  0  0  0  0  0
  1  2  1  0
  1 35  1  0
  1 36  1  0
  1 37  1  0
  2 31  1  0
  2  3  1  0
  2 38  1  6
  3  4  1  0
  3 39  1  0
  3 40  1  0
  4  5  1  0
  4 41  1  0
  4 42  1  0
  5 30  1  0
  5  6  1  1
  5  7  1  0
  6 43  1  0
  6 44  1  0
  6 45  1  0
  7  8  1  0
  7 46  1  0
  7 47  1  0
  8  9  1  0
  8 48  1  0
  8 49  1  0
  9 33  1  0
  9 10  1  0
  9 50  1  6
 10 11  1  0
 10 51  1  0
 10 52  1  0
 11 12  2  0
 11 53  1  0
 12 27  1  0
 12 13  1  0
 13 24  1  0
 13 14  1  0
 13 54  1  6
 14 15  1  0
 14 20  1  0
 14 55  1  6
 15 19  1  0
 15 16  2  0
 16 17  1  0
 17 18  2  0
 18 19  1  0
 18 56  1  0
 20 21  1  0
 20 57  1  0
 20 80  1  0
 21 22  1  0
 21 23  1  0
 21 24  1  0
 22 58  1  0
 22 59  1  0
 22 60  1  0
 23 61  1  0
 23 62  1  0
 23 63  1  0
 24 25  1  0
 24 64  1  1
 25 26  1  0
 25 65  1  0
 25 66  1  0
 26 27  1  0
 26 67  1  0
 26 68  1  0
 27 28  1  0
 27 69  1  6
 28 33  1  0
 28 29  1  1
 28 30  1  0
 29 70  1  0
 29 71  1  0
 29 72  1  0
 30 31  1  0
 30 73  1  1
 31 32  1  0
 31 74  1  6
 32 33  1  0
 32 75  1  0
 32 76  1  0
 33 34  1  6
 34 77  1  0
 34 78  1  0
 34 79  1  0
M  CHG  1  20   1
M  END
>  <i_m_ct_stereo_status>  (195) 
1

>  <s_m_source_file>  (195) 
/var/tmp/pbs.5076255.sched01/tmpqwfmwtcs/46j3o47u_k.sdf

>  <i_m_source_file_index>  (195) 
31

>  <i_lp_mmshare_version>  (195) 
48012

>  <i_f3d_flags>  (195) 
0

>  <s_epik_input>  (195) 
W0NIMl0xW0NIMl1bQ0BASF0oW0NIM10pW0NASF0yW0NIMl1bQ0BdMyhbQ0gzXSlbQ0BIXShbQ0gyXVtDSDJdNClbQ0gyXVtDSF09QyhbQ0BASF01W0NAXTMoW0NIM10pW0NAQEhdMltDQEBdMTRbQ0gzXSlbQ0BIXTZbQ0BASF0oW0NIMl1bQ0gyXTUpQyhbQ0gzXSkoW0NIM10pW05IXVtDQEBIXTZjN25uW2NIXXM3

>  <s_epik_cmdline>  (195) 
J2VwaWtfcHl0aG9uJywgJy1waHQnLCAnMi4wJywgJy1waCcsICc3LjAnLCAnLXRuJywgJzgnLCAnLW1hJywgJzIwMCcsICctaW1hZScsICc8aW5maWxlLm1hZT4nLCAnLW9tYWUnLCAnPG91dGZpbGUubWFlPic=

>  <r_lp_tautomer_probability>  (195) 
1

>  <r_epik_Ionization_Penalty>  (195) 
0.0153298

>  <r_epik_Ionization_Penalty_Charging>  (195) 
0.0153298

>  <r_epik_Ionization_Penalty_Neutral>  (195) 
4.17375e-09

>  <r_epik_State_Penalty>  (195) 
0.0120409

>  <r_epik_Charging_Adjusted_Penalty>  (195) 
0.0273707

>  <i_epik_Tot_Q>  (195) 
1

>  <i_epik_Tot_abs_Q>  (195) 
1

>  <s_lp_Force_Field>  (195) 
OPLS3e

>  <r_lp_Energy>  (195) 
115.388

>  <b_lp_Chiralities_Consistent>  (195) 
1

>  <s_lp_Variant>  (195) 
52:0-1

>  <s_i_glide_gridfile>  (195) 
pfpi4k_grid

>  <i_i_glide_lignum>  (195) 
31

>  <i_i_glide_rotatable_bonds>  (195) 
1

>  <r_i_docking_score>  (195) 
-2.72958

>  <r_i_glide_ligand_efficiency>  (195) 
-0.0802818

>  <r_i_glide_ligand_efficiency_sa>  (195) 
-0.260082

>  <r_i_glide_ligand_efficiency_ln>  (195) 
-0.603041

>  <r_i_glide_gscore>  (195) 
-2.72958

>  <r_i_glide_lipo>  (195) 
-0.290979

>  <r_i_glide_hbond>  (195) 
0

>  <r_i_glide_metal>  (195) 
-0

>  <r_i_glide_rewards>  (195) 
-0.131098

>  <r_i_glide_evdw>  (195) 
-34.154

>  <r_i_glide_ecoul>  (195) 
-4.32135

>  <r_i_glide_erotb>  (195) 
0.0877447

>  <r_i_glide_esite>  (195) 
-0.0393483

>  <r_i_glide_emodel>  (195) 
-42.6235

>  <r_i_glide_energy>  (195) 
-38.4753

>  <r_i_glide_einternal>  (195) 
3.58273

>  <r_i_glide_intrahb_reward>  (195) 
-0

>  <i_i_glide_confnum>  (195) 
1

>  <i_i_glide_posenum>  (195) 
19

>  <r_i_glide_eff_state_penalty>  (195) 
0

>  <ligand_id>  (195) 
52

>  <original_smiles>  (195) 
CC1CCC2(C)CCC3CC=C4C5C(c6nncs6)NC(C)(C)C5CCC4C4(C)C2C1CC34C

>  <smiles>  (195) 
[H]C1=C2C([H])(C([H])([H])C([H])([H])C3([H])C2([H])C([H])(c2nnc([H])s2)[N+]([H])([H])C3(C([H])([H])[H])C([H])([H])[H])C2(C([H])([H])[H])C3([H])C4([H])C([H])([H])C2(C([H])([H])[H])C([H])(C1([H])[H])C([H])([H])C([H])([H])C3(C([H])([H])[H])C([H])([H])C([H])([H])C4([H])C([H])([H])[H]

$$$$
52:0:2
     RDKit          3D

 80 86  0  0  1  0  0  0  0  0999 V2000
    0.2396   -8.0028    6.0006 C   0  0  0  0  0  0  0  0  0  0  0  0
    1.0496   -9.0319    5.1898 C   0  0  2  0  0  0  0  0  0  0  0  0
    2.1174   -9.7978    6.0066 C   0  0  0  0  0  0  0  0  0  0  0  0
    3.6015   -9.2945    5.9368 C   0  0  0  0  0  0  0  0  0  0  0  0
    4.1064   -8.3035    4.7964 C   0  0  1  0  0  0  0  0  0  0  0  0
    5.1985   -7.4957    5.5427 C   0  0  0  0  0  0  0  0  0  0  0  0
    4.8366   -8.9841    3.5639 C   0  0  0  0  0  0  0  0  0  0  0  0
    4.1290   -9.2435    2.2007 C   0  0  0  0  0  0  0  0  0  0  0  0
    3.5036   -8.0666    1.3905 C   0  0  2  0  0  0  0  0  0  0  0  0
    4.6323   -7.3117    0.6198 C   0  0  0  0  0  0  0  0  0  0  0  0
    4.5502   -5.8038    0.5531 C   0  0  0  0  0  0  0  0  0  0  0  0
    4.3279   -4.9817    1.5977 C   0  0  0  0  0  0  0  0  0  0  0  0
    4.0311   -3.4866    1.3939 C   0  0  2  0  0  0  0  0  0  0  0  0
    5.0678   -2.6995    0.5546 C   0  0  1  0  0  0  0  0  0  0  0  0
    4.7442   -2.5176   -0.9225 C   0  0  0  0  0  0  0  0  0  0  0  0
    5.1283   -3.4289   -1.8213 N   0  0  0  0  0  0  0  0  0  0  0  0
    4.6237   -3.2010   -3.1086 N   0  0  0  0  0  0  0  0  0  0  0  0
    3.9107   -2.0790   -3.1343 C   0  0  0  0  0  0  0  0  0  0  0  0
    3.8182   -1.1659   -1.6246 S   0  0  0  0  0  0  0  0  0  0  0  0
    5.1182   -1.3263    1.1059 N   0  0  0  0  0  0  0  0  0  0  0  0
    4.1321   -1.2170    2.2041 C   0  0  0  0  0  0  0  0  0  0  0  0
    4.6129   -0.2590    3.3135 C   0  0  0  0  0  0  0  0  0  0  0  0
    2.8046   -0.6513    1.6687 C   0  0  0  0  0  0  0  0  0  0  0  0
    3.9335   -2.6669    2.6875 C   0  0  2  0  0  0  0  0  0  0  0  0
    4.9754   -3.1663    3.6941 C   0  0  0  0  0  0  0  0  0  0  0  0
    4.6884   -4.6077    4.1335 C   0  0  0  0  0  0  0  0  0  0  0  0
    4.2083   -5.5758    3.0018 C   0  0  1  0  0  0  0  0  0  0  0  0
    2.8491   -6.3485    3.2397 C   0  0  2  0  0  0  0  0  0  0  0  0
    1.7570   -5.2940    3.6125 C   0  0  0  0  0  0  0  0  0  0  0  0
    2.8790   -7.4288    4.3949 C   0  0  1  0  0  0  0  0  0  0  0  0
    1.8122   -8.4652    4.0081 C   0  0  2  0  0  0  0  0  0  0  0  0
    1.2231   -8.0951    2.6663 C   0  0  0  0  0  0  0  0  0  0  0  0
    2.3230   -7.2017    2.0195 C   0  0  2  0  0  0  0  0  0  0  0  0
    1.5339   -6.4098    0.9199 C   0  0  0  0  0  0  0  0  0  0  0  0
    0.8589   -7.2886    6.5430 H   0  0  0  0  0  0  0  0  0  0  0  0
   -0.3652   -8.5285    6.7357 H   0  0  0  0  0  0  0  0  0  0  0  0
   -0.4360   -7.4431    5.3558 H   0  0  0  0  0  0  0  0  0  0  0  0
    0.3238   -9.7615    4.8265 H   0  0  0  0  0  0  0  0  0  0  0  0
    1.8183   -9.8154    7.0547 H   0  0  0  0  0  0  0  0  0  0  0  0
    2.0917  -10.8425    5.7066 H   0  0  0  0  0  0  0  0  0  0  0  0
    3.7921   -8.8500    6.9097 H   0  0  0  0  0  0  0  0  0  0  0  0
    4.2339  -10.1792    5.9278 H   0  0  0  0  0  0  0  0  0  0  0  0
    5.9058   -6.9946    4.8824 H   0  0  0  0  0  0  0  0  0  0  0  0
    5.8197   -8.1608    6.1494 H   0  0  0  0  0  0  0  0  0  0  0  0
    4.7577   -6.7540    6.2188 H   0  0  0  0  0  0  0  0  0  0  0  0
    5.7258   -8.4089    3.3077 H   0  0  0  0  0  0  0  0  0  0  0  0
    5.2496   -9.9345    3.8962 H   0  0  0  0  0  0  0  0  0  0  0  0
    4.8914   -9.6801    1.5510 H   0  0  0  0  0  0  0  0  0  0  0  0
    3.4327  -10.0787    2.2605 H   0  0  0  0  0  0  0  0  0  0  0  0
    3.0123   -8.6503    0.6150 H   0  0  0  0  0  0  0  0  0  0  0  0
    5.6258   -7.5789    0.9866 H   0  0  0  0  0  0  0  0  0  0  0  0
    4.6142   -7.6464   -0.4185 H   0  0  0  0  0  0  0  0  0  0  0  0
    4.5871   -5.4211   -0.4480 H   0  0  0  0  0  0  0  0  0  0  0  0
    3.0647   -3.4207    0.8955 H   0  0  0  0  0  0  0  0  0  0  0  0
    6.0640   -3.1447    0.6377 H   0  0  0  0  0  0  0  0  0  0  0  0
    3.4534   -1.7585   -4.0692 H   0  0  0  0  0  0  0  0  0  0  0  0
    6.0206   -1.2151    1.5181 H   0  0  0  0  0  0  0  0  0  0  0  0
    3.9139   -0.2956    4.1557 H   0  0  0  0  0  0  0  0  0  0  0  0
    4.6164    0.7793    2.9800 H   0  0  0  0  0  0  0  0  0  0  0  0
    5.6044   -0.4835    3.7039 H   0  0  0  0  0  0  0  0  0  0  0  0
    2.0594   -0.5975    2.4686 H   0  0  0  0  0  0  0  0  0  0  0  0
    2.3717   -1.2635    0.8800 H   0  0  0  0  0  0  0  0  0  0  0  0
    2.9261    0.3599    1.2664 H   0  0  0  0  0  0  0  0  0  0  0  0
    2.9575   -2.7606    3.1573 H   0  0  0  0  0  0  0  0  0  0  0  0
    5.9589   -3.1274    3.2320 H   0  0  0  0  0  0  0  0  0  0  0  0
    5.0242   -2.5468    4.5886 H   0  0  0  0  0  0  0  0  0  0  0  0
    5.6280   -4.9602    4.5574 H   0  0  0  0  0  0  0  0  0  0  0  0
    4.0047   -4.5990    4.9824 H   0  0  0  0  0  0  0  0  0  0  0  0
    4.9791   -6.3387    2.9996 H   0  0  0  0  0  0  0  0  0  0  0  0
    0.7767   -5.7359    3.7816 H   0  0  0  0  0  0  0  0  0  0  0  0
    1.6366   -4.5455    2.8292 H   0  0  0  0  0  0  0  0  0  0  0  0
    1.9752   -4.7591    4.5354 H   0  0  0  0  0  0  0  0  0  0  0  0
    2.5885   -6.9035    5.3063 H   0  0  0  0  0  0  0  0  0  0  0  0
    2.2732   -9.3960    3.7161 H   0  0  0  0  0  0  0  0  0  0  0  0
    0.9971   -8.9738    2.0604 H   0  0  0  0  0  0  0  0  0  0  0  0
    0.2785   -7.5768    2.8156 H   0  0  0  0  0  0  0  0  0  0  0  0
    0.6177   -5.9802    1.3175 H   0  0  0  0  0  0  0  0  0  0  0  0
    1.2083   -7.0566    0.1130 H   0  0  0  0  0  0  0  0  0  0  0  0
    2.0682   -5.5859    0.4590 H   0  0  0  0  0  0  0  0  0  0  0  0
    4.9550   -0.6224    0.3940 H   0  0  0  0  0  0  0  0  0  0  0  0
  1  2  1  0
  1 35  1  0
  1 36  1  0
  1 37  1  0
  2 31  1  0
  2  3  1  0
  2 38  1  6
  3  4  1  0
  3 39  1  0
  3 40  1  0
  4  5  1  0
  4 41  1  0
  4 42  1  0
  5 30  1  0
  5  6  1  1
  5  7  1  0
  6 43  1  0
  6 44  1  0
  6 45  1  0
  7  8  1  0
  7 46  1  0
  7 47  1  0
  8  9  1  0
  8 48  1  0
  8 49  1  0
  9 33  1  0
  9 10  1  0
  9 50  1  6
 10 11  1  0
 10 51  1  0
 10 52  1  0
 11 12  2  0
 11 53  1  0
 12 27  1  0
 12 13  1  0
 13 24  1  0
 13 14  1  0
 13 54  1  6
 14 15  1  0
 14 20  1  0
 14 55  1  6
 15 19  1  0
 15 16  2  0
 16 17  1  0
 17 18  2  0
 18 19  1  0
 18 56  1  0
 20 21  1  0
 20 57  1  0
 20 80  1  0
 21 22  1  0
 21 23  1  0
 21 24  1  0
 22 58  1  0
 22 59  1  0
 22 60  1  0
 23 61  1  0
 23 62  1  0
 23 63  1  0
 24 25  1  0
 24 64  1  1
 25 26  1  0
 25 65  1  0
 25 66  1  0
 26 27  1  0
 26 67  1  0
 26 68  1  0
 27 28  1  0
 27 69  1  6
 28 33  1  0
 28 29  1  1
 28 30  1  0
 29 70  1  0
 29 71  1  0
 29 72  1  0
 30 31  1  0
 30 73  1  1
 31 32  1  0
 31 74  1  6
 32 33  1  0
 32 75  1  0
 32 76  1  0
 33 34  1  6
 34 77  1  0
 34 78  1  0
 34 79  1  0
M  CHG  1  20   1
M  END
>  <i_m_ct_stereo_status>  (196) 
1

>  <s_m_source_file>  (196) 
/var/tmp/pbs.5076255.sched01/tmpqwfmwtcs/46j3o47u_k.sdf

>  <i_m_source_file_index>  (196) 
31

>  <i_lp_mmshare_version>  (196) 
48012

>  <i_f3d_flags>  (196) 
0

>  <s_epik_input>  (196) 
W0NIMl0xW0NIMl1bQ0BASF0oW0NIM10pW0NASF0yW0NIMl1bQ0BdMyhbQ0gzXSlbQ0BIXShbQ0gyXVtDSDJdNClbQ0gyXVtDSF09QyhbQ0BASF01W0NAXTMoW0NIM10pW0NAQEhdMltDQEBdMTRbQ0gzXSlbQ0BIXTZbQ0BASF0oW0NIMl1bQ0gyXTUpQyhbQ0gzXSkoW0NIM10pW05IXVtDQEBIXTZjN25uW2NIXXM3

>  <s_epik_cmdline>  (196) 
J2VwaWtfcHl0aG9uJywgJy1waHQnLCAnMi4wJywgJy1waCcsICc3LjAnLCAnLXRuJywgJzgnLCAnLW1hJywgJzIwMCcsICctaW1hZScsICc8aW5maWxlLm1hZT4nLCAnLW9tYWUnLCAnPG91dGZpbGUubWFlPic=

>  <r_lp_tautomer_probability>  (196) 
1

>  <r_epik_Ionization_Penalty>  (196) 
0.0153298

>  <r_epik_Ionization_Penalty_Charging>  (196) 
0.0153298

>  <r_epik_Ionization_Penalty_Neutral>  (196) 
4.17375e-09

>  <r_epik_State_Penalty>  (196) 
0.0120409

>  <r_epik_Charging_Adjusted_Penalty>  (196) 
0.0273707

>  <i_epik_Tot_Q>  (196) 
1

>  <i_epik_Tot_abs_Q>  (196) 
1

>  <s_lp_Force_Field>  (196) 
OPLS3e

>  <r_lp_Energy>  (196) 
115.388

>  <b_lp_Chiralities_Consistent>  (196) 
1

>  <s_lp_Variant>  (196) 
52:0-1

>  <s_i_glide_gridfile>  (196) 
pfpi4k_grid

>  <i_i_glide_lignum>  (196) 
31

>  <i_i_glide_rotatable_bonds>  (196) 
1

>  <r_i_docking_score>  (196) 
-2.48052

>  <r_i_glide_ligand_efficiency>  (196) 
-0.0729564

>  <r_i_glide_ligand_efficiency_sa>  (196) 
-0.23635

>  <r_i_glide_ligand_efficiency_ln>  (196) 
-0.548016

>  <r_i_glide_gscore>  (196) 
-2.48052

>  <r_i_glide_lipo>  (196) 
-0.504074

>  <r_i_glide_hbond>  (196) 
0

>  <r_i_glide_metal>  (196) 
-0

>  <r_i_glide_rewards>  (196) 
-0.131098

>  <r_i_glide_evdw>  (196) 
-33.5365

>  <r_i_glide_ecoul>  (196) 
-1.70844

>  <r_i_glide_erotb>  (196) 
0.0877447

>  <r_i_glide_esite>  (196) 
0

>  <r_i_glide_emodel>  (196) 
-40.4628

>  <r_i_glide_energy>  (196) 
-35.2449

>  <r_i_glide_einternal>  (196) 
0.135761

>  <r_i_glide_intrahb_reward>  (196) 
-0

>  <i_i_glide_confnum>  (196) 
1

>  <i_i_glide_posenum>  (196) 
24

>  <r_i_glide_eff_state_penalty>  (196) 
0

>  <ligand_id>  (196) 
52

>  <original_smiles>  (196) 
CC1CCC2(C)CCC3CC=C4C5C(c6nncs6)NC(C)(C)C5CCC4C4(C)C2C1CC34C

>  <smiles>  (196) 
[H]C1=C2C([H])(C([H])([H])C([H])([H])C3([H])C2([H])C([H])(c2nnc([H])s2)[N+]([H])([H])C3(C([H])([H])[H])C([H])([H])[H])C2(C([H])([H])[H])C3([H])C4([H])C([H])([H])C2(C([H])([H])[H])C([H])(C1([H])[H])C([H])([H])C([H])([H])C3(C([H])([H])[H])C([H])([H])C([H])([H])C4([H])C([H])([H])[H]

$$$$
52:1:0
     RDKit          3D

 79 85  0  0  1  0  0  0  0  0999 V2000
    3.0534   -9.2409    1.8662 C   0  0  0  0  0  0  0  0  0  0  0  0
    4.3819   -8.7578    1.2500 C   0  0  2  0  0  0  0  0  0  0  0  0
    5.6575   -9.2668    1.9754 C   0  0  0  0  0  0  0  0  0  0  0  0
    6.3359   -8.3042    3.0089 C   0  0  0  0  0  0  0  0  0  0  0  0
    6.0086   -6.7421    3.0426 C   0  0  1  0  0  0  0  0  0  0  0  0
    6.1667   -6.4162    4.5442 C   0  0  0  0  0  0  0  0  0  0  0  0
    7.0443   -5.8318    2.2726 C   0  0  0  0  0  0  0  0  0  0  0  0
    6.8096   -5.2412    0.8534 C   0  0  0  0  0  0  0  0  0  0  0  0
    5.5577   -4.3549    0.5310 C   0  0  2  0  0  0  0  0  0  0  0  0
    5.8027   -2.8518    0.8760 C   0  0  0  0  0  0  0  0  0  0  0  0
    4.7798   -2.0971    1.7157 C   0  0  0  0  0  0  0  0  0  0  0  0
    4.0182   -2.5665    2.7228 C   0  0  0  0  0  0  0  0  0  0  0  0
    3.0052   -1.7110    3.5154 C   0  0  2  0  0  0  0  0  0  0  0  0
    2.8412   -0.2246    3.1421 C   0  0  1  0  0  0  0  0  0  0  0  0
    1.4380    0.3275    3.3397 C   0  0  0  0  0  0  0  0  0  0  0  0
    0.8729    0.5112    4.5468 N   0  0  0  0  0  0  0  0  0  0  0  0
   -0.3655    1.1283    4.4946 N   0  0  0  0  0  0  0  0  0  0  0  0
   -0.7269    1.3695    3.2222 C   0  0  0  0  0  0  0  0  0  0  0  0
    0.4376    0.8637    1.9886 S   0  0  0  0  0  0  0  0  0  0  0  0
    3.8617    0.4677    3.9270 N   0  0  0  0  0  0  0  0  0  0  0  0
    4.1089   -0.2593    5.1671 C   0  0  0  0  0  0  0  0  0  0  0  0
    5.6397   -0.3102    5.2611 C   0  0  0  0  0  0  0  0  0  0  0  0
    3.5940    0.5273    6.3890 C   0  0  0  0  0  0  0  0  0  0  0  0
    3.3968   -1.6310    4.9991 C   0  0  2  0  0  0  0  0  0  0  0  0
    4.1138   -2.8956    5.5312 C   0  0  0  0  0  0  0  0  0  0  0  0
    3.6932   -4.1144    4.7122 C   0  0  0  0  0  0  0  0  0  0  0  0
    4.2228   -3.9977    3.2593 C   0  0  1  0  0  0  0  0  0  0  0  0
    3.8164   -5.1708    2.2944 C   0  0  2  0  0  0  0  0  0  0  0  0
    2.2852   -5.4211    2.4942 C   0  0  0  0  0  0  0  0  0  0  0  0
    4.5501   -6.5583    2.5452 C   0  0  1  0  0  0  0  0  0  0  0  0
    4.5643   -7.2538    1.1891 C   0  0  2  0  0  0  0  0  0  0  0  0
    3.9419   -6.3302    0.1852 C   0  0  0  0  0  0  0  0  0  0  0  0
    4.1032   -4.9134    0.7744 C   0  0  2  0  0  0  0  0  0  0  0  0
    3.0458   -4.0516    0.0100 C   0  0  0  0  0  0  0  0  0  0  0  0
    2.9643   -9.0289    2.9286 H   0  0  0  0  0  0  0  0  0  0  0  0
    2.9545  -10.3196    1.7464 H   0  0  0  0  0  0  0  0  0  0  0  0
    2.1991   -8.7900    1.3556 H   0  0  0  0  0  0  0  0  0  0  0  0
    4.3980   -9.1647    0.2418 H   0  0  0  0  0  0  0  0  0  0  0  0
    5.4171  -10.1848    2.4958 H   0  0  0  0  0  0  0  0  0  0  0  0
    6.4007   -9.5503    1.2171 H   0  0  0  0  0  0  0  0  0  0  0  0
    6.1323   -8.7345    4.0004 H   0  0  0  0  0  0  0  0  0  0  0  0
    7.4026   -8.4130    2.8839 H   0  0  0  0  0  0  0  0  0  0  0  0
    6.1643   -5.3524    4.7844 H   0  0  0  0  0  0  0  0  0  0  0  0
    7.1192   -6.7916    4.9185 H   0  0  0  0  0  0  0  0  0  0  0  0
    5.3838   -6.8957    5.1367 H   0  0  0  0  0  0  0  0  0  0  0  0
    7.1930   -4.9555    2.8831 H   0  0  0  0  0  0  0  0  0  0  0  0
    8.0195   -6.3129    2.2867 H   0  0  0  0  0  0  0  0  0  0  0  0
    7.6791   -4.6206    0.6492 H   0  0  0  0  0  0  0  0  0  0  0  0
    6.9357   -6.0088    0.0944 H   0  0  0  0  0  0  0  0  0  0  0  0
    5.6094   -4.3377   -0.5565 H   0  0  0  0  0  0  0  0  0  0  0  0
    6.7884   -2.6922    1.3166 H   0  0  0  0  0  0  0  0  0  0  0  0
    5.8307   -2.3121   -0.0748 H   0  0  0  0  0  0  0  0  0  0  0  0
    4.7012   -1.0613    1.4267 H   0  0  0  0  0  0  0  0  0  0  0  0
    2.0494   -2.2234    3.3953 H   0  0  0  0  0  0  0  0  0  0  0  0
    3.0436   -0.0668    2.0841 H   0  0  0  0  0  0  0  0  0  0  0  0
   -1.6812    1.8332    3.0299 H   0  0  0  0  0  0  0  0  0  0  0  0
    3.5559    1.4020    4.1306 H   0  0  0  0  0  0  0  0  0  0  0  0
    5.9699   -0.7937    6.1793 H   0  0  0  0  0  0  0  0  0  0  0  0
    6.0803    0.6878    5.2559 H   0  0  0  0  0  0  0  0  0  0  0  0
    6.0508   -0.8440    4.4077 H   0  0  0  0  0  0  0  0  0  0  0  0
    3.8264   -0.0137    7.3038 H   0  0  0  0  0  0  0  0  0  0  0  0
    2.5155    0.6664    6.4126 H   0  0  0  0  0  0  0  0  0  0  0  0
    4.0467    1.5173    6.4558 H   0  0  0  0  0  0  0  0  0  0  0  0
    2.4403   -1.5656    5.5383 H   0  0  0  0  0  0  0  0  0  0  0  0
    5.2048   -2.8069    5.5061 H   0  0  0  0  0  0  0  0  0  0  0  0
    3.8426   -3.0427    6.5665 H   0  0  0  0  0  0  0  0  0  0  0  0
    4.0238   -5.0277    5.1961 H   0  0  0  0  0  0  0  0  0  0  0  0
    2.6025   -4.1628    4.7522 H   0  0  0  0  0  0  0  0  0  0  0  0
    5.3002   -4.0305    3.3412 H   0  0  0  0  0  0  0  0  0  0  0  0
    1.8451   -6.1243    1.7924 H   0  0  0  0  0  0  0  0  0  0  0  0
    1.7172   -4.4941    2.4150 H   0  0  0  0  0  0  0  0  0  0  0  0
    2.0735   -5.8584    3.4682 H   0  0  0  0  0  0  0  0  0  0  0  0
    3.9295   -7.1110    3.2479 H   0  0  0  0  0  0  0  0  0  0  0  0
    5.5546   -7.2809    0.7721 H   0  0  0  0  0  0  0  0  0  0  0  0
    4.4142   -6.4343   -0.7904 H   0  0  0  0  0  0  0  0  0  0  0  0
    2.8981   -6.5993    0.0853 H   0  0  0  0  0  0  0  0  0  0  0  0
    2.0840   -4.5525   -0.0697 H   0  0  0  0  0  0  0  0  0  0  0  0
    3.3656   -3.8682   -1.0138 H   0  0  0  0  0  0  0  0  0  0  0  0
    2.8298   -3.0859    0.4513 H   0  0  0  0  0  0  0  0  0  0  0  0
  1  2  1  0
  1 35  1  0
  1 36  1  0
  1 37  1  0
  2 31  1  0
  2  3  1  0
  2 38  1  6
  3  4  1  0
  3 39  1  0
  3 40  1  0
  4  5  1  0
  4 41  1  0
  4 42  1  0
  5 30  1  0
  5  6  1  1
  5  7  1  0
  6 43  1  0
  6 44  1  0
  6 45  1  0
  7  8  1  0
  7 46  1  0
  7 47  1  0
  8  9  1  0
  8 48  1  0
  8 49  1  0
  9 33  1  0
  9 10  1  0
  9 50  1  6
 10 11  1  0
 10 51  1  0
 10 52  1  0
 11 12  2  0
 11 53  1  0
 12 27  1  0
 12 13  1  0
 13 24  1  0
 13 14  1  0
 13 54  1  1
 14 15  1  0
 14 20  1  0
 14 55  1  6
 15 19  1  0
 15 16  2  0
 16 17  1  0
 17 18  2  0
 18 19  1  0
 18 56  1  0
 20 21  1  0
 20 57  1  0
 21 22  1  0
 21 23  1  0
 21 24  1  0
 22 58  1  0
 22 59  1  0
 22 60  1  0
 23 61  1  0
 23 62  1  0
 23 63  1  0
 24 25  1  0
 24 64  1  1
 25 26  1  0
 25 65  1  0
 25 66  1  0
 26 27  1  0
 26 67  1  0
 26 68  1  0
 27 28  1  0
 27 69  1  1
 28 33  1  0
 28 29  1  6
 28 30  1  0
 29 70  1  0
 29 71  1  0
 29 72  1  0
 30 31  1  0
 30 73  1  1
 31 32  1  0
 31 74  1  6
 32 33  1  0
 32 75  1  0
 32 76  1  0
 33 34  1  6
 34 77  1  0
 34 78  1  0
 34 79  1  0
M  END
>  <i_m_ct_stereo_status>  (197) 
1

>  <s_m_source_file>  (197) 
/var/tmp/pbs.5076255.sched01/tmpqwfmwtcs/46j3o47u_k.sdf

>  <i_m_source_file_index>  (197) 
32

>  <i_lp_mmshare_version>  (197) 
48012

>  <i_f3d_flags>  (197) 
0

>  <s_epik_input>  (197) 
W0NIMl0xW0NIMl1bQ0BASF0oW0NIM10pW0NASF0yW0NIMl1bQ0BdMyhbQ0gzXSlbQ0BIXShbQ0gyXVtDSDJdNClbQ0gyXVtDSF09QyhbQ0BASF01W0NAXTMoW0NIM10pW0NAQEhdMltDQEBdMTRbQ0gzXSlbQ0BIXTZbQ0BASF0oW0NIMl1bQ0gyXTUpQyhbQ0gzXSkoW0NIM10pW05IXVtDQEBIXTZjN25uW2NIXXM3

>  <s_epik_cmdline>  (197) 
J2VwaWtfcHl0aG9uJywgJy1waHQnLCAnMi4wJywgJy1waCcsICc3LjAnLCAnLXRuJywgJzgnLCAnLW1hJywgJzIwMCcsICctaW1hZScsICc8aW5maWxlLm1hZT4nLCAnLW9tYWUnLCAnPG91dGZpbGUubWFlPic=

>  <r_lp_tautomer_probability>  (197) 
1

>  <r_epik_Ionization_Penalty>  (197) 
2.17291

>  <r_epik_Ionization_Penalty_Charging>  (197) 
0

>  <r_epik_Ionization_Penalty_Neutral>  (197) 
2.17291

>  <r_epik_State_Penalty>  (197) 
2.31435

>  <r_epik_Charging_Adjusted_Penalty>  (197) 
2.31435

>  <i_epik_Tot_Q>  (197) 
0

>  <i_epik_Tot_abs_Q>  (197) 
0

>  <s_lp_Force_Field>  (197) 
OPLS3e

>  <r_lp_Energy>  (197) 
120.39

>  <b_lp_Chiralities_Consistent>  (197) 
1

>  <s_lp_Variant>  (197) 
52:0-2

>  <s_i_glide_gridfile>  (197) 
pfpi4k_grid

>  <i_i_glide_lignum>  (197) 
32

>  <i_i_glide_rotatable_bonds>  (197) 
1

>  <r_i_docking_score>  (197) 
-2.34339

>  <r_i_glide_ligand_efficiency>  (197) 
-0.0689231

>  <r_i_glide_ligand_efficiency_sa>  (197) 
-0.223284

>  <r_i_glide_ligand_efficiency_ln>  (197) 
-0.517719

>  <r_i_glide_gscore>  (197) 
-2.34339

>  <r_i_glide_lipo>  (197) 
-0.575397

>  <r_i_glide_hbond>  (197) 
0

>  <r_i_glide_metal>  (197) 
-0

>  <r_i_glide_rewards>  (197) 
-0.13797

>  <r_i_glide_evdw>  (197) 
-29.6648

>  <r_i_glide_ecoul>  (197) 
-1.4393

>  <r_i_glide_erotb>  (197) 
0.0880819

>  <r_i_glide_esite>  (197) 
-0.0189669

>  <r_i_glide_emodel>  (197) 
-34.703

>  <r_i_glide_energy>  (197) 
-31.1041

>  <r_i_glide_einternal>  (197) 
0.215938

>  <r_i_glide_intrahb_reward>  (197) 
-0

>  <i_i_glide_confnum>  (197) 
1

>  <i_i_glide_posenum>  (197) 
14

>  <r_i_glide_eff_state_penalty>  (197) 
0

>  <ligand_id>  (197) 
52

>  <original_smiles>  (197) 
CC1CCC2(C)CCC3CC=C4C5C(c6nncs6)NC(C)(C)C5CCC4C4(C)C2C1CC34C

>  <smiles>  (197) 
[H]C1=C2C3([H])C([H])(c4nnc([H])s4)N([H])C(C([H])([H])[H])(C([H])([H])[H])C3([H])C([H])([H])C([H])([H])C2([H])C2(C([H])([H])[H])C3([H])C4([H])C([H])([H])C2(C([H])([H])[H])C([H])(C1([H])[H])C([H])([H])C([H])([H])C3(C([H])([H])[H])C([H])([H])C([H])([H])C4([H])C([H])([H])[H]

$$$$
52:1:1
     RDKit          3D

 79 85  0  0  1  0  0  0  0  0999 V2000
    0.4797  -10.4900    2.9012 C   0  0  0  0  0  0  0  0  0  0  0  0
    2.0051  -10.3036    2.9864 C   0  0  2  0  0  0  0  0  0  0  0  0
    2.6969  -11.1519    4.0805 C   0  0  0  0  0  0  0  0  0  0  0  0
    3.0179  -10.4574    5.4486 C   0  0  0  0  0  0  0  0  0  0  0  0
    2.9952   -8.8718    5.6237 C   0  0  1  0  0  0  0  0  0  0  0  0
    2.5077   -8.7255    7.0857 C   0  0  0  0  0  0  0  0  0  0  0  0
    4.4062   -8.1535    5.5715 C   0  0  0  0  0  0  0  0  0  0  0  0
    4.9461   -7.4528    4.2879 C   0  0  0  0  0  0  0  0  0  0  0  0
    4.1580   -6.2766    3.6071 C   0  0  2  0  0  0  0  0  0  0  0  0
    4.4982   -4.9141    4.2851 C   0  0  0  0  0  0  0  0  0  0  0  0
    3.3725   -3.9955    4.7386 C   0  0  0  0  0  0  0  0  0  0  0  0
    2.1673   -4.3548    5.2355 C   0  0  0  0  0  0  0  0  0  0  0  0
    1.0850   -3.3346    5.6666 C   0  0  2  0  0  0  0  0  0  0  0  0
    1.3917   -1.8317    5.5272 C   0  0  1  0  0  0  0  0  0  0  0  0
    0.1763   -0.9761    5.2062 C   0  0  0  0  0  0  0  0  0  0  0  0
   -0.8674   -0.8664    6.0312 N   0  0  0  0  0  0  0  0  0  0  0  0
   -1.7954    0.0813    5.6062 N   0  0  0  0  0  0  0  0  0  0  0  0
   -1.4181    0.6234    4.4487 C   0  0  0  0  0  0  0  0  0  0  0  0
    0.0973    0.0250    3.7441 S   0  0  0  0  0  0  0  0  0  0  0  0
    2.0500   -1.4617    6.7815 N   0  0  0  0  0  0  0  0  0  0  0  0
    1.5834   -2.3342    7.8598 C   0  0  0  0  0  0  0  0  0  0  0  0
    2.8773   -2.7773    8.5769 C   0  0  0  0  0  0  0  0  0  0  0  0
    0.7264   -1.5255    8.8542 C   0  0  0  0  0  0  0  0  0  0  0  0
    0.7793   -3.4686    7.1629 C   0  0  2  0  0  0  0  0  0  0  0  0
    0.9271   -4.9018    7.7199 C   0  0  0  0  0  0  0  0  0  0  0  0
    0.7020   -5.9162    6.5961 C   0  0  0  0  0  0  0  0  0  0  0  0
    1.8388   -5.8175    5.5410 C   0  0  1  0  0  0  0  0  0  0  0  0
    1.7007   -6.7811    4.2972 C   0  0  2  0  0  0  0  0  0  0  0  0
    0.2277   -6.6658    3.8002 C   0  0  0  0  0  0  0  0  0  0  0  0
    1.9785   -8.3114    4.5854 C   0  0  1  0  0  0  0  0  0  0  0  0
    2.4652   -8.8852    3.2473 C   0  0  2  0  0  0  0  0  0  0  0  0
    2.5337   -7.7750    2.2232 C   0  0  0  0  0  0  0  0  0  0  0  0
    2.6750   -6.4947    3.0962 C   0  0  2  0  0  0  0  0  0  0  0  0
    2.2585   -5.3366    2.1428 C   0  0  0  0  0  0  0  0  0  0  0  0
   -0.0369  -10.3497    3.8460 H   0  0  0  0  0  0  0  0  0  0  0  0
    0.2397  -11.4969    2.5547 H   0  0  0  0  0  0  0  0  0  0  0  0
    0.0449   -9.8000    2.1723 H   0  0  0  0  0  0  0  0  0  0  0  0
    2.4135  -10.6285    2.0329 H   0  0  0  0  0  0  0  0  0  0  0  0
    2.0879  -12.0308    4.2889 H   0  0  0  0  0  0  0  0  0  0  0  0
    3.6215  -11.5510    3.6720 H   0  0  0  0  0  0  0  0  0  0  0  0
    2.3135  -10.9000    6.1441 H   0  0  0  0  0  0  0  0  0  0  0  0
    3.9809  -10.8297    5.7832 H   0  0  0  0  0  0  0  0  0  0  0  0
    2.5920   -7.7196    7.4957 H   0  0  0  0  0  0  0  0  0  0  0  0
    3.1057   -9.3558    7.7495 H   0  0  0  0  0  0  0  0  0  0  0  0
    1.4693   -9.0540    7.1949 H   0  0  0  0  0  0  0  0  0  0  0  0
    4.4582   -7.4003    6.3573 H   0  0  0  0  0  0  0  0  0  0  0  0
    5.1557   -8.8765    5.8831 H   0  0  0  0  0  0  0  0  0  0  0  0
    5.9218   -7.0529    4.5640 H   0  0  0  0  0  0  0  0  0  0  0  0
    5.2504   -8.1875    3.5449 H   0  0  0  0  0  0  0  0  0  0  0  0
    4.7102   -6.1986    2.6678 H   0  0  0  0  0  0  0  0  0  0  0  0
    5.1894   -5.0341    5.1211 H   0  0  0  0  0  0  0  0  0  0  0  0
    5.0560   -4.3241    3.5512 H   0  0  0  0  0  0  0  0  0  0  0  0
    3.6279   -2.9592    4.6395 H   0  0  0  0  0  0  0  0  0  0  0  0
    0.2055   -3.5862    5.0680 H   0  0  0  0  0  0  0  0  0  0  0  0
    2.0745   -1.6474    4.7019 H   0  0  0  0  0  0  0  0  0  0  0  0
   -2.0670    1.3600    3.9735 H   0  0  0  0  0  0  0  0  0  0  0  0
    1.8668   -0.4981    7.0089 H   0  0  0  0  0  0  0  0  0  0  0  0
    2.6512   -3.3717    9.4605 H   0  0  0  0  0  0  0  0  0  0  0  0
    3.4509   -1.9159    8.9222 H   0  0  0  0  0  0  0  0  0  0  0  0
    3.5286   -3.3641    7.9286 H   0  0  0  0  0  0  0  0  0  0  0  0
    0.4026   -2.1660    9.6730 H   0  0  0  0  0  0  0  0  0  0  0  0
   -0.1789   -1.1125    8.4150 H   0  0  0  0  0  0  0  0  0  0  0  0
    1.2774   -0.6908    9.2870 H   0  0  0  0  0  0  0  0  0  0  0  0
   -0.2788   -3.2170    7.2631 H   0  0  0  0  0  0  0  0  0  0  0  0
    1.9089   -5.0830    8.1650 H   0  0  0  0  0  0  0  0  0  0  0  0
    0.1999   -5.0550    8.5143 H   0  0  0  0  0  0  0  0  0  0  0  0
    0.6101   -6.9142    7.0064 H   0  0  0  0  0  0  0  0  0  0  0  0
   -0.2762   -5.6991    6.1712 H   0  0  0  0  0  0  0  0  0  0  0  0
    2.7387   -6.1216    6.0632 H   0  0  0  0  0  0  0  0  0  0  0  0
    0.0382   -7.1826    2.8610 H   0  0  0  0  0  0  0  0  0  0  0  0
   -0.0560   -5.6226    3.6682 H   0  0  0  0  0  0  0  0  0  0  0  0
   -0.4734   -7.1124    4.5050 H   0  0  0  0  0  0  0  0  0  0  0  0
    1.0213   -8.7509    4.8607 H   0  0  0  0  0  0  0  0  0  0  0  0
    3.5165   -9.1131    3.2924 H   0  0  0  0  0  0  0  0  0  0  0  0
    3.3721   -7.9051    1.5344 H   0  0  0  0  0  0  0  0  0  0  0  0
    1.6341   -7.7904    1.6108 H   0  0  0  0  0  0  0  0  0  0  0  0
    1.3571   -5.5756    1.5838 H   0  0  0  0  0  0  0  0  0  0  0  0
    3.0360   -5.1486    1.4030 H   0  0  0  0  0  0  0  0  0  0  0  0
    2.0534   -4.3885    2.6290 H   0  0  0  0  0  0  0  0  0  0  0  0
  1  2  1  0
  1 35  1  0
  1 36  1  0
  1 37  1  0
  2 31  1  0
  2  3  1  0
  2 38  1  6
  3  4  1  0
  3 39  1  0
  3 40  1  0
  4  5  1  0
  4 41  1  0
  4 42  1  0
  5 30  1  0
  5  6  1  1
  5  7  1  0
  6 43  1  0
  6 44  1  0
  6 45  1  0
  7  8  1  0
  7 46  1  0
  7 47  1  0
  8  9  1  0
  8 48  1  0
  8 49  1  0
  9 33  1  0
  9 10  1  0
  9 50  1  6
 10 11  1  0
 10 51  1  0
 10 52  1  0
 11 12  2  0
 11 53  1  0
 12 27  1  0
 12 13  1  0
 13 24  1  0
 13 14  1  0
 13 54  1  6
 14 15  1  0
 14 20  1  0
 14 55  1  6
 15 19  1  0
 15 16  2  0
 16 17  1  0
 17 18  2  0
 18 19  1  0
 18 56  1  0
 20 21  1  0
 20 57  1  0
 21 22  1  0
 21 23  1  0
 21 24  1  0
 22 58  1  0
 22 59  1  0
 22 60  1  0
 23 61  1  0
 23 62  1  0
 23 63  1  0
 24 25  1  0
 24 64  1  6
 25 26  1  0
 25 65  1  0
 25 66  1  0
 26 27  1  0
 26 67  1  0
 26 68  1  0
 27 28  1  0
 27 69  1  1
 28 33  1  0
 28 29  1  6
 28 30  1  0
 29 70  1  0
 29 71  1  0
 29 72  1  0
 30 31  1  0
 30 73  1  1
 31 32  1  0
 31 74  1  1
 32 33  1  0
 32 75  1  0
 32 76  1  0
 33 34  1  6
 34 77  1  0
 34 78  1  0
 34 79  1  0
M  END
>  <i_m_ct_stereo_status>  (198) 
1

>  <s_m_source_file>  (198) 
/var/tmp/pbs.5076255.sched01/tmpqwfmwtcs/46j3o47u_k.sdf

>  <i_m_source_file_index>  (198) 
32

>  <i_lp_mmshare_version>  (198) 
48012

>  <i_f3d_flags>  (198) 
0

>  <s_epik_input>  (198) 
W0NIMl0xW0NIMl1bQ0BASF0oW0NIM10pW0NASF0yW0NIMl1bQ0BdMyhbQ0gzXSlbQ0BIXShbQ0gyXVtDSDJdNClbQ0gyXVtDSF09QyhbQ0BASF01W0NAXTMoW0NIM10pW0NAQEhdMltDQEBdMTRbQ0gzXSlbQ0BIXTZbQ0BASF0oW0NIMl1bQ0gyXTUpQyhbQ0gzXSkoW0NIM10pW05IXVtDQEBIXTZjN25uW2NIXXM3

>  <s_epik_cmdline>  (198) 
J2VwaWtfcHl0aG9uJywgJy1waHQnLCAnMi4wJywgJy1waCcsICc3LjAnLCAnLXRuJywgJzgnLCAnLW1hJywgJzIwMCcsICctaW1hZScsICc8aW5maWxlLm1hZT4nLCAnLW9tYWUnLCAnPG91dGZpbGUubWFlPic=

>  <r_lp_tautomer_probability>  (198) 
1

>  <r_epik_Ionization_Penalty>  (198) 
2.17291

>  <r_epik_Ionization_Penalty_Charging>  (198) 
0

>  <r_epik_Ionization_Penalty_Neutral>  (198) 
2.17291

>  <r_epik_State_Penalty>  (198) 
2.31435

>  <r_epik_Charging_Adjusted_Penalty>  (198) 
2.31435

>  <i_epik_Tot_Q>  (198) 
0

>  <i_epik_Tot_abs_Q>  (198) 
0

>  <s_lp_Force_Field>  (198) 
OPLS3e

>  <r_lp_Energy>  (198) 
120.39

>  <b_lp_Chiralities_Consistent>  (198) 
1

>  <s_lp_Variant>  (198) 
52:0-2

>  <s_i_glide_gridfile>  (198) 
pfpi4k_grid

>  <i_i_glide_lignum>  (198) 
32

>  <i_i_glide_rotatable_bonds>  (198) 
1

>  <r_i_docking_score>  (198) 
-2.2307

>  <r_i_glide_ligand_efficiency>  (198) 
-0.0656087

>  <r_i_glide_ligand_efficiency_sa>  (198) 
-0.212547

>  <r_i_glide_ligand_efficiency_ln>  (198) 
-0.492824

>  <r_i_glide_gscore>  (198) 
-2.2307

>  <r_i_glide_lipo>  (198) 
-0.161482

>  <r_i_glide_hbond>  (198) 
0

>  <r_i_glide_metal>  (198) 
-0

>  <r_i_glide_rewards>  (198) 
-0.13797

>  <r_i_glide_evdw>  (198) 
-27.0729

>  <r_i_glide_ecoul>  (198) 
-3.59767

>  <r_i_glide_erotb>  (198) 
0.0880819

>  <r_i_glide_esite>  (198) 
-0.126033

>  <r_i_glide_emodel>  (198) 
-34.0997

>  <r_i_glide_energy>  (198) 
-30.6705

>  <r_i_glide_einternal>  (198) 
0.630655

>  <r_i_glide_intrahb_reward>  (198) 
-0

>  <i_i_glide_confnum>  (198) 
3

>  <i_i_glide_posenum>  (198) 
40

>  <r_i_glide_eff_state_penalty>  (198) 
0

>  <ligand_id>  (198) 
52

>  <original_smiles>  (198) 
CC1CCC2(C)CCC3CC=C4C5C(c6nncs6)NC(C)(C)C5CCC4C4(C)C2C1CC34C

>  <smiles>  (198) 
[H]C1=C2C3([H])C([H])(c4nnc([H])s4)N([H])C(C([H])([H])[H])(C([H])([H])[H])C3([H])C([H])([H])C([H])([H])C2([H])C2(C([H])([H])[H])C3([H])C4([H])C([H])([H])C2(C([H])([H])[H])C([H])(C1([H])[H])C([H])([H])C([H])([H])C3(C([H])([H])[H])C([H])([H])C([H])([H])C4([H])C([H])([H])[H]

$$$$
52:1:2
     RDKit          3D

 79 85  0  0  1  0  0  0  0  0999 V2000
    2.8741   -4.9827    0.5004 C   0  0  0  0  0  0  0  0  0  0  0  0
    3.7290   -5.2302    1.7576 C   0  0  2  0  0  0  0  0  0  0  0  0
    3.2400   -6.4015    2.6521 C   0  0  0  0  0  0  0  0  0  0  0  0
    2.3675   -6.0522    3.9058 C   0  0  0  0  0  0  0  0  0  0  0  0
    2.2823   -4.5672    4.4951 C   0  0  1  0  0  0  0  0  0  0  0  0
    0.8348   -4.5306    5.0327 C   0  0  0  0  0  0  0  0  0  0  0  0
    3.2091   -4.2636    5.7455 C   0  0  0  0  0  0  0  0  0  0  0  0
    4.5803   -3.5353    5.6207 C   0  0  0  0  0  0  0  0  0  0  0  0
    4.6881   -2.0976    5.0043 C   0  0  2  0  0  0  0  0  0  0  0  0
    4.4058   -1.0032    6.0828 C   0  0  0  0  0  0  0  0  0  0  0  0
    3.3946    0.0952    5.7897 C   0  0  0  0  0  0  0  0  0  0  0  0
    2.2619    0.0160    5.0725 C   0  0  0  0  0  0  0  0  0  0  0  0
    1.2987    1.2000    4.8371 C   0  0  2  0  0  0  0  0  0  0  0  0
    1.6685    2.5658    5.4571 C   0  0  1  0  0  0  0  0  0  0  0  0
    1.2324    3.7702    4.6512 C   0  0  0  0  0  0  0  0  0  0  0  0
    0.0588    4.4040    4.8804 N   0  0  0  0  0  0  0  0  0  0  0  0
   -0.1331    5.5111    4.0840 N   0  0  0  0  0  0  0  0  0  0  0  0
    0.9297    5.7096    3.2829 C   0  0  0  0  0  0  0  0  0  0  0  0
    2.2282    4.5090    3.3885 S   0  0  0  0  0  0  0  0  0  0  0  0
    1.0874    2.5146    6.8030 N   0  0  0  0  0  0  0  0  0  0  0  0
   -0.0955    1.6558    6.8033 C   0  0  0  0  0  0  0  0  0  0  0  0
    0.0987    0.7714    8.0487 C   0  0  0  0  0  0  0  0  0  0  0  0
   -1.3958    2.4721    7.0012 C   0  0  0  0  0  0  0  0  0  0  0  0
   -0.0858    0.9184    5.4383 C   0  0  2  0  0  0  0  0  0  0  0  0
   -0.4877   -0.5753    5.4200 C   0  0  0  0  0  0  0  0  0  0  0  0
    0.2351   -1.2939    4.2818 C   0  0  0  0  0  0  0  0  0  0  0  0
    1.7635   -1.3444    4.5451 C   0  0  1  0  0  0  0  0  0  0  0  0
    2.6358   -2.0128    3.4165 C   0  0  2  0  0  0  0  0  0  0  0  0
    2.1498   -1.4196    2.0590 C   0  0  0  0  0  0  0  0  0  0  0  0
    2.5166   -3.5892    3.3055 C   0  0  1  0  0  0  0  0  0  0  0  0
    3.8504   -4.0510    2.7043 C   0  0  2  0  0  0  0  0  0  0  0  0
    4.7496   -2.8516    2.5107 C   0  0  0  0  0  0  0  0  0  0  0  0
    4.1918   -1.8145    3.5298 C   0  0  2  0  0  0  0  0  0  0  0  0
    4.7429   -0.4462    3.0229 C   0  0  0  0  0  0  0  0  0  0  0  0
    1.8174   -4.8553    0.7197 H   0  0  0  0  0  0  0  0  0  0  0  0
    2.9573   -5.8165   -0.1939 H   0  0  0  0  0  0  0  0  0  0  0  0
    3.2115   -4.0912   -0.0321 H   0  0  0  0  0  0  0  0  0  0  0  0
    4.7187   -5.4908    1.3930 H   0  0  0  0  0  0  0  0  0  0  0  0
    2.6768   -7.0955    2.0429 H   0  0  0  0  0  0  0  0  0  0  0  0
    4.1176   -6.9677    2.9886 H   0  0  0  0  0  0  0  0  0  0  0  0
    1.3528   -6.4014    3.6633 H   0  0  0  0  0  0  0  0  0  0  0  0
    2.6845   -6.7093    4.7021 H   0  0  0  0  0  0  0  0  0  0  0  0
    0.5990   -3.6626    5.6507 H   0  0  0  0  0  0  0  0  0  0  0  0
    0.6420   -5.3954    5.6713 H   0  0  0  0  0  0  0  0  0  0  0  0
    0.1080   -4.5716    4.2168 H   0  0  0  0  0  0  0  0  0  0  0  0
    2.6398   -3.6884    6.4809 H   0  0  0  0  0  0  0  0  0  0  0  0
    3.3842   -5.2021    6.2656 H   0  0  0  0  0  0  0  0  0  0  0  0
    4.9646   -3.4663    6.6365 H   0  0  0  0  0  0  0  0  0  0  0  0
    5.3267   -4.1940    5.1831 H   0  0  0  0  0  0  0  0  0  0  0  0
    5.7682   -2.0197    4.8965 H   0  0  0  0  0  0  0  0  0  0  0  0
    4.1562   -1.4417    7.0506 H   0  0  0  0  0  0  0  0  0  0  0  0
    5.3488   -0.4794    6.2535 H   0  0  0  0  0  0  0  0  0  0  0  0
    3.6734    1.0315    6.2513 H   0  0  0  0  0  0  0  0  0  0  0  0
    1.2312    1.3005    3.7520 H   0  0  0  0  0  0  0  0  0  0  0  0
    2.7504    2.6858    5.5346 H   0  0  0  0  0  0  0  0  0  0  0  0
    0.8847    6.5071    2.5727 H   0  0  0  0  0  0  0  0  0  0  0  0
    0.8150    3.4459    7.0704 H   0  0  0  0  0  0  0  0  0  0  0  0
   -0.7666    0.1391    8.2119 H   0  0  0  0  0  0  0  0  0  0  0  0
    0.2045    1.3781    8.9494 H   0  0  0  0  0  0  0  0  0  0  0  0
    0.9838    0.1382    7.9755 H   0  0  0  0  0  0  0  0  0  0  0  0
   -2.2557    1.8096    7.0595 H   0  0  0  0  0  0  0  0  0  0  0  0
   -1.6330    3.1409    6.1768 H   0  0  0  0  0  0  0  0  0  0  0  0
   -1.3680    3.0723    7.9118 H   0  0  0  0  0  0  0  0  0  0  0  0
   -0.7867    1.4483    4.7766 H   0  0  0  0  0  0  0  0  0  0  0  0
   -0.2572   -1.0849    6.3614 H   0  0  0  0  0  0  0  0  0  0  0  0
   -1.5565   -0.6507    5.2814 H   0  0  0  0  0  0  0  0  0  0  0  0
   -0.1868   -2.2820    4.1290 H   0  0  0  0  0  0  0  0  0  0  0  0
   -0.0054   -0.7491    3.3668 H   0  0  0  0  0  0  0  0  0  0  0  0
    1.8823   -1.9547    5.4295 H   0  0  0  0  0  0  0  0  0  0  0  0
    2.7564   -1.7086    1.2041 H   0  0  0  0  0  0  0  0  0  0  0  0
    2.1288   -0.3299    2.0798 H   0  0  0  0  0  0  0  0  0  0  0  0
    1.1470   -1.7582    1.8030 H   0  0  0  0  0  0  0  0  0  0  0  0
    1.7017   -3.7859    2.6103 H   0  0  0  0  0  0  0  0  0  0  0  0
    4.4383   -4.5614    3.4459 H   0  0  0  0  0  0  0  0  0  0  0  0
    5.8009   -3.0913    2.6954 H   0  0  0  0  0  0  0  0  0  0  0  0
    4.6896   -2.5126    1.4774 H   0  0  0  0  0  0  0  0  0  0  0  0
    4.6272   -0.3300    1.9468 H   0  0  0  0  0  0  0  0  0  0  0  0
    5.8090   -0.3617    3.2272 H   0  0  0  0  0  0  0  0  0  0  0  0
    4.2675    0.4274    3.4524 H   0  0  0  0  0  0  0  0  0  0  0  0
  1  2  1  0
  1 35  1  0
  1 36  1  0
  1 37  1  0
  2 31  1  0
  2  3  1  0
  2 38  1  6
  3  4  1  0
  3 39  1  0
  3 40  1  0
  4  5  1  0
  4 41  1  0
  4 42  1  0
  5 30  1  0
  5  6  1  1
  5  7  1  0
  6 43  1  0
  6 44  1  0
  6 45  1  0
  7  8  1  0
  7 46  1  0
  7 47  1  0
  8  9  1  0
  8 48  1  0
  8 49  1  0
  9 33  1  0
  9 10  1  0
  9 50  1  6
 10 11  1  0
 10 51  1  0
 10 52  1  0
 11 12  2  0
 11 53  1  0
 12 27  1  0
 12 13  1  0
 13 24  1  0
 13 14  1  0
 13 54  1  6
 14 15  1  0
 14 20  1  0
 14 55  1  1
 15 19  1  0
 15 16  2  0
 16 17  1  0
 17 18  2  0
 18 19  1  0
 18 56  1  0
 20 21  1  0
 20 57  1  0
 21 22  1  0
 21 23  1  0
 21 24  1  0
 22 58  1  0
 22 59  1  0
 22 60  1  0
 23 61  1  0
 23 62  1  0
 23 63  1  0
 24 25  1  0
 24 64  1  6
 25 26  1  0
 25 65  1  0
 25 66  1  0
 26 27  1  0
 26 67  1  0
 26 68  1  0
 27 28  1  0
 27 69  1  1
 28 33  1  0
 28 29  1  6
 28 30  1  0
 29 70  1  0
 29 71  1  0
 29 72  1  0
 30 31  1  0
 30 73  1  6
 31 32  1  0
 31 74  1  1
 32 33  1  0
 32 75  1  0
 32 76  1  0
 33 34  1  6
 34 77  1  0
 34 78  1  0
 34 79  1  0
M  END
>  <i_m_ct_stereo_status>  (199) 
1

>  <s_m_source_file>  (199) 
/var/tmp/pbs.5076255.sched01/tmpqwfmwtcs/46j3o47u_k.sdf

>  <i_m_source_file_index>  (199) 
32

>  <i_lp_mmshare_version>  (199) 
48012

>  <i_f3d_flags>  (199) 
0

>  <s_epik_input>  (199) 
W0NIMl0xW0NIMl1bQ0BASF0oW0NIM10pW0NASF0yW0NIMl1bQ0BdMyhbQ0gzXSlbQ0BIXShbQ0gyXVtDSDJdNClbQ0gyXVtDSF09QyhbQ0BASF01W0NAXTMoW0NIM10pW0NAQEhdMltDQEBdMTRbQ0gzXSlbQ0BIXTZbQ0BASF0oW0NIMl1bQ0gyXTUpQyhbQ0gzXSkoW0NIM10pW05IXVtDQEBIXTZjN25uW2NIXXM3

>  <s_epik_cmdline>  (199) 
J2VwaWtfcHl0aG9uJywgJy1waHQnLCAnMi4wJywgJy1waCcsICc3LjAnLCAnLXRuJywgJzgnLCAnLW1hJywgJzIwMCcsICctaW1hZScsICc8aW5maWxlLm1hZT4nLCAnLW9tYWUnLCAnPG91dGZpbGUubWFlPic=

>  <r_lp_tautomer_probability>  (199) 
1

>  <r_epik_Ionization_Penalty>  (199) 
2.17291

>  <r_epik_Ionization_Penalty_Charging>  (199) 
0

>  <r_epik_Ionization_Penalty_Neutral>  (199) 
2.17291

>  <r_epik_State_Penalty>  (199) 
2.31435

>  <r_epik_Charging_Adjusted_Penalty>  (199) 
2.31435

>  <i_epik_Tot_Q>  (199) 
0

>  <i_epik_Tot_abs_Q>  (199) 
0

>  <s_lp_Force_Field>  (199) 
OPLS3e

>  <r_lp_Energy>  (199) 
120.39

>  <b_lp_Chiralities_Consistent>  (199) 
1

>  <s_lp_Variant>  (199) 
52:0-2

>  <s_i_glide_gridfile>  (199) 
pfpi4k_grid

>  <i_i_glide_lignum>  (199) 
32

>  <i_i_glide_rotatable_bonds>  (199) 
1

>  <r_i_docking_score>  (199) 
-2.11825

>  <r_i_glide_ligand_efficiency>  (199) 
-0.0623015

>  <r_i_glide_ligand_efficiency_sa>  (199) 
-0.201833

>  <r_i_glide_ligand_efficiency_ln>  (199) 
-0.467981

>  <r_i_glide_gscore>  (199) 
-2.11825

>  <r_i_glide_lipo>  (199) 
-0.190682

>  <r_i_glide_hbond>  (199) 
0

>  <r_i_glide_metal>  (199) 
-0

>  <r_i_glide_rewards>  (199) 
-0.13797

>  <r_i_glide_evdw>  (199) 
-27.1818

>  <r_i_glide_ecoul>  (199) 
-2.61481

>  <r_i_glide_erotb>  (199) 
0.0880819

>  <r_i_glide_esite>  (199) 
-0.126368

>  <r_i_glide_emodel>  (199) 
-33.0772

>  <r_i_glide_energy>  (199) 
-29.7967

>  <r_i_glide_einternal>  (199) 
0.108657

>  <r_i_glide_intrahb_reward>  (199) 
-0

>  <i_i_glide_confnum>  (199) 
1

>  <i_i_glide_posenum>  (199) 
39

>  <r_i_glide_eff_state_penalty>  (199) 
0

>  <ligand_id>  (199) 
52

>  <original_smiles>  (199) 
CC1CCC2(C)CCC3CC=C4C5C(c6nncs6)NC(C)(C)C5CCC4C4(C)C2C1CC34C

>  <smiles>  (199) 
[H]C1=C2C3([H])C([H])(c4nnc([H])s4)N([H])C(C([H])([H])[H])(C([H])([H])[H])C3([H])C([H])([H])C([H])([H])C2([H])C2(C([H])([H])[H])C3([H])C4([H])C([H])([H])C2(C([H])([H])[H])C([H])(C1([H])[H])C([H])([H])C([H])([H])C3(C([H])([H])[H])C([H])([H])C([H])([H])C4([H])C([H])([H])[H]

$$$$
54:0:0
     RDKit          3D

 50 55  0  0  1  0  0  0  0  0999 V2000
    9.7007   -3.0148    0.6531 C   0  0  0  0  0  0  0  0  0  0  0  0
    8.6417   -2.0865    0.3030 N   0  0  0  0  0  0  0  0  0  0  0  0
    7.3009   -2.6762    0.3332 C   0  0  2  0  0  0  0  0  0  0  0  0
    6.8294   -2.7919   -1.2283 C   0  0  0  0  0  0  0  0  0  0  0  0
    5.6747   -3.3946   -1.7227 C   0  0  0  0  0  0  0  0  0  0  0  0
    5.0660   -4.0862   -0.7455 C   0  0  0  0  0  0  0  0  0  0  0  0
    4.9706   -5.3205   -0.6639 O   0  0  0  0  0  0  0  0  0  0  0  0
    4.4393   -2.9883    0.1266 C   0  0  1  0  0  0  0  0  0  0  0  0
    4.9652   -3.7735    1.3304 C   0  0  0  0  0  0  0  0  0  0  0  0
    5.9372   -3.2075    2.0118 C   0  0  0  0  0  0  0  0  0  0  0  0
    6.4693   -1.8429    1.6217 C   0  0  1  0  0  0  0  0  0  0  0  0
    5.9472   -0.7837    0.6500 C   0  0  0  0  0  0  0  0  0  0  0  0
    4.8265   -1.3422   -0.1887 C   0  0  1  0  0  0  0  0  0  0  0  0
    5.1093   -0.7574   -1.4990 O   0  0  0  0  0  0  0  0  0  0  0  0
    4.5476   -1.4148   -2.5526 C   0  0  0  0  0  0  0  0  0  0  0  0
    3.7128   -0.7753   -3.4845 C   0  0  0  0  0  0  0  0  0  0  0  0
    3.8374    0.5430   -3.7863 O   0  0  0  0  0  0  0  0  0  0  0  0
    2.6381   -1.4758   -4.0311 C   0  0  0  0  0  0  0  0  0  0  0  0
    2.2646   -2.7061   -3.4652 C   0  0  0  0  0  0  0  0  0  0  0  0
    3.0855   -3.3076   -2.4940 C   0  0  0  0  0  0  0  0  0  0  0  0
    4.4612   -2.8020   -2.4698 C   0  0  0  0  0  0  0  0  0  0  0  0
    2.3908   -3.7069   -1.0965 C   0  0  0  0  0  0  0  0  0  0  0  0
    2.9721   -2.8859    0.1212 C   0  0  1  0  0  0  0  0  0  0  0  0
    2.6173   -2.5851    1.5551 N   0  0  0  0  0  0  0  0  0  0  0  0
    2.1101   -3.6806    2.3735 C   0  0  0  0  0  0  0  0  0  0  0  0
    3.5076   -1.5740    2.3232 C   0  0  0  0  0  0  0  0  0  0  0  0
    5.1397   -1.5214    2.6167 C   0  0  0  0  0  0  0  0  0  0  0  0
    5.4151   -1.0445    3.7184 O   0  0  0  0  0  0  0  0  0  0  0  0
   10.6671   -2.5230    0.5225 H   0  0  0  0  0  0  0  0  0  0  0  0
    9.6612   -3.8644   -0.0277 H   0  0  0  0  0  0  0  0  0  0  0  0
    9.6287   -3.3727    1.6792 H   0  0  0  0  0  0  0  0  0  0  0  0
    8.8998   -1.7513   -0.6154 H   0  0  0  0  0  0  0  0  0  0  0  0
    7.4936   -3.7223    0.5862 H   0  0  0  0  0  0  0  0  0  0  0  0
    7.2213   -2.0081   -1.8499 H   0  0  0  0  0  0  0  0  0  0  0  0
    4.6069   -4.7554    1.6039 H   0  0  0  0  0  0  0  0  0  0  0  0
    6.3588   -3.7520    2.8379 H   0  0  0  0  0  0  0  0  0  0  0  0
    5.6190    0.1583    1.1042 H   0  0  0  0  0  0  0  0  0  0  0  0
    6.7587   -0.3884    0.0455 H   0  0  0  0  0  0  0  0  0  0  0  0
    4.0147   -0.6608    0.0674 H   0  0  0  0  0  0  0  0  0  0  0  0
    3.0952    1.0752   -3.5139 H   0  0  0  0  0  0  0  0  0  0  0  0
    1.9728   -0.9708   -4.7168 H   0  0  0  0  0  0  0  0  0  0  0  0
    1.2421   -3.0251   -3.6009 H   0  0  0  0  0  0  0  0  0  0  0  0
    1.3257   -3.4799   -1.1807 H   0  0  0  0  0  0  0  0  0  0  0  0
    2.4415   -4.7785   -0.9203 H   0  0  0  0  0  0  0  0  0  0  0  0
    2.6151   -1.9498   -0.2809 H   0  0  0  0  0  0  0  0  0  0  0  0
    1.5218   -3.2690    3.1960 H   0  0  0  0  0  0  0  0  0  0  0  0
    2.8814   -4.3148    2.8108 H   0  0  0  0  0  0  0  0  0  0  0  0
    1.4507   -4.3231    1.7921 H   0  0  0  0  0  0  0  0  0  0  0  0
    3.2553   -0.5922    1.9276 H   0  0  0  0  0  0  0  0  0  0  0  0
    3.0656   -1.5303    3.3223 H   0  0  0  0  0  0  0  0  0  0  0  0
  1  2  1  0
  1 29  1  0
  1 30  1  0
  1 31  1  0
  2  3  1  0
  2 32  1  0
  3 11  1  0
  3  4  1  0
  3 33  1  1
  4  5  2  3
  4 34  1  0
  5 21  1  0
  5  6  1  0
  6  7  2  0
  6  8  1  0
  8 13  1  0
  8 23  1  0
  8  9  1  1
  9 10  2  0
  9 35  1  0
 10 11  1  0
 10 36  1  0
 11 27  1  6
 11 12  1  0
 12 13  1  0
 12 37  1  0
 12 38  1  0
 13 14  1  0
 13 39  1  1
 14 15  1  0
 15 21  2  0
 15 16  1  0
 16 17  1  0
 16 18  2  0
 17 40  1  0
 18 19  1  0
 18 41  1  0
 19 20  2  0
 19 42  1  0
 20 21  1  0
 20 22  1  0
 22 23  1  0
 22 43  1  0
 22 44  1  0
 23 24  1  0
 23 45  1  6
 24 25  1  0
 24 26  1  0
 25 46  1  0
 25 47  1  0
 25 48  1  0
 26 27  1  0
 26 49  1  0
 26 50  1  0
 27 28  2  0
M  END
>  <i_m_ct_stereo_status>  (200) 
1

>  <s_m_source_file>  (200) 
/var/tmp/pbs.5076255.sched01/tmpqwfmwtcs/46j3o47u_k.sdf

>  <i_m_source_file_index>  (200) 
34

>  <i_lp_mmshare_version>  (200) 
48012

>  <i_f3d_flags>  (200) 
0

>  <s_epik_input>  (200) 
W0NAXTEyM1tDQEhdNFtDSDJdQzUoW0NIXT1bQ0hdMilbQ0BIXShbTkhdW0NIM10pL1tDSF09QyhcQzE9TyljNmMoTzQpYyhbT0hdKVtjSF1bY0hdYzZbQ0gyXVtDQEhdM04oW0NIM10pW0NIMl1DNT1P

>  <s_epik_cmdline>  (200) 
J2VwaWtfcHl0aG9uJywgJy1waHQnLCAnMi4wJywgJy1waCcsICc3LjAnLCAnLXRuJywgJzgnLCAnLW1hJywgJzIwMCcsICctaW1hZScsICc8aW5maWxlLm1hZT4nLCAnLW9tYWUnLCAnPG91dGZpbGUubWFlPic=

>  <r_epik_Ionization_Penalty>  (200) 
0.220773

>  <r_epik_Ionization_Penalty_Charging>  (200) 
0

>  <r_epik_Ionization_Penalty_Neutral>  (200) 
0.220773

>  <r_epik_State_Penalty>  (200) 
0.194332

>  <r_epik_Charging_Adjusted_Penalty>  (200) 
0.194332

>  <i_epik_Tot_Q>  (200) 
0

>  <i_epik_Tot_abs_Q>  (200) 
0

>  <s_lp_Force_Field>  (200) 
OPLS3e

>  <r_lp_Energy>  (200) 
497.602

>  <b_lp_Chiralities_Consistent>  (200) 
1

>  <s_lp_Variant>  (200) 
54:0-1

>  <s_i_glide_gridfile>  (200) 
pfpi4k_grid

>  <i_i_glide_lignum>  (200) 
34

>  <i_i_glide_rotatable_bonds>  (200) 
2

>  <r_i_docking_score>  (200) 
-3.91111

>  <r_i_glide_ligand_efficiency>  (200) 
-0.139683

>  <r_i_glide_ligand_efficiency_sa>  (200) 
-0.424159

>  <r_i_glide_ligand_efficiency_ln>  (200) 
-0.9028

>  <r_i_glide_gscore>  (200) 
-3.91111

>  <r_i_glide_lipo>  (200) 
-1.10161

>  <r_i_glide_hbond>  (200) 
0

>  <r_i_glide_metal>  (200) 
-0

>  <r_i_glide_rewards>  (200) 
-1.01942

>  <r_i_glide_evdw>  (200) 
-25.4087

>  <r_i_glide_ecoul>  (200) 
-3.46433

>  <r_i_glide_erotb>  (200) 
0

>  <r_i_glide_esite>  (200) 
0

>  <r_i_glide_emodel>  (200) 
-30.0215

>  <r_i_glide_energy>  (200) 
-28.873

>  <r_i_glide_einternal>  (200) 
7.55739

>  <r_i_glide_intrahb_reward>  (200) 
-0

>  <i_i_glide_confnum>  (200) 
2

>  <i_i_glide_posenum>  (200) 
26

>  <r_i_glide_eff_state_penalty>  (200) 
0

>  <ligand_id>  (200) 
54

>  <original_smiles>  (200) 
CNC1C=C2C(=O)C34C=CC15CC3Oc1c(O)ccc(c12)CC4N(C)CC5=O

>  <smiles>  (200) 
[H]Oc1c([H])c([H])c2c3c1OC1([H])C([H])([H])C45C(=O)C([H])([H])N(C([H])([H])[H])C([H])(C2([H])[H])C1(C(=O)C3=C([H])C4([H])N([H])C([H])([H])[H])C([H])=C5[H]

$$$$
54:0:1
     RDKit          3D

 50 55  0  0  1  0  0  0  0  0999 V2000
    8.9116   -1.8204    0.0676 C   0  0  0  0  0  0  0  0  0  0  0  0
    8.5078   -3.0526    0.7306 N   0  0  0  0  0  0  0  0  0  0  0  0
    7.0779   -3.3810    0.7375 C   0  0  2  0  0  0  0  0  0  0  0  0
    6.5954   -3.4952   -0.8237 C   0  0  0  0  0  0  0  0  0  0  0  0
    5.3765   -3.9636   -1.2980 C   0  0  0  0  0  0  0  0  0  0  0  0
    4.6852   -4.5652   -0.3130 C   0  0  0  0  0  0  0  0  0  0  0  0
    4.4195   -5.7767   -0.2210 O   0  0  0  0  0  0  0  0  0  0  0  0
    4.2055   -3.3849    0.5320 C   0  0  1  0  0  0  0  0  0  0  0  0
    4.6456   -4.2034    1.7602 C   0  0  0  0  0  0  0  0  0  0  0  0
    5.6731   -3.7386    2.4454 C   0  0  0  0  0  0  0  0  0  0  0  0
    6.3348   -2.4376    2.0029 C   0  0  1  0  0  0  0  0  0  0  0  0
    5.8967   -1.3571    1.0302 C   0  0  0  0  0  0  0  0  0  0  0  0
    4.7752   -1.7969    0.1686 C   0  0  1  0  0  0  0  0  0  0  0  0
    5.1818   -1.2733   -1.1541 O   0  0  0  0  0  0  0  0  0  0  0  0
    4.6021   -1.8623   -2.2314 C   0  0  0  0  0  0  0  0  0  0  0  0
    3.9010   -1.1497   -3.2209 C   0  0  0  0  0  0  0  0  0  0  0  0
    4.1938    0.1490   -3.4913 O   0  0  0  0  0  0  0  0  0  0  0  0
    2.7585   -1.7241   -3.8080 C   0  0  0  0  0  0  0  0  0  0  0  0
    2.1756   -2.8225   -3.1592 C   0  0  0  0  0  0  0  0  0  0  0  0
    2.8706   -3.4580   -2.1120 C   0  0  0  0  0  0  0  0  0  0  0  0
    4.3017   -3.2084   -2.0912 C   0  0  0  0  0  0  0  0  0  0  0  0
    2.1260   -3.8210   -0.7525 C   0  0  0  0  0  0  0  0  0  0  0  0
    2.7725   -3.0848    0.4863 C   0  0  1  0  0  0  0  0  0  0  0  0
    2.4539   -2.6737    1.8886 N   0  0  0  0  0  0  0  0  0  0  0  0
    1.7851   -3.6559    2.7301 C   0  0  0  0  0  0  0  0  0  0  0  0
    3.4465   -1.7700    2.6517 C   0  0  0  0  0  0  0  0  0  0  0  0
    5.0543   -1.9435    2.9743 C   0  0  0  0  0  0  0  0  0  0  0  0
    5.3942   -1.4636    4.0553 O   0  0  0  0  0  0  0  0  0  0  0  0
    9.9570   -1.7220    0.2063 H   0  0  0  0  0  0  0  0  0  0  0  0
    8.5470   -0.9008    0.5292 H   0  0  0  0  0  0  0  0  0  0  0  0
    8.7245   -1.8279   -1.0033 H   0  0  0  0  0  0  0  0  0  0  0  0
    8.8363   -3.0001    1.6898 H   0  0  0  0  0  0  0  0  0  0  0  0
    7.2031   -4.4264    1.0587 H   0  0  0  0  0  0  0  0  0  0  0  0
    7.0751   -2.8351   -1.5179 H   0  0  0  0  0  0  0  0  0  0  0  0
    4.1445   -5.1183    2.0559 H   0  0  0  0  0  0  0  0  0  0  0  0
    6.0499   -4.2676    3.3194 H   0  0  0  0  0  0  0  0  0  0  0  0
    5.7442   -0.3644    1.4705 H   0  0  0  0  0  0  0  0  0  0  0  0
    6.6435   -1.0754    0.3277 H   0  0  0  0  0  0  0  0  0  0  0  0
    4.0550   -1.0055    0.3768 H   0  0  0  0  0  0  0  0  0  0  0  0
    4.3706    0.6476   -2.7115 H   0  0  0  0  0  0  0  0  0  0  0  0
    2.1764   -1.1445   -4.5013 H   0  0  0  0  0  0  0  0  0  0  0  0
    1.1182   -3.0279   -3.2931 H   0  0  0  0  0  0  0  0  0  0  0  0
    1.1135   -3.4620   -0.8915 H   0  0  0  0  0  0  0  0  0  0  0  0
    2.0447   -4.8990   -0.6224 H   0  0  0  0  0  0  0  0  0  0  0  0
    2.5437   -2.1207    0.0514 H   0  0  0  0  0  0  0  0  0  0  0  0
    1.2370   -3.1433    3.5171 H   0  0  0  0  0  0  0  0  0  0  0  0
    2.4507   -4.3781    3.1859 H   0  0  0  0  0  0  0  0  0  0  0  0
    1.0689   -4.2319    2.1599 H   0  0  0  0  0  0  0  0  0  0  0  0
    3.3470   -0.7731    2.2259 H   0  0  0  0  0  0  0  0  0  0  0  0
    2.9954   -1.6237    3.6328 H   0  0  0  0  0  0  0  0  0  0  0  0
  1  2  1  0
  1 29  1  0
  1 30  1  0
  1 31  1  0
  2  3  1  0
  2 32  1  0
  3 11  1  0
  3  4  1  0
  3 33  1  1
  4  5  2  3
  4 34  1  0
  5 21  1  0
  5  6  1  0
  6  7  2  0
  6  8  1  0
  8 13  1  0
  8 23  1  0
  8  9  1  1
  9 10  2  0
  9 35  1  0
 10 11  1  0
 10 36  1  0
 11 27  1  6
 11 12  1  0
 12 13  1  0
 12 37  1  0
 12 38  1  0
 13 14  1  0
 13 39  1  1
 14 15  1  0
 15 21  2  0
 15 16  1  0
 16 17  1  0
 16 18  2  0
 17 40  1  0
 18 19  1  0
 18 41  1  0
 19 20  2  0
 19 42  1  0
 20 21  1  0
 20 22  1  0
 22 23  1  0
 22 43  1  0
 22 44  1  0
 23 24  1  0
 23 45  1  6
 24 25  1  0
 24 26  1  0
 25 46  1  0
 25 47  1  0
 25 48  1  0
 26 27  1  0
 26 49  1  0
 26 50  1  0
 27 28  2  0
M  END
>  <i_m_ct_stereo_status>  (201) 
1

>  <s_m_source_file>  (201) 
/var/tmp/pbs.5076255.sched01/tmpqwfmwtcs/46j3o47u_k.sdf

>  <i_m_source_file_index>  (201) 
34

>  <i_lp_mmshare_version>  (201) 
48012

>  <i_f3d_flags>  (201) 
0

>  <s_epik_input>  (201) 
W0NAXTEyM1tDQEhdNFtDSDJdQzUoW0NIXT1bQ0hdMilbQ0BIXShbTkhdW0NIM10pL1tDSF09QyhcQzE9TyljNmMoTzQpYyhbT0hdKVtjSF1bY0hdYzZbQ0gyXVtDQEhdM04oW0NIM10pW0NIMl1DNT1P

>  <s_epik_cmdline>  (201) 
J2VwaWtfcHl0aG9uJywgJy1waHQnLCAnMi4wJywgJy1waCcsICc3LjAnLCAnLXRuJywgJzgnLCAnLW1hJywgJzIwMCcsICctaW1hZScsICc8aW5maWxlLm1hZT4nLCAnLW9tYWUnLCAnPG91dGZpbGUubWFlPic=

>  <r_epik_Ionization_Penalty>  (201) 
0.220773

>  <r_epik_Ionization_Penalty_Charging>  (201) 
0

>  <r_epik_Ionization_Penalty_Neutral>  (201) 
0.220773

>  <r_epik_State_Penalty>  (201) 
0.194332

>  <r_epik_Charging_Adjusted_Penalty>  (201) 
0.194332

>  <i_epik_Tot_Q>  (201) 
0

>  <i_epik_Tot_abs_Q>  (201) 
0

>  <s_lp_Force_Field>  (201) 
OPLS3e

>  <r_lp_Energy>  (201) 
497.602

>  <b_lp_Chiralities_Consistent>  (201) 
1

>  <s_lp_Variant>  (201) 
54:0-1

>  <s_i_glide_gridfile>  (201) 
pfpi4k_grid

>  <i_i_glide_lignum>  (201) 
34

>  <i_i_glide_rotatable_bonds>  (201) 
2

>  <r_i_docking_score>  (201) 
-2.95688

>  <r_i_glide_ligand_efficiency>  (201) 
-0.105603

>  <r_i_glide_ligand_efficiency_sa>  (201) 
-0.320672

>  <r_i_glide_ligand_efficiency_ln>  (201) 
-0.682534

>  <r_i_glide_gscore>  (201) 
-2.95688

>  <r_i_glide_lipo>  (201) 
-0.920773

>  <r_i_glide_hbond>  (201) 
0

>  <r_i_glide_metal>  (201) 
-0

>  <r_i_glide_rewards>  (201) 
-0.92861

>  <r_i_glide_evdw>  (201) 
-17.8059

>  <r_i_glide_ecoul>  (201) 
-1.43214

>  <r_i_glide_erotb>  (201) 
0

>  <r_i_glide_esite>  (201) 
-0.00237857

>  <r_i_glide_emodel>  (201) 
-15.7368

>  <r_i_glide_energy>  (201) 
-19.238

>  <r_i_glide_einternal>  (201) 
10.9772

>  <r_i_glide_intrahb_reward>  (201) 
-0

>  <i_i_glide_confnum>  (201) 
2

>  <i_i_glide_posenum>  (201) 
21

>  <r_i_glide_eff_state_penalty>  (201) 
0

>  <ligand_id>  (201) 
54

>  <original_smiles>  (201) 
CNC1C=C2C(=O)C34C=CC15CC3Oc1c(O)ccc(c12)CC4N(C)CC5=O

>  <smiles>  (201) 
[H]Oc1c([H])c([H])c2c3c1OC1([H])C([H])([H])C45C(=O)C([H])([H])N(C([H])([H])[H])C([H])(C2([H])[H])C1(C(=O)C3=C([H])C4([H])N([H])C([H])([H])[H])C([H])=C5[H]

$$$$
54:1:0
     RDKit          3D

 50 55  0  0  1  0  0  0  0  0999 V2000
    2.5873   -3.1788   -2.1925 C   0  0  0  0  0  0  0  0  0  0  0  0
    2.6187   -2.6593   -0.8288 N   0  0  0  0  0  0  0  0  0  0  0  0
    3.9112   -2.1407   -0.4154 C   0  0  2  0  0  0  0  0  0  0  0  0
    5.1736   -3.0887   -0.8304 C   0  0  0  0  0  0  0  0  0  0  0  0
    5.7400   -4.2432   -0.2592 C   0  0  0  0  0  0  0  0  0  0  0  0
    6.8224   -3.8806    0.6058 C   0  0  0  0  0  0  0  0  0  0  0  0
    8.0265   -4.0236    0.3833 O   0  0  0  0  0  0  0  0  0  0  0  0
    6.3067   -3.2486    1.8950 C   0  0  2  0  0  0  0  0  0  0  0  0
    6.4965   -1.7023    1.3580 C   0  0  0  0  0  0  0  0  0  0  0  0
    5.4189   -0.8722    0.9006 C   0  0  0  0  0  0  0  0  0  0  0  0
    3.7982   -1.2962    1.0550 C   0  0  1  0  0  0  0  0  0  0  0  0
    4.3892   -1.4502    2.4319 C   0  0  0  0  0  0  0  0  0  0  0  0
    4.9400   -2.9136    1.9668 C   0  0  1  0  0  0  0  0  0  0  0  0
    3.8318   -3.8361    1.3441 O   0  0  0  0  0  0  0  0  0  0  0  0
    3.8600   -5.0582    0.8204 C   0  0  0  0  0  0  0  0  0  0  0  0
    2.9209   -6.0679    1.1066 C   0  0  0  0  0  0  0  0  0  0  0  0
    1.5997   -5.7830    1.3160 O   0  0  0  0  0  0  0  0  0  0  0  0
    3.4068   -7.3678    1.2854 C   0  0  0  0  0  0  0  0  0  0  0  0
    4.8035   -7.5378    1.4444 C   0  0  0  0  0  0  0  0  0  0  0  0
    5.6845   -6.4213    1.3029 C   0  0  0  0  0  0  0  0  0  0  0  0
    5.1153   -5.4019    0.4951 C   0  0  0  0  0  0  0  0  0  0  0  0
    6.1075   -5.7717    2.6695 C   0  0  0  0  0  0  0  0  0  0  0  0
    5.6014   -4.3210    3.1189 C   0  0  2  0  0  0  0  0  0  0  0  0
    4.0662   -4.1885    3.7740 N   0  0  0  0  0  0  0  0  0  0  0  0
    3.7341   -5.2198    4.7389 C   0  0  0  0  0  0  0  0  0  0  0  0
    2.8076   -3.1732    3.4292 C   0  0  0  0  0  0  0  0  0  0  0  0
    2.5736   -1.9240    2.1744 C   0  0  0  0  0  0  0  0  0  0  0  0
    1.4271   -1.4930    2.0688 O   0  0  0  0  0  0  0  0  0  0  0  0
    1.5745   -3.5018   -2.4238 H   0  0  0  0  0  0  0  0  0  0  0  0
    3.2547   -4.0268   -2.2721 H   0  0  0  0  0  0  0  0  0  0  0  0
    2.8909   -2.4238   -2.9112 H   0  0  0  0  0  0  0  0  0  0  0  0
    1.8910   -1.9103   -0.7256 H   0  0  0  0  0  0  0  0  0  0  0  0
    4.0309   -1.3235   -1.1333 H   0  0  0  0  0  0  0  0  0  0  0  0
    5.9369   -2.4218   -1.2022 H   0  0  0  0  0  0  0  0  0  0  0  0
    7.5122   -1.3362    1.2882 H   0  0  0  0  0  0  0  0  0  0  0  0
    5.6234    0.1135    0.5243 H   0  0  0  0  0  0  0  0  0  0  0  0
    5.0329   -0.6272    2.8769 H   0  0  0  0  0  0  0  0  0  0  0  0
    3.9990   -1.1306    3.4625 H   0  0  0  0  0  0  0  0  0  0  0  0
    5.1128   -2.4422    2.9700 H   0  0  0  0  0  0  0  0  0  0  0  0
    1.1488   -6.5252    1.6802 H   0  0  0  0  0  0  0  0  0  0  0  0
    2.7257   -8.1633    1.5348 H   0  0  0  0  0  0  0  0  0  0  0  0
    5.1161   -8.4242    1.9700 H   0  0  0  0  0  0  0  0  0  0  0  0
    5.8710   -6.4700    3.4650 H   0  0  0  0  0  0  0  0  0  0  0  0
    7.2005   -5.7554    2.6443 H   0  0  0  0  0  0  0  0  0  0  0  0
    6.1915   -4.1441    4.0151 H   0  0  0  0  0  0  0  0  0  0  0  0
    2.9623   -4.8756    5.4295 H   0  0  0  0  0  0  0  0  0  0  0  0
    4.6010   -5.5015    5.3406 H   0  0  0  0  0  0  0  0  0  0  0  0
    3.3619   -6.1196    4.2435 H   0  0  0  0  0  0  0  0  0  0  0  0
    1.9774   -3.8552    3.2528 H   0  0  0  0  0  0  0  0  0  0  0  0
    2.5681   -2.6776    4.3652 H   0  0  0  0  0  0  0  0  0  0  0  0
  1  2  1  0
  1 29  1  0
  1 30  1  0
  1 31  1  0
  2  3  1  0
  2 32  1  0
  3 11  1  0
  3  4  1  0
  3 33  1  6
  4  5  2  3
  4 34  1  0
  5 21  1  0
  5  6  1  0
  6  7  2  0
  6  8  1  0
  8 13  1  0
  8 23  1  0
  8  9  1  1
  9 10  2  0
  9 35  1  0
 10 11  1  0
 10 36  1  0
 11 27  1  6
 11 12  1  0
 12 13  1  0
 12 37  1  0
 12 38  1  0
 13 14  1  0
 13 39  1  1
 14 15  1  0
 15 21  2  0
 15 16  1  0
 16 17  1  0
 16 18  2  0
 17 40  1  0
 18 19  1  0
 18 41  1  0
 19 20  2  0
 19 42  1  0
 20 21  1  0
 20 22  1  0
 22 23  1  0
 22 43  1  0
 22 44  1  0
 23 24  1  0
 23 45  1  1
 24 25  1  0
 24 26  1  0
 25 46  1  0
 25 47  1  0
 25 48  1  0
 26 27  1  0
 26 49  1  0
 26 50  1  0
 27 28  2  0
M  END
>  <i_m_ct_stereo_status>  (202) 
1

>  <s_m_source_file>  (202) 
/var/tmp/pbs.5076255.sched01/tmpqwfmwtcs/46j3o47u_k.sdf

>  <i_m_source_file_index>  (202) 
35

>  <i_lp_mmshare_version>  (202) 
48012

>  <i_f3d_flags>  (202) 
2

>  <s_epik_input>  (202) 
W0NAXTEyM1tDQEhdNFtDSDJdQzUoW0NIXT1bQ0hdMilbQ0BIXShbTkhdW0NIM10pL1tDSF09QyhcQzE9TyljNmMoTzQpYyhbT0hdKVtjSF1bY0hdYzZbQ0gyXVtDQEhdM04oW0NIM10pW0NIMl1DNT1P

>  <s_epik_cmdline>  (202) 
J2VwaWtfcHl0aG9uJywgJy1waHQnLCAnMi4wJywgJy1waCcsICc3LjAnLCAnLXRuJywgJzgnLCAnLW1hJywgJzIwMCcsICctaW1hZScsICc8aW5maWxlLm1hZT4nLCAnLW9tYWUnLCAnPG91dGZpbGUubWFlPic=

>  <r_epik_Ionization_Penalty>  (202) 
0.220773

>  <r_epik_Ionization_Penalty_Charging>  (202) 
0

>  <r_epik_Ionization_Penalty_Neutral>  (202) 
0.220773

>  <r_epik_State_Penalty>  (202) 
0.194332

>  <r_epik_Charging_Adjusted_Penalty>  (202) 
0.194332

>  <i_epik_Tot_Q>  (202) 
0

>  <i_epik_Tot_abs_Q>  (202) 
0

>  <s_lp_Force_Field>  (202) 
OPLS3e

>  <r_lp_Energy>  (202) 
878.103

>  <b_lp_Chiralities_Consistent>  (202) 
0

>  <s_lp_Variant>  (202) 
54:0-2

>  <s_i_glide_gridfile>  (202) 
pfpi4k_grid

>  <i_i_glide_lignum>  (202) 
35

>  <i_i_glide_rotatable_bonds>  (202) 
2

>  <r_i_docking_score>  (202) 
-3.69179

>  <r_i_glide_ligand_efficiency>  (202) 
-0.13185

>  <r_i_glide_ligand_efficiency_sa>  (202) 
-0.400373

>  <r_i_glide_ligand_efficiency_ln>  (202) 
-0.852173

>  <r_i_glide_gscore>  (202) 
-3.69179

>  <r_i_glide_lipo>  (202) 
-0.860842

>  <r_i_glide_hbond>  (202) 
-0.138194

>  <r_i_glide_metal>  (202) 
-0

>  <r_i_glide_rewards>  (202) 
-0.985099

>  <r_i_glide_evdw>  (202) 
-19.0863

>  <r_i_glide_ecoul>  (202) 
-4.9016

>  <r_i_glide_erotb>  (202) 
0

>  <r_i_glide_esite>  (202) 
-0.0180968

>  <r_i_glide_emodel>  (202) 
-30.481

>  <r_i_glide_energy>  (202) 
-23.988

>  <r_i_glide_einternal>  (202) 
0.0573607

>  <r_i_glide_intrahb_reward>  (202) 
-0

>  <i_i_glide_confnum>  (202) 
2

>  <i_i_glide_posenum>  (202) 
3

>  <r_i_glide_eff_state_penalty>  (202) 
0

>  <ligand_id>  (202) 
54

>  <original_smiles>  (202) 
CNC1C=C2C(=O)C34C=CC15CC3Oc1c(O)ccc(c12)CC4N(C)CC5=O

>  <smiles>  (202) 
[H]Oc1c([H])c([H])c2c3c1OC1([H])C([H])([H])C45C(=O)C([H])([H])N(C([H])([H])[H])C([H])(C2([H])[H])C1(C(=O)C3=C([H])C4([H])N([H])C([H])([H])[H])C([H])=C5[H]

$$$$
54:1:1
     RDKit          3D

 50 55  0  0  1  0  0  0  0  0999 V2000
    2.5470    1.1202    2.2279 C   0  0  0  0  0  0  0  0  0  0  0  0
    3.0072    1.9485    3.3259 N   0  0  0  0  0  0  0  0  0  0  0  0
    3.0279    1.2841    4.6295 C   0  0  2  0  0  0  0  0  0  0  0  0
    1.7587    0.2866    4.8968 C   0  0  0  0  0  0  0  0  0  0  0  0
    0.4314    0.4947    5.3334 C   0  0  0  0  0  0  0  0  0  0  0  0
    0.3541    0.3182    6.7529 C   0  0  0  0  0  0  0  0  0  0  0  0
   -0.1925   -0.6224    7.3342 O   0  0  0  0  0  0  0  0  0  0  0  0
    1.0057    1.4819    7.5118 C   0  0  2  0  0  0  0  0  0  0  0  0
    2.4402    0.7145    7.7177 C   0  0  0  0  0  0  0  0  0  0  0  0
    3.6197    0.9774    6.9123 C   0  0  0  0  0  0  0  0  0  0  0  0
    3.7259    2.2619    5.8292 C   0  0  1  0  0  0  0  0  0  0  0  0
    3.2747    2.8785    7.1273 C   0  0  0  0  0  0  0  0  0  0  0  0
    1.7483    2.4083    6.7506 C   0  0  1  0  0  0  0  0  0  0  0  0
    1.2917    2.8689    5.3190 O   0  0  0  0  0  0  0  0  0  0  0  0
    0.1700    2.6884    4.6194 C   0  0  0  0  0  0  0  0  0  0  0  0
   -0.4921    3.6885    3.8946 C   0  0  0  0  0  0  0  0  0  0  0  0
    0.1875    4.6971    3.2799 O   0  0  0  0  0  0  0  0  0  0  0  0
   -1.8916    3.7142    3.9582 C   0  0  0  0  0  0  0  0  0  0  0  0
   -2.5085    2.9262    4.9540 C   0  0  0  0  0  0  0  0  0  0  0  0
   -1.7285    2.0397    5.7529 C   0  0  0  0  0  0  0  0  0  0  0  0
   -0.5205    1.6498    5.1029 C   0  0  0  0  0  0  0  0  0  0  0  0
   -1.3796    2.5977    7.1782 C   0  0  0  0  0  0  0  0  0  0  0  0
    0.1122    3.0142    7.5848 C   0  0  2  0  0  0  0  0  0  0  0  0
    0.6722    4.5077    7.0614 N   0  0  0  0  0  0  0  0  0  0  0  0
   -0.2729    5.5955    7.2177 C   0  0  0  0  0  0  0  0  0  0  0  0
    2.0618    4.9487    6.2779 C   0  0  0  0  0  0  0  0  0  0  0  0
    3.4282    3.9997    5.6026 C   0  0  0  0  0  0  0  0  0  0  0  0
    4.2207    4.6180    4.9060 O   0  0  0  0  0  0  0  0  0  0  0  0
    2.6010    1.6963    1.3057 H   0  0  0  0  0  0  0  0  0  0  0  0
    1.5059    0.8183    2.3557 H   0  0  0  0  0  0  0  0  0  0  0  0
    3.1687    0.2313    2.1172 H   0  0  0  0  0  0  0  0  0  0  0  0
    3.9191    2.3672    3.1002 H   0  0  0  0  0  0  0  0  0  0  0  0
    3.8149    0.5464    4.4465 H   0  0  0  0  0  0  0  0  0  0  0  0
    2.1794   -0.6115    5.3295 H   0  0  0  0  0  0  0  0  0  0  0  0
    2.4649   -0.0905    8.4347 H   0  0  0  0  0  0  0  0  0  0  0  0
    4.5063    0.3944    7.0583 H   0  0  0  0  0  0  0  0  0  0  0  0
    3.8096    2.6291    8.0974 H   0  0  0  0  0  0  0  0  0  0  0  0
    3.6189    3.8243    7.6793 H   0  0  0  0  0  0  0  0  0  0  0  0
    2.0615    2.9399    7.6859 H   0  0  0  0  0  0  0  0  0  0  0  0
    0.2136    4.5898    2.3080 H   0  0  0  0  0  0  0  0  0  0  0  0
   -2.4320    4.4805    3.4334 H   0  0  0  0  0  0  0  0  0  0  0  0
   -3.4936    3.2268    5.2725 H   0  0  0  0  0  0  0  0  0  0  0  0
   -2.0355    3.4429    7.3747 H   0  0  0  0  0  0  0  0  0  0  0  0
   -1.7157    1.8269    7.8751 H   0  0  0  0  0  0  0  0  0  0  0  0
    0.0312    3.2077    8.6541 H   0  0  0  0  0  0  0  0  0  0  0  0
    0.2431    6.5546    7.2880 H   0  0  0  0  0  0  0  0  0  0  0  0
   -0.8708    5.4762    8.1240 H   0  0  0  0  0  0  0  0  0  0  0  0
   -0.9494    5.6378    6.3625 H   0  0  0  0  0  0  0  0  0  0  0  0
    1.7037    5.5081    5.4142 H   0  0  0  0  0  0  0  0  0  0  0  0
    2.5282    5.6979    6.9138 H   0  0  0  0  0  0  0  0  0  0  0  0
  1  2  1  0
  1 29  1  0
  1 30  1  0
  1 31  1  0
  2  3  1  0
  2 32  1  0
  3 11  1  0
  3  4  1  0
  3 33  1  6
  4  5  2  3
  4 34  1  0
  5 21  1  0
  5  6  1  0
  6  7  2  0
  6  8  1  0
  8 13  1  0
  8 23  1  0
  8  9  1  1
  9 10  2  0
  9 35  1  0
 10 11  1  0
 10 36  1  0
 11 27  1  1
 11 12  1  0
 12 13  1  0
 12 37  1  0
 12 38  1  0
 13 14  1  0
 13 39  1  1
 14 15  1  0
 15 21  2  0
 15 16  1  0
 16 17  1  0
 16 18  2  0
 17 40  1  0
 18 19  1  0
 18 41  1  0
 19 20  2  0
 19 42  1  0
 20 21  1  0
 20 22  1  0
 22 23  1  0
 22 43  1  0
 22 44  1  0
 23 24  1  0
 23 45  1  1
 24 25  1  0
 24 26  1  0
 25 46  1  0
 25 47  1  0
 25 48  1  0
 26 27  1  0
 26 49  1  0
 26 50  1  0
 27 28  2  0
M  END
>  <i_m_ct_stereo_status>  (203) 
1

>  <s_m_source_file>  (203) 
/var/tmp/pbs.5076255.sched01/tmpqwfmwtcs/46j3o47u_k.sdf

>  <i_m_source_file_index>  (203) 
35

>  <i_lp_mmshare_version>  (203) 
48012

>  <i_f3d_flags>  (203) 
2

>  <s_epik_input>  (203) 
W0NAXTEyM1tDQEhdNFtDSDJdQzUoW0NIXT1bQ0hdMilbQ0BIXShbTkhdW0NIM10pL1tDSF09QyhcQzE9TyljNmMoTzQpYyhbT0hdKVtjSF1bY0hdYzZbQ0gyXVtDQEhdM04oW0NIM10pW0NIMl1DNT1P

>  <s_epik_cmdline>  (203) 
J2VwaWtfcHl0aG9uJywgJy1waHQnLCAnMi4wJywgJy1waCcsICc3LjAnLCAnLXRuJywgJzgnLCAnLW1hJywgJzIwMCcsICctaW1hZScsICc8aW5maWxlLm1hZT4nLCAnLW9tYWUnLCAnPG91dGZpbGUubWFlPic=

>  <r_epik_Ionization_Penalty>  (203) 
0.220773

>  <r_epik_Ionization_Penalty_Charging>  (203) 
0

>  <r_epik_Ionization_Penalty_Neutral>  (203) 
0.220773

>  <r_epik_State_Penalty>  (203) 
0.194332

>  <r_epik_Charging_Adjusted_Penalty>  (203) 
0.194332

>  <i_epik_Tot_Q>  (203) 
0

>  <i_epik_Tot_abs_Q>  (203) 
0

>  <s_lp_Force_Field>  (203) 
OPLS3e

>  <r_lp_Energy>  (203) 
878.103

>  <b_lp_Chiralities_Consistent>  (203) 
0

>  <s_lp_Variant>  (203) 
54:0-2

>  <s_i_glide_gridfile>  (203) 
pfpi4k_grid

>  <i_i_glide_lignum>  (203) 
35

>  <i_i_glide_rotatable_bonds>  (203) 
2

>  <r_i_docking_score>  (203) 
-3.26547

>  <r_i_glide_ligand_efficiency>  (203) 
-0.116624

>  <r_i_glide_ligand_efficiency_sa>  (203) 
-0.354139

>  <r_i_glide_ligand_efficiency_ln>  (203) 
-0.753767

>  <r_i_glide_gscore>  (203) 
-3.26547

>  <r_i_glide_lipo>  (203) 
-0.0262481

>  <r_i_glide_hbond>  (203) 
-0.30526

>  <r_i_glide_metal>  (203) 
-0

>  <r_i_glide_rewards>  (203) 
-0.828947

>  <r_i_glide_evdw>  (203) 
-14.558

>  <r_i_glide_ecoul>  (203) 
-9.07968

>  <r_i_glide_erotb>  (203) 
0

>  <r_i_glide_esite>  (203) 
-0.0151659

>  <r_i_glide_emodel>  (203) 
-27.5994

>  <r_i_glide_energy>  (203) 
-23.6377

>  <r_i_glide_einternal>  (203) 
3.13391

>  <r_i_glide_intrahb_reward>  (203) 
-0

>  <i_i_glide_confnum>  (203) 
1

>  <i_i_glide_posenum>  (203) 
2

>  <r_i_glide_eff_state_penalty>  (203) 
0

>  <ligand_id>  (203) 
54

>  <original_smiles>  (203) 
CNC1C=C2C(=O)C34C=CC15CC3Oc1c(O)ccc(c12)CC4N(C)CC5=O

>  <smiles>  (203) 
[H]Oc1c([H])c([H])c2c3c1OC1([H])C([H])([H])C45C(=O)C([H])([H])N(C([H])([H])[H])C([H])(C2([H])[H])C1(C(=O)C3=C([H])C4([H])N([H])C([H])([H])[H])C([H])=C5[H]

$$$$
54:1:2
     RDKit          3D

 50 55  0  0  1  0  0  0  0  0999 V2000
    3.3480   -2.9837   -2.2965 C   0  0  0  0  0  0  0  0  0  0  0  0
    2.9278   -3.2347   -0.9205 N   0  0  0  0  0  0  0  0  0  0  0  0
    3.8308   -4.1172   -0.1956 C   0  0  2  0  0  0  0  0  0  0  0  0
    3.0254   -4.9084    0.9788 C   0  0  0  0  0  0  0  0  0  0  0  0
    2.6743   -4.5855    2.3085 C   0  0  0  0  0  0  0  0  0  0  0  0
    3.6762   -5.0538    3.2266 C   0  0  0  0  0  0  0  0  0  0  0  0
    3.5956   -6.0168    3.9977 O   0  0  0  0  0  0  0  0  0  0  0  0
    4.9407   -4.1977    3.1341 C   0  0  2  0  0  0  0  0  0  0  0  0
    5.7332   -5.2104    2.1145 C   0  0  0  0  0  0  0  0  0  0  0  0
    5.8535   -4.9775    0.7030 C   0  0  0  0  0  0  0  0  0  0  0  0
    5.4150   -3.5147   -0.0361 C   0  0  1  0  0  0  0  0  0  0  0  0
    6.3177   -3.1428    1.1008 C   0  0  0  0  0  0  0  0  0  0  0  0
    5.0239   -3.2678    2.0855 C   0  0  1  0  0  0  0  0  0  0  0  0
    3.7895   -2.4436    1.5907 O   0  0  0  0  0  0  0  0  0  0  0  0
    2.5592   -2.2939    2.1002 C   0  0  0  0  0  0  0  0  0  0  0  0
    1.8966   -1.0661    2.2212 C   0  0  0  0  0  0  0  0  0  0  0  0
    2.0488   -0.0801    1.3054 O   0  0  0  0  0  0  0  0  0  0  0  0
    1.1472   -0.8400    3.3835 C   0  0  0  0  0  0  0  0  0  0  0  0
    1.3306   -1.7426    4.4754 C   0  0  0  0  0  0  0  0  0  0  0  0
    2.1694   -2.8795    4.3269 C   0  0  0  0  0  0  0  0  0  0  0  0
    2.2697   -3.2844    2.9595 C   0  0  0  0  0  0  0  0  0  0  0  0
    3.6373   -2.6854    4.8733 C   0  0  0  0  0  0  0  0  0  0  0  0
    4.9111   -2.6034    3.9043 C   0  0  2  0  0  0  0  0  0  0  0  0
    5.2180   -1.1475    3.1389 N   0  0  0  0  0  0  0  0  0  0  0  0
    5.0875    0.0196    3.9936 C   0  0  0  0  0  0  0  0  0  0  0  0
    5.5304   -0.7644    1.5627 C   0  0  0  0  0  0  0  0  0  0  0  0
    5.5532   -1.7528    0.0849 C   0  0  0  0  0  0  0  0  0  0  0  0
    5.6572   -1.1059   -0.9624 O   0  0  0  0  0  0  0  0  0  0  0  0
    2.7254   -2.1968   -2.7350 H   0  0  0  0  0  0  0  0  0  0  0  0
    3.2491   -3.8822   -2.9026 H   0  0  0  0  0  0  0  0  0  0  0  0
    4.3885   -2.6730   -2.3890 H   0  0  0  0  0  0  0  0  0  0  0  0
    2.8736   -2.3583   -0.4185 H   0  0  0  0  0  0  0  0  0  0  0  0
    3.9386   -4.9354   -0.9082 H   0  0  0  0  0  0  0  0  0  0  0  0
    3.3582   -5.9366    0.9140 H   0  0  0  0  0  0  0  0  0  0  0  0
    6.0724   -6.1369    2.5465 H   0  0  0  0  0  0  0  0  0  0  0  0
    6.3056   -5.7139    0.0734 H   0  0  0  0  0  0  0  0  0  0  0  0
    7.3057   -3.6860    1.2438 H   0  0  0  0  0  0  0  0  0  0  0  0
    7.1922   -2.4085    1.1645 H   0  0  0  0  0  0  0  0  0  0  0  0
    6.0764   -3.0124    2.3937 H   0  0  0  0  0  0  0  0  0  0  0  0
    1.6571   -0.3169    0.4420 H   0  0  0  0  0  0  0  0  0  0  0  0
    0.6465    0.1080    3.5184 H   0  0  0  0  0  0  0  0  0  0  0  0
    1.1069   -1.3444    5.4498 H   0  0  0  0  0  0  0  0  0  0  0  0
    3.6364   -1.7988    5.4994 H   0  0  0  0  0  0  0  0  0  0  0  0
    3.7920   -3.5171    5.5642 H   0  0  0  0  0  0  0  0  0  0  0  0
    5.7479   -2.6414    4.6021 H   0  0  0  0  0  0  0  0  0  0  0  0
    5.7019    0.8411    3.6262 H   0  0  0  0  0  0  0  0  0  0  0  0
    5.4220   -0.1965    5.0126 H   0  0  0  0  0  0  0  0  0  0  0  0
    4.0482    0.3588    4.0287 H   0  0  0  0  0  0  0  0  0  0  0  0
    4.7956   -0.0023    1.3363 H   0  0  0  0  0  0  0  0  0  0  0  0
    6.4858   -0.2649    1.5638 H   0  0  0  0  0  0  0  0  0  0  0  0
  1  2  1  0
  1 29  1  0
  1 30  1  0
  1 31  1  0
  2  3  1  0
  2 32  1  0
  3 11  1  0
  3  4  1  0
  3 33  1  6
  4  5  2  3
  4 34  1  0
  5 21  1  0
  5  6  1  0
  6  7  2  0
  6  8  1  0
  8 13  1  0
  8 23  1  0
  8  9  1  1
  9 10  2  0
  9 35  1  0
 10 11  1  0
 10 36  1  0
 11 27  1  1
 11 12  1  0
 12 13  1  0
 12 37  1  0
 12 38  1  0
 13 14  1  0
 13 39  1  1
 14 15  1  0
 15 21  2  0
 15 16  1  0
 16 17  1  0
 16 18  2  0
 17 40  1  0
 18 19  1  0
 18 41  1  0
 19 20  2  0
 19 42  1  0
 20 21  1  0
 20 22  1  0
 22 23  1  0
 22 43  1  0
 22 44  1  0
 23 24  1  0
 23 45  1  1
 24 25  1  0
 24 26  1  0
 25 46  1  0
 25 47  1  0
 25 48  1  0
 26 27  1  0
 26 49  1  0
 26 50  1  0
 27 28  2  0
M  END
>  <i_m_ct_stereo_status>  (204) 
1

>  <s_m_source_file>  (204) 
/var/tmp/pbs.5076255.sched01/tmpqwfmwtcs/46j3o47u_k.sdf

>  <i_m_source_file_index>  (204) 
35

>  <i_lp_mmshare_version>  (204) 
48012

>  <i_f3d_flags>  (204) 
2

>  <s_epik_input>  (204) 
W0NAXTEyM1tDQEhdNFtDSDJdQzUoW0NIXT1bQ0hdMilbQ0BIXShbTkhdW0NIM10pL1tDSF09QyhcQzE9TyljNmMoTzQpYyhbT0hdKVtjSF1bY0hdYzZbQ0gyXVtDQEhdM04oW0NIM10pW0NIMl1DNT1P

>  <s_epik_cmdline>  (204) 
J2VwaWtfcHl0aG9uJywgJy1waHQnLCAnMi4wJywgJy1waCcsICc3LjAnLCAnLXRuJywgJzgnLCAnLW1hJywgJzIwMCcsICctaW1hZScsICc8aW5maWxlLm1hZT4nLCAnLW9tYWUnLCAnPG91dGZpbGUubWFlPic=

>  <r_epik_Ionization_Penalty>  (204) 
0.220773

>  <r_epik_Ionization_Penalty_Charging>  (204) 
0

>  <r_epik_Ionization_Penalty_Neutral>  (204) 
0.220773

>  <r_epik_State_Penalty>  (204) 
0.194332

>  <r_epik_Charging_Adjusted_Penalty>  (204) 
0.194332

>  <i_epik_Tot_Q>  (204) 
0

>  <i_epik_Tot_abs_Q>  (204) 
0

>  <s_lp_Force_Field>  (204) 
OPLS3e

>  <r_lp_Energy>  (204) 
878.103

>  <b_lp_Chiralities_Consistent>  (204) 
0

>  <s_lp_Variant>  (204) 
54:0-2

>  <s_i_glide_gridfile>  (204) 
pfpi4k_grid

>  <i_i_glide_lignum>  (204) 
35

>  <i_i_glide_rotatable_bonds>  (204) 
2

>  <r_i_docking_score>  (204) 
-3.19448

>  <r_i_glide_ligand_efficiency>  (204) 
-0.114089

>  <r_i_glide_ligand_efficiency_sa>  (204) 
-0.34644

>  <r_i_glide_ligand_efficiency_ln>  (204) 
-0.73738

>  <r_i_glide_gscore>  (204) 
-3.19448

>  <r_i_glide_lipo>  (204) 
-0.573478

>  <r_i_glide_hbond>  (204) 
-0.0301605

>  <r_i_glide_metal>  (204) 
-0

>  <r_i_glide_rewards>  (204) 
-0.843308

>  <r_i_glide_evdw>  (204) 
-21.7513

>  <r_i_glide_ecoul>  (204) 
-4.39979

>  <r_i_glide_erotb>  (204) 
0

>  <r_i_glide_esite>  (204) 
0

>  <r_i_glide_emodel>  (204) 
-29.4258

>  <r_i_glide_energy>  (204) 
-26.1511

>  <r_i_glide_einternal>  (204) 
3.83124

>  <r_i_glide_intrahb_reward>  (204) 
-0

>  <i_i_glide_confnum>  (204) 
2

>  <i_i_glide_posenum>  (204) 
25

>  <r_i_glide_eff_state_penalty>  (204) 
0

>  <ligand_id>  (204) 
54

>  <original_smiles>  (204) 
CNC1C=C2C(=O)C34C=CC15CC3Oc1c(O)ccc(c12)CC4N(C)CC5=O

>  <smiles>  (204) 
[H]Oc1c([H])c([H])c2c3c1OC1([H])C([H])([H])C45C(=O)C([H])([H])N(C([H])([H])[H])C([H])(C2([H])[H])C1(C(=O)C3=C([H])C4([H])N([H])C([H])([H])[H])C([H])=C5[H]

$$$$
54:2:0
     RDKit          3D

 51 56  0  0  1  0  0  0  0  0999 V2000
    9.8089   -2.8198    0.5528 C   0  0  0  0  0  0  0  0  0  0  0  0
    8.6665   -1.9193    0.3183 N   0  0  0  0  0  0  0  0  0  0  0  0
    7.3097   -2.5517    0.3473 C   0  0  2  0  0  0  0  0  0  0  0  0
    6.8475   -2.6939   -1.2248 C   0  0  0  0  0  0  0  0  0  0  0  0
    5.7056   -3.3235   -1.7188 C   0  0  0  0  0  0  0  0  0  0  0  0
    5.0981   -4.0245   -0.7454 C   0  0  0  0  0  0  0  0  0  0  0  0
    5.0108   -5.2584   -0.6606 O   0  0  0  0  0  0  0  0  0  0  0  0
    4.4524   -2.9353    0.1131 C   0  0  1  0  0  0  0  0  0  0  0  0
    4.9812   -3.7045    1.3175 C   0  0  0  0  0  0  0  0  0  0  0  0
    5.9258   -3.1184    2.0094 C   0  0  0  0  0  0  0  0  0  0  0  0
    6.4434   -1.7423    1.6180 C   0  0  1  0  0  0  0  0  0  0  0  0
    5.9128   -0.7032    0.6372 C   0  0  0  0  0  0  0  0  0  0  0  0
    4.8106   -1.2838   -0.2035 C   0  0  1  0  0  0  0  0  0  0  0  0
    5.1039   -0.6976   -1.5161 O   0  0  0  0  0  0  0  0  0  0  0  0
    4.5599   -1.3629   -2.5708 C   0  0  0  0  0  0  0  0  0  0  0  0
    3.7173   -0.7492   -3.5067 C   0  0  0  0  0  0  0  0  0  0  0  0
    3.8126    0.5727   -3.8246 O   0  0  0  0  0  0  0  0  0  0  0  0
    2.6514   -1.4675   -4.0461 C   0  0  0  0  0  0  0  0  0  0  0  0
    2.2959   -2.7035   -3.4864 C   0  0  0  0  0  0  0  0  0  0  0  0
    3.1215   -3.2962   -2.5160 C   0  0  0  0  0  0  0  0  0  0  0  0
    4.4846   -2.7470   -2.4720 C   0  0  0  0  0  0  0  0  0  0  0  0
    2.4233   -3.6912   -1.1211 C   0  0  0  0  0  0  0  0  0  0  0  0
    2.9851   -2.8619    0.0995 C   0  0  1  0  0  0  0  0  0  0  0  0
    2.6194   -2.5546    1.5250 N   0  0  0  0  0  0  0  0  0  0  0  0
    2.1135   -3.6549    2.3436 C   0  0  0  0  0  0  0  0  0  0  0  0
    3.4797   -1.5266    2.3001 C   0  0  0  0  0  0  0  0  0  0  0  0
    5.1136   -1.4469    2.6012 C   0  0  0  0  0  0  0  0  0  0  0  0
    5.4019   -0.9612    3.6943 O   0  0  0  0  0  0  0  0  0  0  0  0
   10.7441   -2.2631    0.4817 H   0  0  0  0  0  0  0  0  0  0  0  0
    9.7997   -3.5849   -0.2169 H   0  0  0  0  0  0  0  0  0  0  0  0
    9.7807   -3.2854    1.5333 H   0  0  0  0  0  0  0  0  0  0  0  0
    8.6981   -1.1811    1.0149 H   0  0  0  0  0  0  0  0  0  0  0  0
    7.5502   -3.5896    0.5983 H   0  0  0  0  0  0  0  0  0  0  0  0
    7.2266   -1.9058   -1.8574 H   0  0  0  0  0  0  0  0  0  0  0  0
    4.6363   -4.6921    1.5964 H   0  0  0  0  0  0  0  0  0  0  0  0
    6.3353   -3.6558    2.8532 H   0  0  0  0  0  0  0  0  0  0  0  0
    5.5616    0.2318    1.0817 H   0  0  0  0  0  0  0  0  0  0  0  0
    6.7171   -0.2898    0.0335 H   0  0  0  0  0  0  0  0  0  0  0  0
    3.9850   -0.6178    0.0414 H   0  0  0  0  0  0  0  0  0  0  0  0
    3.0848    1.1020   -3.5226 H   0  0  0  0  0  0  0  0  0  0  0  0
    1.9668   -0.9609   -4.7097 H   0  0  0  0  0  0  0  0  0  0  0  0
    1.2760   -3.0367   -3.6305 H   0  0  0  0  0  0  0  0  0  0  0  0
    1.3556   -3.4882   -1.2100 H   0  0  0  0  0  0  0  0  0  0  0  0
    2.4899   -4.7593   -0.9407 H   0  0  0  0  0  0  0  0  0  0  0  0
    2.6128   -1.9356   -0.3154 H   0  0  0  0  0  0  0  0  0  0  0  0
    1.5156   -3.2481    3.1617 H   0  0  0  0  0  0  0  0  0  0  0  0
    2.8873   -4.2808    2.7864 H   0  0  0  0  0  0  0  0  0  0  0  0
    1.4592   -4.3024    1.7607 H   0  0  0  0  0  0  0  0  0  0  0  0
    3.2139   -0.5534    1.8955 H   0  0  0  0  0  0  0  0  0  0  0  0
    3.0303   -1.4851    3.2905 H   0  0  0  0  0  0  0  0  0  0  0  0
    8.8757   -1.5101   -0.5867 H   0  0  0  0  0  0  0  0  0  0  0  0
  1  2  1  0
  1 29  1  0
  1 30  1  0
  1 31  1  0
  2  3  1  0
  2 32  1  0
  2 51  1  0
  3 11  1  0
  3  4  1  0
  3 33  1  1
  4  5  2  3
  4 34  1  0
  5 21  1  0
  5  6  1  0
  6  7  2  0
  6  8  1  0
  8 13  1  0
  8 23  1  0
  8  9  1  1
  9 10  2  0
  9 35  1  0
 10 11  1  0
 10 36  1  0
 11 27  1  6
 11 12  1  0
 12 13  1  0
 12 37  1  0
 12 38  1  0
 13 14  1  0
 13 39  1  1
 14 15  1  0
 15 21  2  0
 15 16  1  0
 16 17  1  0
 16 18  2  0
 17 40  1  0
 18 19  1  0
 18 41  1  0
 19 20  2  0
 19 42  1  0
 20 21  1  0
 20 22  1  0
 22 23  1  0
 22 43  1  0
 22 44  1  0
 23 24  1  0
 23 45  1  6
 24 25  1  0
 24 26  1  0
 25 46  1  0
 25 47  1  0
 25 48  1  0
 26 27  1  0
 26 49  1  0
 26 50  1  0
 27 28  2  0
M  CHG  1   2   1
M  END
>  <i_m_ct_stereo_status>  (205) 
1

>  <s_m_source_file>  (205) 
/var/tmp/pbs.5076255.sched01/tmpqwfmwtcs/46j3o47u_k.sdf

>  <i_m_source_file_index>  (205) 
36

>  <i_lp_mmshare_version>  (205) 
48012

>  <i_f3d_flags>  (205) 
0

>  <s_epik_input>  (205) 
W0NAXTEyM1tDQEhdNFtDSDJdQzUoW0NIXT1bQ0hdMilbQ0BIXShbTkhdW0NIM10pL1tDSF09QyhcQzE9TyljNmMoTzQpYyhbT0hdKVtjSF1bY0hdYzZbQ0gyXVtDQEhdM04oW0NIM10pW0NIMl1DNT1P

>  <s_epik_cmdline>  (205) 
J2VwaWtfcHl0aG9uJywgJy1waHQnLCAnMi4wJywgJy1waCcsICc3LjAnLCAnLXRuJywgJzgnLCAnLW1hJywgJzIwMCcsICctaW1hZScsICc8aW5maWxlLm1hZT4nLCAnLW9tYWUnLCAnPG91dGZpbGUubWFlPic=

>  <r_epik_Ionization_Penalty>  (205) 
0.807804

>  <r_epik_Ionization_Penalty_Charging>  (205) 
0.793205

>  <r_epik_Ionization_Penalty_Neutral>  (205) 
0.0145989

>  <r_epik_State_Penalty>  (205) 
0.848525

>  <r_epik_Charging_Adjusted_Penalty>  (205) 
1.64173

>  <i_epik_Tot_Q>  (205) 
1

>  <i_epik_Tot_abs_Q>  (205) 
1

>  <s_lp_Force_Field>  (205) 
OPLS3e

>  <r_lp_Energy>  (205) 
500.433

>  <b_lp_Chiralities_Consistent>  (205) 
1

>  <s_lp_Variant>  (205) 
54:0-3

>  <s_i_glide_gridfile>  (205) 
pfpi4k_grid

>  <i_i_glide_lignum>  (205) 
36

>  <i_i_glide_rotatable_bonds>  (205) 
2

>  <r_i_docking_score>  (205) 
-4.03226

>  <r_i_glide_ligand_efficiency>  (205) 
-0.144009

>  <r_i_glide_ligand_efficiency_sa>  (205) 
-0.437297

>  <r_i_glide_ligand_efficiency_ln>  (205) 
-0.930765

>  <r_i_glide_gscore>  (205) 
-4.03226

>  <r_i_glide_lipo>  (205) 
-1.13601

>  <r_i_glide_hbond>  (205) 
-0.0149386

>  <r_i_glide_metal>  (205) 
-0

>  <r_i_glide_rewards>  (205) 
-1.0225

>  <r_i_glide_evdw>  (205) 
-25.2407

>  <r_i_glide_ecoul>  (205) 
-3.67291

>  <r_i_glide_erotb>  (205) 
0

>  <r_i_glide_esite>  (205) 
-0.0458468

>  <r_i_glide_emodel>  (205) 
-30.1457

>  <r_i_glide_energy>  (205) 
-28.9136

>  <r_i_glide_einternal>  (205) 
5.05045

>  <r_i_glide_intrahb_reward>  (205) 
-0

>  <i_i_glide_confnum>  (205) 
1

>  <i_i_glide_posenum>  (205) 
15

>  <r_i_glide_eff_state_penalty>  (205) 
0

>  <ligand_id>  (205) 
54

>  <original_smiles>  (205) 
CNC1C=C2C(=O)C34C=CC15CC3Oc1c(O)ccc(c12)CC4N(C)CC5=O

>  <smiles>  (205) 
[H]Oc1c([H])c([H])c2c3c1OC1([H])C([H])([H])C45C(=O)C([H])([H])N(C([H])([H])[H])C([H])(C2([H])[H])C1(C(=O)C3=C([H])C4([H])[N+]([H])([H])C([H])([H])[H])C([H])=C5[H]

$$$$
54:2:1
     RDKit          3D

 51 56  0  0  1  0  0  0  0  0999 V2000
    8.9932   -1.6780    0.4506 C   0  0  0  0  0  0  0  0  0  0  0  0
    8.5793   -3.0764    0.8207 N   0  0  0  0  0  0  0  0  0  0  0  0
    7.1196   -3.4263    0.8181 C   0  0  2  0  0  0  0  0  0  0  0  0
    6.6467   -3.4849   -0.7557 C   0  0  0  0  0  0  0  0  0  0  0  0
    5.4350   -3.9593   -1.2528 C   0  0  0  0  0  0  0  0  0  0  0  0
    4.7494   -4.6011   -0.2815 C   0  0  0  0  0  0  0  0  0  0  0  0
    4.5364   -5.8260   -0.2099 O   0  0  0  0  0  0  0  0  0  0  0  0
    4.2232   -3.4502    0.5821 C   0  0  1  0  0  0  0  0  0  0  0  0
    4.6542   -4.3175    1.7772 C   0  0  0  0  0  0  0  0  0  0  0  0
    5.6767   -3.8626    2.4761 C   0  0  0  0  0  0  0  0  0  0  0  0
    6.3356   -2.5382    2.0938 C   0  0  1  0  0  0  0  0  0  0  0  0
    5.9423   -1.4108    1.1298 C   0  0  0  0  0  0  0  0  0  0  0  0
    4.7782   -1.8373    0.2783 C   0  0  1  0  0  0  0  0  0  0  0  0
    5.2039   -1.2720   -1.0207 O   0  0  0  0  0  0  0  0  0  0  0  0
    4.6408   -1.8274   -2.1146 C   0  0  0  0  0  0  0  0  0  0  0  0
    3.9291   -1.0878   -3.0752 C   0  0  0  0  0  0  0  0  0  0  0  0
    4.2161    0.2314   -3.2746 O   0  0  0  0  0  0  0  0  0  0  0  0
    2.8035   -1.6488   -3.6936 C   0  0  0  0  0  0  0  0  0  0  0  0
    2.2301   -2.7934   -3.1055 C   0  0  0  0  0  0  0  0  0  0  0  0
    2.9332   -3.4595   -2.0838 C   0  0  0  0  0  0  0  0  0  0  0  0
    4.3640   -3.1854   -2.0362 C   0  0  0  0  0  0  0  0  0  0  0  0
    2.1631   -3.8861   -0.7600 C   0  0  0  0  0  0  0  0  0  0  0  0
    2.7806   -3.1862    0.5179 C   0  0  1  0  0  0  0  0  0  0  0  0
    2.4369   -2.8423    1.9427 N   0  0  0  0  0  0  0  0  0  0  0  0
    1.7812   -3.8738    2.7334 C   0  0  0  0  0  0  0  0  0  0  0  0
    3.4114   -1.9556    2.7526 C   0  0  0  0  0  0  0  0  0  0  0  0
    5.0320   -2.1150    3.0777 C   0  0  0  0  0  0  0  0  0  0  0  0
    5.3530   -1.7082    4.1902 O   0  0  0  0  0  0  0  0  0  0  0  0
   10.0661   -1.5584    0.4790 H   0  0  0  0  0  0  0  0  0  0  0  0
    8.5019   -0.9547    1.0940 H   0  0  0  0  0  0  0  0  0  0  0  0
    8.6785   -1.4567   -0.5640 H   0  0  0  0  0  0  0  0  0  0  0  0
    9.0672   -3.7302    0.2132 H   0  0  0  0  0  0  0  0  0  0  0  0
    7.2677   -4.4700    1.0821 H   0  0  0  0  0  0  0  0  0  0  0  0
    7.1692   -2.7648   -1.3817 H   0  0  0  0  0  0  0  0  0  0  0  0
    4.1602   -5.2534    2.0328 H   0  0  0  0  0  0  0  0  0  0  0  0
    6.0533   -4.4198    3.3239 H   0  0  0  0  0  0  0  0  0  0  0  0
    5.6999   -0.4697    1.6353 H   0  0  0  0  0  0  0  0  0  0  0  0
    6.7404   -1.1019    0.5168 H   0  0  0  0  0  0  0  0  0  0  0  0
    4.0326   -1.0781    0.5114 H   0  0  0  0  0  0  0  0  0  0  0  0
    3.4477    0.7463   -3.4960 H   0  0  0  0  0  0  0  0  0  0  0  0
    2.2408   -1.0641   -4.3891 H   0  0  0  0  0  0  0  0  0  0  0  0
    1.1845   -3.0084   -3.2758 H   0  0  0  0  0  0  0  0  0  0  0  0
    1.1495   -3.5353   -0.8834 H   0  0  0  0  0  0  0  0  0  0  0  0
    2.1096   -4.9742   -0.6540 H   0  0  0  0  0  0  0  0  0  0  0  0
    2.5333   -2.2079    0.1192 H   0  0  0  0  0  0  0  0  0  0  0  0
    1.2293   -3.3912    3.5393 H   0  0  0  0  0  0  0  0  0  0  0  0
    2.4541   -4.6078    3.1688 H   0  0  0  0  0  0  0  0  0  0  0  0
    1.0708   -4.4222    2.1275 H   0  0  0  0  0  0  0  0  0  0  0  0
    3.3117   -0.9492    2.3624 H   0  0  0  0  0  0  0  0  0  0  0  0
    2.9611   -1.8658    3.7324 H   0  0  0  0  0  0  0  0  0  0  0  0
    8.9143   -3.2108    1.7803 H   0  0  0  0  0  0  0  0  0  0  0  0
  1  2  1  0
  1 29  1  0
  1 30  1  0
  1 31  1  0
  2  3  1  0
  2 32  1  0
  2 51  1  0
  3 11  1  0
  3  4  1  0
  3 33  1  1
  4  5  2  3
  4 34  1  0
  5 21  1  0
  5  6  1  0
  6  7  2  0
  6  8  1  0
  8 13  1  0
  8 23  1  0
  8  9  1  1
  9 10  2  0
  9 35  1  0
 10 11  1  0
 10 36  1  0
 11 27  1  6
 11 12  1  0
 12 13  1  0
 12 37  1  0
 12 38  1  0
 13 14  1  0
 13 39  1  1
 14 15  1  0
 15 21  2  0
 15 16  1  0
 16 17  1  0
 16 18  2  0
 17 40  1  0
 18 19  1  0
 18 41  1  0
 19 20  2  0
 19 42  1  0
 20 21  1  0
 20 22  1  0
 22 23  1  0
 22 43  1  0
 22 44  1  0
 23 24  1  0
 23 45  1  6
 24 25  1  0
 24 26  1  0
 25 46  1  0
 25 47  1  0
 25 48  1  0
 26 27  1  0
 26 49  1  0
 26 50  1  0
 27 28  2  0
M  CHG  1   2   1
M  END
>  <i_m_ct_stereo_status>  (206) 
1

>  <s_m_source_file>  (206) 
/var/tmp/pbs.5076255.sched01/tmpqwfmwtcs/46j3o47u_k.sdf

>  <i_m_source_file_index>  (206) 
36

>  <i_lp_mmshare_version>  (206) 
48012

>  <i_f3d_flags>  (206) 
0

>  <s_epik_input>  (206) 
W0NAXTEyM1tDQEhdNFtDSDJdQzUoW0NIXT1bQ0hdMilbQ0BIXShbTkhdW0NIM10pL1tDSF09QyhcQzE9TyljNmMoTzQpYyhbT0hdKVtjSF1bY0hdYzZbQ0gyXVtDQEhdM04oW0NIM10pW0NIMl1DNT1P

>  <s_epik_cmdline>  (206) 
J2VwaWtfcHl0aG9uJywgJy1waHQnLCAnMi4wJywgJy1waCcsICc3LjAnLCAnLXRuJywgJzgnLCAnLW1hJywgJzIwMCcsICctaW1hZScsICc8aW5maWxlLm1hZT4nLCAnLW9tYWUnLCAnPG91dGZpbGUubWFlPic=

>  <r_epik_Ionization_Penalty>  (206) 
0.807804

>  <r_epik_Ionization_Penalty_Charging>  (206) 
0.793205

>  <r_epik_Ionization_Penalty_Neutral>  (206) 
0.0145989

>  <r_epik_State_Penalty>  (206) 
0.848525

>  <r_epik_Charging_Adjusted_Penalty>  (206) 
1.64173

>  <i_epik_Tot_Q>  (206) 
1

>  <i_epik_Tot_abs_Q>  (206) 
1

>  <s_lp_Force_Field>  (206) 
OPLS3e

>  <r_lp_Energy>  (206) 
500.433

>  <b_lp_Chiralities_Consistent>  (206) 
1

>  <s_lp_Variant>  (206) 
54:0-3

>  <s_i_glide_gridfile>  (206) 
pfpi4k_grid

>  <i_i_glide_lignum>  (206) 
36

>  <i_i_glide_rotatable_bonds>  (206) 
2

>  <r_i_docking_score>  (206) 
-3.16871

>  <r_i_glide_ligand_efficiency>  (206) 
-0.113168

>  <r_i_glide_ligand_efficiency_sa>  (206) 
-0.343645

>  <r_i_glide_ligand_efficiency_ln>  (206) 
-0.731431

>  <r_i_glide_gscore>  (206) 
-3.16871

>  <r_i_glide_lipo>  (206) 
-0.893378

>  <r_i_glide_hbond>  (206) 
0

>  <r_i_glide_metal>  (206) 
-0

>  <r_i_glide_rewards>  (206) 
-0.912084

>  <r_i_glide_evdw>  (206) 
-20.0064

>  <r_i_glide_ecoul>  (206) 
-2.41827

>  <r_i_glide_erotb>  (206) 
0

>  <r_i_glide_esite>  (206) 
-0.000188993

>  <r_i_glide_emodel>  (206) 
-19.8298

>  <r_i_glide_energy>  (206) 
-22.4246

>  <r_i_glide_einternal>  (206) 
7.10078

>  <r_i_glide_intrahb_reward>  (206) 
-0

>  <i_i_glide_confnum>  (206) 
1

>  <i_i_glide_posenum>  (206) 
5

>  <r_i_glide_eff_state_penalty>  (206) 
0

>  <ligand_id>  (206) 
54

>  <original_smiles>  (206) 
CNC1C=C2C(=O)C34C=CC15CC3Oc1c(O)ccc(c12)CC4N(C)CC5=O

>  <smiles>  (206) 
[H]Oc1c([H])c([H])c2c3c1OC1([H])C([H])([H])C45C(=O)C([H])([H])N(C([H])([H])[H])C([H])(C2([H])[H])C1(C(=O)C3=C([H])C4([H])[N+]([H])([H])C([H])([H])[H])C([H])=C5[H]

$$$$
54:3:0
     RDKit          3D

 51 56  0  0  1  0  0  0  0  0999 V2000
    2.5312   -3.0117   -2.3639 C   0  0  0  0  0  0  0  0  0  0  0  0
    2.6244   -2.6601   -0.9332 N   0  0  0  0  0  0  0  0  0  0  0  0
    3.9289   -2.1091   -0.4996 C   0  0  2  0  0  0  0  0  0  0  0  0
    5.1737   -3.0939   -0.8974 C   0  0  0  0  0  0  0  0  0  0  0  0
    5.7304   -4.2540   -0.3069 C   0  0  0  0  0  0  0  0  0  0  0  0
    6.8218   -3.8917    0.5556 C   0  0  0  0  0  0  0  0  0  0  0  0
    8.0249   -4.0501    0.3346 O   0  0  0  0  0  0  0  0  0  0  0  0
    6.3125   -3.2314    1.8349 C   0  0  2  0  0  0  0  0  0  0  0  0
    6.5319   -1.7008    1.2828 C   0  0  0  0  0  0  0  0  0  0  0  0
    5.4537   -0.8551    0.8106 C   0  0  0  0  0  0  0  0  0  0  0  0
    3.8352   -1.2654    0.9664 C   0  0  1  0  0  0  0  0  0  0  0  0
    4.4159   -1.4073    2.3490 C   0  0  0  0  0  0  0  0  0  0  0  0
    4.9498   -2.8825    1.9047 C   0  0  1  0  0  0  0  0  0  0  0  0
    3.8261   -3.7831    1.2728 O   0  0  0  0  0  0  0  0  0  0  0  0
    3.8451   -5.0280    0.7892 C   0  0  0  0  0  0  0  0  0  0  0  0
    2.8929   -6.0115    1.0743 C   0  0  0  0  0  0  0  0  0  0  0  0
    1.5748   -5.7019    1.2556 O   0  0  0  0  0  0  0  0  0  0  0  0
    3.3522   -7.3192    1.2889 C   0  0  0  0  0  0  0  0  0  0  0  0
    4.7497   -7.5040    1.4485 C   0  0  0  0  0  0  0  0  0  0  0  0
    5.6428   -6.4128    1.2975 C   0  0  0  0  0  0  0  0  0  0  0  0
    5.0934   -5.3854    0.4659 C   0  0  0  0  0  0  0  0  0  0  0  0
    6.0851   -5.7438    2.6495 C   0  0  0  0  0  0  0  0  0  0  0  0
    5.5923   -4.2824    3.0757 C   0  0  2  0  0  0  0  0  0  0  0  0
    4.0528   -4.1346    3.7097 N   0  0  0  0  0  0  0  0  0  0  0  0
    3.7244   -5.1312    4.7188 C   0  0  0  0  0  0  0  0  0  0  0  0
    2.8147   -3.0953    3.3669 C   0  0  0  0  0  0  0  0  0  0  0  0
    2.5920   -1.8620    2.0899 C   0  0  0  0  0  0  0  0  0  0  0  0
    1.4524   -1.4512    1.9371 O   0  0  0  0  0  0  0  0  0  0  0  0
    1.5120   -3.3089   -2.6048 H   0  0  0  0  0  0  0  0  0  0  0  0
    3.1836   -3.8402   -2.6338 H   0  0  0  0  0  0  0  0  0  0  0  0
    2.7735   -2.1616   -2.9986 H   0  0  0  0  0  0  0  0  0  0  0  0
    1.9066   -1.9502   -0.7465 H   0  0  0  0  0  0  0  0  0  0  0  0
    4.0619   -1.2944   -1.2140 H   0  0  0  0  0  0  0  0  0  0  0  0
    5.9560   -2.4483   -1.2745 H   0  0  0  0  0  0  0  0  0  0  0  0
    7.5400   -1.3435    1.2252 H   0  0  0  0  0  0  0  0  0  0  0  0
    5.6726    0.1199    0.4315 H   0  0  0  0  0  0  0  0  0  0  0  0
    5.0708   -0.5857    2.7846 H   0  0  0  0  0  0  0  0  0  0  0  0
    4.0272   -1.0664    3.3702 H   0  0  0  0  0  0  0  0  0  0  0  0
    5.1163   -2.3998    2.9021 H   0  0  0  0  0  0  0  0  0  0  0  0
    1.1049   -6.4371    1.6139 H   0  0  0  0  0  0  0  0  0  0  0  0
    2.6577   -8.1073    1.5396 H   0  0  0  0  0  0  0  0  0  0  0  0
    5.0492   -8.3906    1.9906 H   0  0  0  0  0  0  0  0  0  0  0  0
    5.8424   -6.4308    3.4561 H   0  0  0  0  0  0  0  0  0  0  0  0
    7.1771   -5.7433    2.6205 H   0  0  0  0  0  0  0  0  0  0  0  0
    6.1769   -4.0981    3.9748 H   0  0  0  0  0  0  0  0  0  0  0  0
    2.9639   -4.7592    5.4061 H   0  0  0  0  0  0  0  0  0  0  0  0
    4.5971   -5.4021    5.3173 H   0  0  0  0  0  0  0  0  0  0  0  0
    3.3414   -6.0412    4.2533 H   0  0  0  0  0  0  0  0  0  0  0  0
    1.9666   -3.7637    3.2220 H   0  0  0  0  0  0  0  0  0  0  0  0
    2.5993   -2.5834    4.3027 H   0  0  0  0  0  0  0  0  0  0  0  0
    2.4496   -3.4883   -0.3842 H   0  0  0  0  0  0  0  0  0  0  0  0
  1  2  1  0
  1 29  1  0
  1 30  1  0
  1 31  1  0
  2  3  1  0
  2 32  1  0
  2 51  1  0
  3 11  1  0
  3  4  1  0
  3 33  1  6
  4  5  2  3
  4 34  1  0
  5 21  1  0
  5  6  1  0
  6  7  2  0
  6  8  1  0
  8 13  1  0
  8 23  1  0
  8  9  1  1
  9 10  2  0
  9 35  1  0
 10 11  1  0
 10 36  1  0
 11 27  1  6
 11 12  1  0
 12 13  1  0
 12 37  1  0
 12 38  1  0
 13 14  1  0
 13 39  1  1
 14 15  1  0
 15 21  2  0
 15 16  1  0
 16 17  1  0
 16 18  2  0
 17 40  1  0
 18 19  1  0
 18 41  1  0
 19 20  2  0
 19 42  1  0
 20 21  1  0
 20 22  1  0
 22 23  1  0
 22 43  1  0
 22 44  1  0
 23 24  1  0
 23 45  1  1
 24 25  1  0
 24 26  1  0
 25 46  1  0
 25 47  1  0
 25 48  1  0
 26 27  1  0
 26 49  1  0
 26 50  1  0
 27 28  2  0
M  CHG  1   2   1
M  END
>  <i_m_ct_stereo_status>  (207) 
1

>  <s_m_source_file>  (207) 
/var/tmp/pbs.5076255.sched01/tmpqwfmwtcs/46j3o47u_k.sdf

>  <i_m_source_file_index>  (207) 
37

>  <i_lp_mmshare_version>  (207) 
48012

>  <i_f3d_flags>  (207) 
2

>  <s_epik_input>  (207) 
W0NAXTEyM1tDQEhdNFtDSDJdQzUoW0NIXT1bQ0hdMilbQ0BIXShbTkhdW0NIM10pL1tDSF09QyhcQzE9TyljNmMoTzQpYyhbT0hdKVtjSF1bY0hdYzZbQ0gyXVtDQEhdM04oW0NIM10pW0NIMl1DNT1P

>  <s_epik_cmdline>  (207) 
J2VwaWtfcHl0aG9uJywgJy1waHQnLCAnMi4wJywgJy1waCcsICc3LjAnLCAnLXRuJywgJzgnLCAnLW1hJywgJzIwMCcsICctaW1hZScsICc8aW5maWxlLm1hZT4nLCAnLW9tYWUnLCAnPG91dGZpbGUubWFlPic=

>  <r_epik_Ionization_Penalty>  (207) 
0.807804

>  <r_epik_Ionization_Penalty_Charging>  (207) 
0.793205

>  <r_epik_Ionization_Penalty_Neutral>  (207) 
0.0145989

>  <r_epik_State_Penalty>  (207) 
0.848525

>  <r_epik_Charging_Adjusted_Penalty>  (207) 
1.64173

>  <i_epik_Tot_Q>  (207) 
1

>  <i_epik_Tot_abs_Q>  (207) 
1

>  <s_lp_Force_Field>  (207) 
OPLS3e

>  <r_lp_Energy>  (207) 
879.648

>  <b_lp_Chiralities_Consistent>  (207) 
0

>  <s_lp_Variant>  (207) 
54:0-4

>  <s_i_glide_gridfile>  (207) 
pfpi4k_grid

>  <i_i_glide_lignum>  (207) 
37

>  <i_i_glide_rotatable_bonds>  (207) 
2

>  <r_i_docking_score>  (207) 
-4.18593

>  <r_i_glide_ligand_efficiency>  (207) 
-0.149497

>  <r_i_glide_ligand_efficiency_sa>  (207) 
-0.453962

>  <r_i_glide_ligand_efficiency_ln>  (207) 
-0.966235

>  <r_i_glide_gscore>  (207) 
-4.18593

>  <r_i_glide_lipo>  (207) 
-0.80415

>  <r_i_glide_hbond>  (207) 
-0.190463

>  <r_i_glide_metal>  (207) 
-0

>  <r_i_glide_rewards>  (207) 
-0.981799

>  <r_i_glide_evdw>  (207) 
-21.8145

>  <r_i_glide_ecoul>  (207) 
-6.914

>  <r_i_glide_erotb>  (207) 
0

>  <r_i_glide_esite>  (207) 
-0.0816917

>  <r_i_glide_emodel>  (207) 
-37.9128

>  <r_i_glide_energy>  (207) 
-28.7285

>  <r_i_glide_einternal>  (207) 
0.114315

>  <r_i_glide_intrahb_reward>  (207) 
-0

>  <i_i_glide_confnum>  (207) 
1

>  <i_i_glide_posenum>  (207) 
4

>  <r_i_glide_eff_state_penalty>  (207) 
0

>  <ligand_id>  (207) 
54

>  <original_smiles>  (207) 
CNC1C=C2C(=O)C34C=CC15CC3Oc1c(O)ccc(c12)CC4N(C)CC5=O

>  <smiles>  (207) 
[H]Oc1c([H])c([H])c2c3c1OC1([H])C([H])([H])C45C(=O)C([H])([H])N(C([H])([H])[H])C([H])(C2([H])[H])C1(C(=O)C3=C([H])C4([H])[N+]([H])([H])C([H])([H])[H])C([H])=C5[H]

$$$$
54:3:1
     RDKit          3D

 51 56  0  0  1  0  0  0  0  0999 V2000
    2.2418   -3.3576   -2.2487 C   0  0  0  0  0  0  0  0  0  0  0  0
    3.0157   -2.8825   -1.0852 N   0  0  0  0  0  0  0  0  0  0  0  0
    3.8418   -3.9117   -0.3905 C   0  0  2  0  0  0  0  0  0  0  0  0
    2.9527   -4.7605    0.6860 C   0  0  0  0  0  0  0  0  0  0  0  0
    2.5628   -4.5258    2.0210 C   0  0  0  0  0  0  0  0  0  0  0  0
    3.5066   -5.1075    2.9278 C   0  0  0  0  0  0  0  0  0  0  0  0
    3.3324   -6.1158    3.6067 O   0  0  0  0  0  0  0  0  0  0  0  0
    4.8107   -4.3109    2.9764 C   0  0  2  0  0  0  0  0  0  0  0  0
    5.5906   -5.2821    1.9069 C   0  0  0  0  0  0  0  0  0  0  0  0
    5.7793   -4.9496    0.5155 C   0  0  0  0  0  0  0  0  0  0  0  0
    5.4396   -3.4344   -0.1231 C   0  0  1  0  0  0  0  0  0  0  0  0
    6.3177   -3.1686    1.0659 C   0  0  0  0  0  0  0  0  0  0  0  0
    4.9856   -3.3000    2.0045 C   0  0  1  0  0  0  0  0  0  0  0  0
    3.7925   -2.3951    1.5137 O   0  0  0  0  0  0  0  0  0  0  0  0
    2.5610   -2.2129    1.9792 C   0  0  0  0  0  0  0  0  0  0  0  0
    1.9498   -0.9657    2.1451 C   0  0  0  0  0  0  0  0  0  0  0  0
    2.2064    0.0604    1.2785 O   0  0  0  0  0  0  0  0  0  0  0  0
    1.1665   -0.7743    3.2926 C   0  0  0  0  0  0  0  0  0  0  0  0
    1.2641   -1.7514    4.3139 C   0  0  0  0  0  0  0  0  0  0  0  0
    2.0473   -2.9265    4.1227 C   0  0  0  0  0  0  0  0  0  0  0  0
    2.1978   -3.2437    2.7383 C   0  0  0  0  0  0  0  0  0  0  0  0
    3.4828   -2.8573    4.7568 C   0  0  0  0  0  0  0  0  0  0  0  0
    4.8079   -2.7657    3.8544 C   0  0  2  0  0  0  0  0  0  0  0  0
    5.1991   -1.2701    3.2050 N   0  0  0  0  0  0  0  0  0  0  0  0
    5.1194   -0.1724    4.1588 C   0  0  0  0  0  0  0  0  0  0  0  0
    5.6137   -0.8046    1.6711 C   0  0  0  0  0  0  0  0  0  0  0  0
    5.6247   -1.6872    0.1008 C   0  0  0  0  0  0  0  0  0  0  0  0
    5.6751   -1.0353   -0.9308 O   0  0  0  0  0  0  0  0  0  0  0  0
    1.7542   -2.5197   -2.7381 H   0  0  0  0  0  0  0  0  0  0  0  0
    1.4717   -4.0693   -1.9513 H   0  0  0  0  0  0  0  0  0  0  0  0
    2.8783   -3.8316   -2.9947 H   0  0  0  0  0  0  0  0  0  0  0  0
    3.6394   -2.1529   -1.4134 H   0  0  0  0  0  0  0  0  0  0  0  0
    3.9964   -4.6589   -1.1691 H   0  0  0  0  0  0  0  0  0  0  0  0
    3.2487   -5.7938    0.5436 H   0  0  0  0  0  0  0  0  0  0  0  0
    5.8799   -6.2567    2.2525 H   0  0  0  0  0  0  0  0  0  0  0  0
    6.2320   -5.6543   -0.1489 H   0  0  0  0  0  0  0  0  0  0  0  0
    7.2769   -3.7597    1.2164 H   0  0  0  0  0  0  0  0  0  0  0  0
    7.2234   -2.4752    1.2029 H   0  0  0  0  0  0  0  0  0  0  0  0
    6.0290   -3.1121    2.3655 H   0  0  0  0  0  0  0  0  0  0  0  0
    1.8659   -0.1216    0.4130 H   0  0  0  0  0  0  0  0  0  0  0  0
    0.7034    0.1847    3.4672 H   0  0  0  0  0  0  0  0  0  0  0  0
    1.0154   -1.4158    5.3110 H   0  0  0  0  0  0  0  0  0  0  0  0
    3.5026   -2.0383    5.4601 H   0  0  0  0  0  0  0  0  0  0  0  0
    3.5547   -3.7502    5.3732 H   0  0  0  0  0  0  0  0  0  0  0  0
    5.6105   -2.8905    4.5824 H   0  0  0  0  0  0  0  0  0  0  0  0
    5.7873    0.6377    3.8780 H   0  0  0  0  0  0  0  0  0  0  0  0
    5.4011   -0.4902    5.1647 H   0  0  0  0  0  0  0  0  0  0  0  0
    4.1061    0.2279    4.2027 H   0  0  0  0  0  0  0  0  0  0  0  0
    4.9555    0.0422    1.4865 H   0  0  0  0  0  0  0  0  0  0  0  0
    6.6037   -0.3680    1.7736 H   0  0  0  0  0  0  0  0  0  0  0  0
    2.3740   -2.4498   -0.4287 H   0  0  0  0  0  0  0  0  0  0  0  0
  1  2  1  0
  1 29  1  0
  1 30  1  0
  1 31  1  0
  2  3  1  0
  2 32  1  0
  2 51  1  0
  3 11  1  0
  3  4  1  0
  3 33  1  6
  4  5  2  3
  4 34  1  0
  5 21  1  0
  5  6  1  0
  6  7  2  0
  6  8  1  0
  8 13  1  0
  8 23  1  0
  8  9  1  1
  9 10  2  0
  9 35  1  0
 10 11  1  0
 10 36  1  0
 11 27  1  1
 11 12  1  0
 12 13  1  0
 12 37  1  0
 12 38  1  0
 13 14  1  0
 13 39  1  1
 14 15  1  0
 15 21  2  0
 15 16  1  0
 16 17  1  0
 16 18  2  0
 17 40  1  0
 18 19  1  0
 18 41  1  0
 19 20  2  0
 19 42  1  0
 20 21  1  0
 20 22  1  0
 22 23  1  0
 22 43  1  0
 22 44  1  0
 23 24  1  0
 23 45  1  1
 24 25  1  0
 24 26  1  0
 25 46  1  0
 25 47  1  0
 25 48  1  0
 26 27  1  0
 26 49  1  0
 26 50  1  0
 27 28  2  0
M  CHG  1   2   1
M  END
>  <i_m_ct_stereo_status>  (208) 
1

>  <s_m_source_file>  (208) 
/var/tmp/pbs.5076255.sched01/tmpqwfmwtcs/46j3o47u_k.sdf

>  <i_m_source_file_index>  (208) 
37

>  <i_lp_mmshare_version>  (208) 
48012

>  <i_f3d_flags>  (208) 
2

>  <s_epik_input>  (208) 
W0NAXTEyM1tDQEhdNFtDSDJdQzUoW0NIXT1bQ0hdMilbQ0BIXShbTkhdW0NIM10pL1tDSF09QyhcQzE9TyljNmMoTzQpYyhbT0hdKVtjSF1bY0hdYzZbQ0gyXVtDQEhdM04oW0NIM10pW0NIMl1DNT1P

>  <s_epik_cmdline>  (208) 
J2VwaWtfcHl0aG9uJywgJy1waHQnLCAnMi4wJywgJy1waCcsICc3LjAnLCAnLXRuJywgJzgnLCAnLW1hJywgJzIwMCcsICctaW1hZScsICc8aW5maWxlLm1hZT4nLCAnLW9tYWUnLCAnPG91dGZpbGUubWFlPic=

>  <r_epik_Ionization_Penalty>  (208) 
0.807804

>  <r_epik_Ionization_Penalty_Charging>  (208) 
0.793205

>  <r_epik_Ionization_Penalty_Neutral>  (208) 
0.0145989

>  <r_epik_State_Penalty>  (208) 
0.848525

>  <r_epik_Charging_Adjusted_Penalty>  (208) 
1.64173

>  <i_epik_Tot_Q>  (208) 
1

>  <i_epik_Tot_abs_Q>  (208) 
1

>  <s_lp_Force_Field>  (208) 
OPLS3e

>  <r_lp_Energy>  (208) 
879.648

>  <b_lp_Chiralities_Consistent>  (208) 
0

>  <s_lp_Variant>  (208) 
54:0-4

>  <s_i_glide_gridfile>  (208) 
pfpi4k_grid

>  <i_i_glide_lignum>  (208) 
37

>  <i_i_glide_rotatable_bonds>  (208) 
2

>  <r_i_docking_score>  (208) 
-4.05866

>  <r_i_glide_ligand_efficiency>  (208) 
-0.144952

>  <r_i_glide_ligand_efficiency_sa>  (208) 
-0.44016

>  <r_i_glide_ligand_efficiency_ln>  (208) 
-0.936858

>  <r_i_glide_gscore>  (208) 
-4.05866

>  <r_i_glide_lipo>  (208) 
-0.796698

>  <r_i_glide_hbond>  (208) 
-0.0928075

>  <r_i_glide_metal>  (208) 
-0

>  <r_i_glide_rewards>  (208) 
-0.840511

>  <r_i_glide_evdw>  (208) 
-22.5897

>  <r_i_glide_ecoul>  (208) 
-7.84447

>  <r_i_glide_erotb>  (208) 
0

>  <r_i_glide_esite>  (208) 
-0.02249

>  <r_i_glide_emodel>  (208) 
-36.3784

>  <r_i_glide_energy>  (208) 
-30.4342

>  <r_i_glide_einternal>  (208) 
4.36942

>  <r_i_glide_intrahb_reward>  (208) 
-0

>  <i_i_glide_confnum>  (208) 
2

>  <i_i_glide_posenum>  (208) 
14

>  <r_i_glide_eff_state_penalty>  (208) 
0

>  <ligand_id>  (208) 
54

>  <original_smiles>  (208) 
CNC1C=C2C(=O)C34C=CC15CC3Oc1c(O)ccc(c12)CC4N(C)CC5=O

>  <smiles>  (208) 
[H]Oc1c([H])c([H])c2c3c1OC1([H])C([H])([H])C45C(=O)C([H])([H])N(C([H])([H])[H])C([H])(C2([H])[H])C1(C(=O)C3=C([H])C4([H])[N+]([H])([H])C([H])([H])[H])C([H])=C5[H]

$$$$
54:3:2
     RDKit          3D

 51 56  0  0  1  0  0  0  0  0999 V2000
    3.4036   -2.4944   -2.4581 C   0  0  0  0  0  0  0  0  0  0  0  0
    3.0151   -2.6647   -1.0449 N   0  0  0  0  0  0  0  0  0  0  0  0
    3.6815   -3.7963   -0.3483 C   0  0  2  0  0  0  0  0  0  0  0  0
    2.6851   -4.4893    0.7439 C   0  0  0  0  0  0  0  0  0  0  0  0
    2.3254   -4.1744    2.0749 C   0  0  0  0  0  0  0  0  0  0  0  0
    3.1617   -4.8833    2.9979 C   0  0  0  0  0  0  0  0  0  0  0  0
    2.8321   -5.8451    3.6903 O   0  0  0  0  0  0  0  0  0  0  0  0
    4.5751   -4.2946    3.0363 C   0  0  2  0  0  0  0  0  0  0  0  0
    5.2019   -5.3856    1.9845 C   0  0  0  0  0  0  0  0  0  0  0  0
    5.4464   -5.1019    0.5858 C   0  0  0  0  0  0  0  0  0  0  0  0
    5.3416   -3.5584   -0.0739 C   0  0  1  0  0  0  0  0  0  0  0  0
    6.2440   -3.4189    1.1205 C   0  0  0  0  0  0  0  0  0  0  0  0
    4.9034   -3.3363    2.0526 C   0  0  1  0  0  0  0  0  0  0  0  0
    3.8627   -2.2702    1.5462 O   0  0  0  0  0  0  0  0  0  0  0  0
    2.6687   -1.8927    2.0054 C   0  0  0  0  0  0  0  0  0  0  0  0
    2.2503   -0.5663    2.1493 C   0  0  0  0  0  0  0  0  0  0  0  0
    2.6748    0.3973    1.2842 O   0  0  0  0  0  0  0  0  0  0  0  0
    1.4912   -0.2428    3.2907 C   0  0  0  0  0  0  0  0  0  0  0  0
    1.4490   -1.2092    4.3290 C   0  0  0  0  0  0  0  0  0  0  0  0
    2.0464   -2.4894    4.1572 C   0  0  0  0  0  0  0  0  0  0  0  0
    2.1496   -2.8462    2.7779 C   0  0  0  0  0  0  0  0  0  0  0  0
    3.4780   -2.6332    4.7923 C   0  0  0  0  0  0  0  0  0  0  0  0
    4.8031   -2.7578    3.8954 C   0  0  2  0  0  0  0  0  0  0  0  0
    5.4146   -1.3444    3.2336 N   0  0  0  0  0  0  0  0  0  0  0  0
    5.5004   -0.2330    4.1693 C   0  0  0  0  0  0  0  0  0  0  0  0
    5.9024   -0.9671    1.7007 C   0  0  0  0  0  0  0  0  0  0  0  0
    5.7883   -1.8517    0.1447 C   0  0  0  0  0  0  0  0  0  0  0  0
    5.9180   -1.1894   -0.8719 O   0  0  0  0  0  0  0  0  0  0  0  0
    2.9449   -1.5945   -2.8638 H   0  0  0  0  0  0  0  0  0  0  0  0
    3.0787   -3.3368   -3.0683 H   0  0  0  0  0  0  0  0  0  0  0  0
    4.4798   -2.3984   -2.5881 H   0  0  0  0  0  0  0  0  0  0  0  0
    3.2050   -1.8098   -0.5383 H   0  0  0  0  0  0  0  0  0  0  0  0
    3.6723   -4.5716   -1.1172 H   0  0  0  0  0  0  0  0  0  0  0  0
    2.8165   -5.5560    0.6219 H   0  0  0  0  0  0  0  0  0  0  0  0
    5.3368   -6.3904    2.3425 H   0  0  0  0  0  0  0  0  0  0  0  0
    5.7891   -5.8800   -0.0640 H   0  0  0  0  0  0  0  0  0  0  0  0
    7.1001   -4.1486    1.2837 H   0  0  0  0  0  0  0  0  0  0  0  0
    7.2391   -2.8679    1.2491 H   0  0  0  0  0  0  0  0  0  0  0  0
    5.9618   -3.2995    2.4209 H   0  0  0  0  0  0  0  0  0  0  0  0
    2.2794    1.2385    1.4462 H   0  0  0  0  0  0  0  0  0  0  0  0
    1.1787    0.7754    3.4640 H   0  0  0  0  0  0  0  0  0  0  0  0
    1.2565   -0.8284    5.3227 H   0  0  0  0  0  0  0  0  0  0  0  0
    3.6167   -1.8164    5.4924 H   0  0  0  0  0  0  0  0  0  0  0  0
    3.4089   -3.5177    5.4261 H   0  0  0  0  0  0  0  0  0  0  0  0
    5.5748   -2.9877    4.6318 H   0  0  0  0  0  0  0  0  0  0  0  0
    6.2869    0.4643    3.8799 H   0  0  0  0  0  0  0  0  0  0  0  0
    5.7287   -0.5762    5.1806 H   0  0  0  0  0  0  0  0  0  0  0  0
    4.5592    0.3186    4.2067 H   0  0  0  0  0  0  0  0  0  0  0  0
    5.3762   -0.0365    1.4960 H   0  0  0  0  0  0  0  0  0  0  0  0
    6.9446   -0.6738    1.7959 H   0  0  0  0  0  0  0  0  0  0  0  0
    2.0131   -2.7850   -1.0353 H   0  0  0  0  0  0  0  0  0  0  0  0
  1  2  1  0
  1 29  1  0
  1 30  1  0
  1 31  1  0
  2  3  1  0
  2 32  1  0
  2 51  1  0
  3 11  1  0
  3  4  1  0
  3 33  1  6
  4  5  2  3
  4 34  1  0
  5 21  1  0
  5  6  1  0
  6  7  2  0
  6  8  1  0
  8 13  1  0
  8 23  1  0
  8  9  1  1
  9 10  2  0
  9 35  1  0
 10 11  1  0
 10 36  1  0
 11 27  1  1
 11 12  1  0
 12 13  1  0
 12 37  1  0
 12 38  1  0
 13 14  1  0
 13 39  1  1
 14 15  1  0
 15 21  2  0
 15 16  1  0
 16 17  1  0
 16 18  2  0
 17 40  1  0
 18 19  1  0
 18 41  1  0
 19 20  2  0
 19 42  1  0
 20 21  1  0
 20 22  1  0
 22 23  1  0
 22 43  1  0
 22 44  1  0
 23 24  1  0
 23 45  1  1
 24 25  1  0
 24 26  1  0
 25 46  1  0
 25 47  1  0
 25 48  1  0
 26 27  1  0
 26 49  1  0
 26 50  1  0
 27 28  2  0
M  CHG  1   2   1
M  END
>  <i_m_ct_stereo_status>  (209) 
1

>  <s_m_source_file>  (209) 
/var/tmp/pbs.5076255.sched01/tmpqwfmwtcs/46j3o47u_k.sdf

>  <i_m_source_file_index>  (209) 
37

>  <i_lp_mmshare_version>  (209) 
48012

>  <i_f3d_flags>  (209) 
2

>  <s_epik_input>  (209) 
W0NAXTEyM1tDQEhdNFtDSDJdQzUoW0NIXT1bQ0hdMilbQ0BIXShbTkhdW0NIM10pL1tDSF09QyhcQzE9TyljNmMoTzQpYyhbT0hdKVtjSF1bY0hdYzZbQ0gyXVtDQEhdM04oW0NIM10pW0NIMl1DNT1P

>  <s_epik_cmdline>  (209) 
J2VwaWtfcHl0aG9uJywgJy1waHQnLCAnMi4wJywgJy1waCcsICc3LjAnLCAnLXRuJywgJzgnLCAnLW1hJywgJzIwMCcsICctaW1hZScsICc8aW5maWxlLm1hZT4nLCAnLW9tYWUnLCAnPG91dGZpbGUubWFlPic=

>  <r_epik_Ionization_Penalty>  (209) 
0.807804

>  <r_epik_Ionization_Penalty_Charging>  (209) 
0.793205

>  <r_epik_Ionization_Penalty_Neutral>  (209) 
0.0145989

>  <r_epik_State_Penalty>  (209) 
0.848525

>  <r_epik_Charging_Adjusted_Penalty>  (209) 
1.64173

>  <i_epik_Tot_Q>  (209) 
1

>  <i_epik_Tot_abs_Q>  (209) 
1

>  <s_lp_Force_Field>  (209) 
OPLS3e

>  <r_lp_Energy>  (209) 
879.648

>  <b_lp_Chiralities_Consistent>  (209) 
0

>  <s_lp_Variant>  (209) 
54:0-4

>  <s_i_glide_gridfile>  (209) 
pfpi4k_grid

>  <i_i_glide_lignum>  (209) 
37

>  <i_i_glide_rotatable_bonds>  (209) 
2

>  <r_i_docking_score>  (209) 
-3.25985

>  <r_i_glide_ligand_efficiency>  (209) 
-0.116423

>  <r_i_glide_ligand_efficiency_sa>  (209) 
-0.353529

>  <r_i_glide_ligand_efficiency_ln>  (209) 
-0.752468

>  <r_i_glide_gscore>  (209) 
-3.25985

>  <r_i_glide_lipo>  (209) 
-0.523628

>  <r_i_glide_hbond>  (209) 
-0.119873

>  <r_i_glide_metal>  (209) 
-0

>  <r_i_glide_rewards>  (209) 
-0.853079

>  <r_i_glide_evdw>  (209) 
-21.4786

>  <r_i_glide_ecoul>  (209) 
-4.28863

>  <r_i_glide_erotb>  (209) 
0

>  <r_i_glide_esite>  (209) 
-0.0460413

>  <r_i_glide_emodel>  (209) 
-32.4321

>  <r_i_glide_energy>  (209) 
-25.7673

>  <r_i_glide_einternal>  (209) 
0.952725

>  <r_i_glide_intrahb_reward>  (209) 
-0

>  <i_i_glide_confnum>  (209) 
1

>  <i_i_glide_posenum>  (209) 
18

>  <r_i_glide_eff_state_penalty>  (209) 
0

>  <ligand_id>  (209) 
54

>  <original_smiles>  (209) 
CNC1C=C2C(=O)C34C=CC15CC3Oc1c(O)ccc(c12)CC4N(C)CC5=O

>  <smiles>  (209) 
[H]Oc1c([H])c([H])c2c3c1OC1([H])C([H])([H])C45C(=O)C([H])([H])N(C([H])([H])[H])C([H])(C2([H])[H])C1(C(=O)C3=C([H])C4([H])[N+]([H])([H])C([H])([H])[H])C([H])=C5[H]

$$$$
54:4:0
     RDKit          3D

 51 56  0  0  1  0  0  0  0  0999 V2000
    4.1043    0.8353    4.8746 C   0  0  0  0  0  0  0  0  0  0  0  0
    3.3804   -0.3978    4.5786 N   0  0  0  0  0  0  0  0  0  0  0  0
    4.2408   -1.5163    4.1908 C   0  0  2  0  0  0  0  0  0  0  0  0
    5.3534   -1.0505    2.9211 C   0  0  0  0  0  0  0  0  0  0  0  0
    5.5028   -1.3447    1.4952 C   0  0  0  0  0  0  0  0  0  0  0  0
    4.2785   -1.7044    1.6794 C   0  0  0  0  0  0  0  0  0  0  0  0
    3.3477   -0.8310    1.6148 O   0  0  0  0  0  0  0  0  0  0  0  0
    4.2026   -3.3237    1.7919 C   0  0  1  0  0  0  0  0  0  0  0  0
    5.1402   -3.6609    2.9781 C   0  0  0  0  0  0  0  0  0  0  0  0
    4.6009   -3.5133    4.1476 C   0  0  0  0  0  0  0  0  0  0  0  0
    3.2125   -2.9427    4.1477 C   0  0  2  0  0  0  0  0  0  0  0  0
    2.1506   -2.8387    2.9213 C   0  0  0  0  0  0  0  0  0  0  0  0
    2.7180   -3.3115    1.5216 C   0  0  1  0  0  0  0  0  0  0  0  0
    2.6041   -2.6736    0.1272 O   0  0  0  0  0  0  0  0  0  0  0  0
    3.7805   -2.3008   -0.6443 C   0  0  0  0  0  0  0  0  0  0  0  0
    3.8032   -2.5137   -2.0277 C   0  0  0  0  0  0  0  0  0  0  0  0
    2.6339   -2.6126   -2.7269 O   0  0  0  0  0  0  0  0  0  0  0  0
    5.0189   -2.7596   -2.6776 C   0  0  0  0  0  0  0  0  0  0  0  0
    6.1668   -3.0244   -1.8961 C   0  0  0  0  0  0  0  0  0  0  0  0
    6.1452   -2.8638   -0.4860 C   0  0  0  0  0  0  0  0  0  0  0  0
    5.1313   -1.9915   -0.0034 C   0  0  0  0  0  0  0  0  0  0  0  0
    6.0626   -4.1992    0.3483 C   0  0  0  0  0  0  0  0  0  0  0  0
    4.6208   -4.5297    0.9804 C   0  0  1  0  0  0  0  0  0  0  0  0
    4.3524   -5.7485    1.9370 N   0  0  2  0  0  0  0  0  0  0  0  0
    4.2086   -7.0023    1.1660 C   0  0  0  0  0  0  0  0  0  0  0  0
    3.2247   -5.6935    3.0606 C   0  0  0  0  0  0  0  0  0  0  0  0
    3.0755   -4.5823    4.2884 C   0  0  0  0  0  0  0  0  0  0  0  0
    2.6813   -5.0185    5.3691 O   0  0  0  0  0  0  0  0  0  0  0  0
    3.3972    1.6433    5.0683 H   0  0  0  0  0  0  0  0  0  0  0  0
    4.7226    1.1638    4.0401 H   0  0  0  0  0  0  0  0  0  0  0  0
    4.7392    0.7296    5.7572 H   0  0  0  0  0  0  0  0  0  0  0  0
    2.7171   -0.2233    3.8355 H   0  0  0  0  0  0  0  0  0  0  0  0
    4.8690   -1.5592    5.0896 H   0  0  0  0  0  0  0  0  0  0  0  0
    6.1818   -0.5012    3.3373 H   0  0  0  0  0  0  0  0  0  0  0  0
    6.1678   -3.9725    2.8955 H   0  0  0  0  0  0  0  0  0  0  0  0
    5.1548   -3.6849    5.0720 H   0  0  0  0  0  0  0  0  0  0  0  0
    1.2678   -3.4513    3.1202 H   0  0  0  0  0  0  0  0  0  0  0  0
    1.6940   -1.8486    2.8982 H   0  0  0  0  0  0  0  0  0  0  0  0
    2.2595   -4.2743    1.3191 H   0  0  0  0  0  0  0  0  0  0  0  0
    1.8791   -2.3524   -2.2179 H   0  0  0  0  0  0  0  0  0  0  0  0
    5.0255   -2.9888   -3.7314 H   0  0  0  0  0  0  0  0  0  0  0  0
    6.9650   -3.5822   -2.3704 H   0  0  0  0  0  0  0  0  0  0  0  0
    6.3363   -5.0207   -0.3097 H   0  0  0  0  0  0  0  0  0  0  0  0
    6.8828   -4.1431    1.0613 H   0  0  0  0  0  0  0  0  0  0  0  0
    3.9882   -4.7110    0.1115 H   0  0  0  0  0  0  0  0  0  0  0  0
    3.2763   -7.0083    0.6008 H   0  0  0  0  0  0  0  0  0  0  0  0
    4.1950   -7.8765    1.8198 H   0  0  0  0  0  0  0  0  0  0  0  0
    5.0261   -7.1364    0.4601 H   0  0  0  0  0  0  0  0  0  0  0  0
    2.2389   -5.8021    2.6162 H   0  0  0  0  0  0  0  0  0  0  0  0
    3.3358   -6.6267    3.6058 H   0  0  0  0  0  0  0  0  0  0  0  0
    5.2093   -5.8597    2.4652 H   0  0  0  0  0  0  0  0  0  0  0  0
  1  2  1  0
  1 29  1  0
  1 30  1  0
  1 31  1  0
  2  3  1  0
  2 32  1  0
  3 11  1  0
  3  4  1  0
  3 33  1  1
  4  5  2  3
  4 34  1  0
  5 21  1  0
  5  6  1  0
  6  7  2  0
  6  8  1  0
  8 13  1  0
  8 23  1  0
  8  9  1  1
  9 10  2  0
  9 35  1  0
 10 11  1  0
 10 36  1  0
 11 27  1  1
 11 12  1  0
 12 13  1  0
 12 37  1  0
 12 38  1  0
 13 14  1  0
 13 39  1  6
 14 15  1  0
 15 21  2  0
 15 16  1  0
 16 17  1  0
 16 18  2  0
 17 40  1  0
 18 19  1  0
 18 41  1  0
 19 20  2  0
 19 42  1  0
 20 21  1  0
 20 22  1  0
 22 23  1  0
 22 43  1  0
 22 44  1  0
 23 24  1  0
 23 45  1  6
 24 25  1  0
 24 26  1  0
 24 51  1  1
 25 46  1  0
 25 47  1  0
 25 48  1  0
 26 27  1  0
 26 49  1  0
 26 50  1  0
 27 28  2  0
M  CHG  1  24   1
M  END
>  <i_m_ct_stereo_status>  (210) 
1

>  <s_m_source_file>  (210) 
/var/tmp/pbs.5076255.sched01/tmpqwfmwtcs/46j3o47u_k.sdf

>  <i_m_source_file_index>  (210) 
38

>  <i_lp_mmshare_version>  (210) 
48012

>  <i_f3d_flags>  (210) 
0

>  <s_epik_input>  (210) 
W0NAXTEyM1tDQEhdNFtDSDJdQzUoW0NIXT1bQ0hdMilbQ0BIXShbTkhdW0NIM10pL1tDSF09QyhcQzE9TyljNmMoTzQpYyhbT0hdKVtjSF1bY0hdYzZbQ0gyXVtDQEhdM04oW0NIM10pW0NIMl1DNT1P

>  <s_epik_cmdline>  (210) 
J2VwaWtfcHl0aG9uJywgJy1waHQnLCAnMi4wJywgJy1waCcsICc3LjAnLCAnLXRuJywgJzgnLCAnLW1hJywgJzIwMCcsICctaW1hZScsICc8aW5maWxlLm1hZT4nLCAnLW9tYWUnLCAnPG91dGZpbGUubWFlPic=

>  <r_epik_Ionization_Penalty>  (210) 
1.6586

>  <r_epik_Ionization_Penalty_Charging>  (210) 
1.63256

>  <r_epik_Ionization_Penalty_Neutral>  (210) 
0.0260403

>  <r_epik_State_Penalty>  (210) 
1.89487

>  <r_epik_Charging_Adjusted_Penalty>  (210) 
3.52743

>  <i_epik_Tot_Q>  (210) 
1

>  <i_epik_Tot_abs_Q>  (210) 
1

>  <s_lp_Force_Field>  (210) 
OPLS3e

>  <r_lp_Energy>  (210) 
706.613

>  <b_lp_Chiralities_Consistent>  (210) 
1

>  <s_lp_Variant>  (210) 
54:0-5

>  <s_i_glide_gridfile>  (210) 
pfpi4k_grid

>  <i_i_glide_lignum>  (210) 
38

>  <i_i_glide_rotatable_bonds>  (210) 
2

>  <r_i_docking_score>  (210) 
-3.10972

>  <r_i_glide_ligand_efficiency>  (210) 
-0.111062

>  <r_i_glide_ligand_efficiency_sa>  (210) 
-0.337248

>  <r_i_glide_ligand_efficiency_ln>  (210) 
-0.717815

>  <r_i_glide_gscore>  (210) 
-3.10972

>  <r_i_glide_lipo>  (210) 
-0.820312

>  <r_i_glide_hbond>  (210) 
0

>  <r_i_glide_metal>  (210) 
-0

>  <r_i_glide_rewards>  (210) 
-0.828318

>  <r_i_glide_evdw>  (210) 
-24.7511

>  <r_i_glide_ecoul>  (210) 
-1.49026

>  <r_i_glide_erotb>  (210) 
0

>  <r_i_glide_esite>  (210) 
0

>  <r_i_glide_emodel>  (210) 
-30.7839

>  <r_i_glide_energy>  (210) 
-26.2413

>  <r_i_glide_einternal>  (210) 
0.31222

>  <r_i_glide_intrahb_reward>  (210) 
-0

>  <i_i_glide_confnum>  (210) 
1

>  <i_i_glide_posenum>  (210) 
28

>  <r_i_glide_eff_state_penalty>  (210) 
0

>  <ligand_id>  (210) 
54

>  <original_smiles>  (210) 
CNC1C=C2C(=O)C34C=CC15CC3Oc1c(O)ccc(c12)CC4N(C)CC5=O

>  <smiles>  (210) 
[H]Oc1c([H])c([H])c2c3c1OC1([H])C([H])([H])C45C(=O)C([H])([H])[N+]([H])(C([H])([H])[H])C([H])(C2([H])[H])C1(C(=O)C3=C([H])C4([H])N([H])C([H])([H])[H])C([H])=C5[H]

$$$$
54:6:0
     RDKit          3D

 51 56  0  0  1  0  0  0  0  0999 V2000
    9.7473   -3.4274    0.7865 C   0  0  0  0  0  0  0  0  0  0  0  0
    8.9287   -2.9218   -0.2887 N   0  0  0  0  0  0  0  0  0  0  0  0
    7.5201   -3.2866   -0.1941 C   0  0  2  0  0  0  0  0  0  0  0  0
    6.8800   -3.0114   -1.6453 C   0  0  0  0  0  0  0  0  0  0  0  0
    5.5746   -3.2461   -1.9296 C   0  0  0  0  0  0  0  0  0  0  0  0
    5.0232   -3.6927   -0.7982 C   0  0  0  0  0  0  0  0  0  0  0  0
    5.0036   -4.9198   -0.6356 O   0  0  0  0  0  0  0  0  0  0  0  0
    4.3555   -2.4578    0.0153 C   0  0  1  0  0  0  0  0  0  0  0  0
    4.4554   -1.9989    1.4789 C   0  0  0  0  0  0  0  0  0  0  0  0
    5.6697   -2.1082    2.0169 C   0  0  0  0  0  0  0  0  0  0  0  0
    6.8813   -2.6652    1.2429 C   0  0  2  0  0  0  0  0  0  0  0  0
    6.5427   -1.2591    0.3776 C   0  0  0  0  0  0  0  0  0  0  0  0
    5.1027   -1.0801   -0.3707 C   0  0  1  0  0  0  0  0  0  0  0  0
    5.4032   -0.6233   -1.7166 O   0  0  0  0  0  0  0  0  0  0  0  0
    4.6512   -1.1716   -2.7020 C   0  0  0  0  0  0  0  0  0  0  0  0
    3.8600   -0.4348   -3.5943 C   0  0  0  0  0  0  0  0  0  0  0  0
    4.1081    0.8846   -3.8656 O   0  0  0  0  0  0  0  0  0  0  0  0
    2.7325   -1.0539   -4.1306 C   0  0  0  0  0  0  0  0  0  0  0  0
    2.3000   -2.2806   -3.5784 C   0  0  0  0  0  0  0  0  0  0  0  0
    3.0859   -2.9670   -2.6624 C   0  0  0  0  0  0  0  0  0  0  0  0
    4.4584   -2.5480   -2.6388 C   0  0  0  0  0  0  0  0  0  0  0  0
    2.4648   -3.5810   -1.3287 C   0  0  0  0  0  0  0  0  0  0  0  0
    3.0237   -3.1342    0.1312 C   0  0  1  0  0  0  0  0  0  0  0  0
    3.2848   -4.3102    1.1860 N   0  0  2  0  0  0  0  0  0  0  0  0
    2.1180   -4.6199    2.0330 C   0  0  0  0  0  0  0  0  0  0  0  0
    4.5799   -4.5077    2.1189 C   0  0  0  0  0  0  0  0  0  0  0  0
    6.1742   -4.0948    1.8084 C   0  0  0  0  0  0  0  0  0  0  0  0
    6.9638   -5.0270    2.0357 O   0  0  0  0  0  0  0  0  0  0  0  0
   10.7394   -2.9837    0.7058 H   0  0  0  0  0  0  0  0  0  0  0  0
    9.7115   -4.5193    0.8717 H   0  0  0  0  0  0  0  0  0  0  0  0
    9.3990   -3.0931    1.7156 H   0  0  0  0  0  0  0  0  0  0  0  0
    9.3401   -3.1766   -1.1833 H   0  0  0  0  0  0  0  0  0  0  0  0
    7.5352   -4.3767   -0.1310 H   0  0  0  0  0  0  0  0  0  0  0  0
    7.4552   -2.3678   -2.3021 H   0  0  0  0  0  0  0  0  0  0  0  0
    3.6000   -1.5665    2.0032 H   0  0  0  0  0  0  0  0  0  0  0  0
    5.8545   -1.7577    3.0188 H   0  0  0  0  0  0  0  0  0  0  0  0
    6.6105   -0.3644    1.0072 H   0  0  0  0  0  0  0  0  0  0  0  0
    7.3513   -0.9988   -0.3013 H   0  0  0  0  0  0  0  0  0  0  0  0
    4.5576   -0.2082    0.0275 H   0  0  0  0  0  0  0  0  0  0  0  0
    3.3575    1.4457   -3.6821 H   0  0  0  0  0  0  0  0  0  0  0  0
    2.0856   -0.4701   -4.7404 H   0  0  0  0  0  0  0  0  0  0  0  0
    1.2538   -2.5663   -3.7036 H   0  0  0  0  0  0  0  0  0  0  0  0
    1.3885   -3.4125   -1.3322 H   0  0  0  0  0  0  0  0  0  0  0  0
    2.5206   -4.6518   -1.3566 H   0  0  0  0  0  0  0  0  0  0  0  0
    2.2989   -2.4281    0.5269 H   0  0  0  0  0  0  0  0  0  0  0  0
    1.8901   -3.7770    2.7170 H   0  0  0  0  0  0  0  0  0  0  0  0
    2.2583   -5.5530    2.6006 H   0  0  0  0  0  0  0  0  0  0  0  0
    1.3209   -4.8436    1.3492 H   0  0  0  0  0  0  0  0  0  0  0  0
    4.3309   -4.1317    3.1204 H   0  0  0  0  0  0  0  0  0  0  0  0
    4.6329   -5.5878    2.2337 H   0  0  0  0  0  0  0  0  0  0  0  0
    3.3980   -5.0934    0.5497 H   0  0  0  0  0  0  0  0  0  0  0  0
  1  2  1  0
  1 29  1  0
  1 30  1  0
  1 31  1  0
  2  3  1  0
  2 32  1  0
  3 11  1  0
  3  4  1  0
  3 33  1  1
  4  5  2  3
  4 34  1  0
  5 21  1  0
  5  6  1  0
  6  7  2  0
  6  8  1  0
  8 13  1  0
  8 23  1  0
  8  9  1  1
  9 10  2  0
  9 35  1  0
 10 11  1  0
 10 36  1  0
 11 27  1  1
 11 12  1  0
 12 13  1  0
 12 37  1  0
 12 38  1  0
 13 14  1  0
 13 39  1  1
 14 15  1  0
 15 21  2  0
 15 16  1  0
 16 17  1  0
 16 18  2  0
 17 40  1  0
 18 19  1  0
 18 41  1  0
 19 20  2  0
 19 42  1  0
 20 21  1  0
 20 22  1  0
 22 23  1  0
 22 43  1  0
 22 44  1  0
 23 24  1  0
 23 45  1  1
 24 25  1  0
 24 26  1  0
 24 51  1  6
 25 46  1  0
 25 47  1  0
 25 48  1  0
 26 27  1  0
 26 49  1  0
 26 50  1  0
 27 28  2  0
M  CHG  1  24   1
M  END
>  <i_m_ct_stereo_status>  (211) 
1

>  <s_m_source_file>  (211) 
/var/tmp/pbs.5076255.sched01/tmpqwfmwtcs/46j3o47u_k.sdf

>  <i_m_source_file_index>  (211) 
40

>  <i_lp_mmshare_version>  (211) 
48012

>  <i_f3d_flags>  (211) 
0

>  <s_epik_input>  (211) 
W0NAXTEyM1tDQEhdNFtDSDJdQzUoW0NIXT1bQ0hdMilbQ0BIXShbTkhdW0NIM10pL1tDSF09QyhcQzE9TyljNmMoTzQpYyhbT0hdKVtjSF1bY0hdYzZbQ0gyXVtDQEhdM04oW0NIM10pW0NIMl1DNT1P

>  <s_epik_cmdline>  (211) 
J2VwaWtfcHl0aG9uJywgJy1waHQnLCAnMi4wJywgJy1waCcsICc3LjAnLCAnLXRuJywgJzgnLCAnLW1hJywgJzIwMCcsICctaW1hZScsICc8aW5maWxlLm1hZT4nLCAnLW9tYWUnLCAnPG91dGZpbGUubWFlPic=

>  <r_epik_Ionization_Penalty>  (211) 
1.6586

>  <r_epik_Ionization_Penalty_Charging>  (211) 
1.63256

>  <r_epik_Ionization_Penalty_Neutral>  (211) 
0.0260403

>  <r_epik_State_Penalty>  (211) 
1.89487

>  <r_epik_Charging_Adjusted_Penalty>  (211) 
3.52743

>  <i_epik_Tot_Q>  (211) 
1

>  <i_epik_Tot_abs_Q>  (211) 
1

>  <s_lp_Force_Field>  (211) 
OPLS3e

>  <r_lp_Energy>  (211) 
499.079

>  <b_lp_Chiralities_Consistent>  (211) 
1

>  <s_lp_Variant>  (211) 
54:0-7

>  <s_i_glide_gridfile>  (211) 
pfpi4k_grid

>  <i_i_glide_lignum>  (211) 
40

>  <i_i_glide_rotatable_bonds>  (211) 
2

>  <r_i_docking_score>  (211) 
-4.33371

>  <r_i_glide_ligand_efficiency>  (211) 
-0.154775

>  <r_i_glide_ligand_efficiency_sa>  (211) 
-0.469989

>  <r_i_glide_ligand_efficiency_ln>  (211) 
-1.00035

>  <r_i_glide_gscore>  (211) 
-4.33371

>  <r_i_glide_lipo>  (211) 
-1.19074

>  <r_i_glide_hbond>  (211) 
-0.0983138

>  <r_i_glide_metal>  (211) 
-0

>  <r_i_glide_rewards>  (211) 
-0.957772

>  <r_i_glide_evdw>  (211) 
-15.8055

>  <r_i_glide_ecoul>  (211) 
-8.63784

>  <r_i_glide_erotb>  (211) 
0

>  <r_i_glide_esite>  (211) 
-0.000931321

>  <r_i_glide_emodel>  (211) 
-25.3022

>  <r_i_glide_energy>  (211) 
-24.4433

>  <r_i_glide_einternal>  (211) 
2.00771

>  <r_i_glide_intrahb_reward>  (211) 
-0

>  <i_i_glide_confnum>  (211) 
2

>  <i_i_glide_posenum>  (211) 
12

>  <r_i_glide_eff_state_penalty>  (211) 
0

>  <ligand_id>  (211) 
54

>  <original_smiles>  (211) 
CNC1C=C2C(=O)C34C=CC15CC3Oc1c(O)ccc(c12)CC4N(C)CC5=O

>  <smiles>  (211) 
[H]Oc1c([H])c([H])c2c3c1OC1([H])C([H])([H])C45C(=O)C([H])([H])[N+]([H])(C([H])([H])[H])C([H])(C2([H])[H])C1(C(=O)C3=C([H])C4([H])N([H])C([H])([H])[H])C([H])=C5[H]

$$$$
54:6:1
     RDKit          3D

 51 56  0  0  1  0  0  0  0  0999 V2000
    9.2367   -2.4426    0.0279 C   0  0  0  0  0  0  0  0  0  0  0  0
    8.6671   -3.6169    0.7241 N   0  0  0  0  0  0  0  0  0  0  0  0
    7.2061   -3.8648    0.6565 C   0  0  2  0  0  0  0  0  0  0  0  0
    6.6001   -3.6756   -0.8332 C   0  0  0  0  0  0  0  0  0  0  0  0
    5.3033   -3.8979   -1.1411 C   0  0  0  0  0  0  0  0  0  0  0  0
    4.7167   -4.3031   -0.0369 C   0  0  0  0  0  0  0  0  0  0  0  0
    4.6552   -5.5322    0.1506 O   0  0  0  0  0  0  0  0  0  0  0  0
    4.0438   -3.0223    0.6845 C   0  0  1  0  0  0  0  0  0  0  0  0
    4.0557   -2.5457    2.1277 C   0  0  0  0  0  0  0  0  0  0  0  0
    5.2274   -2.6736    2.7273 C   0  0  0  0  0  0  0  0  0  0  0  0
    6.4728   -3.2403    2.0311 C   0  0  2  0  0  0  0  0  0  0  0  0
    6.2503   -1.8250    1.0968 C   0  0  0  0  0  0  0  0  0  0  0  0
    4.8391   -1.6468    0.2908 C   0  0  1  0  0  0  0  0  0  0  0  0
    5.3201   -1.2501   -1.0486 O   0  0  0  0  0  0  0  0  0  0  0  0
    4.6447   -1.8120   -2.0904 C   0  0  0  0  0  0  0  0  0  0  0  0
    3.9124   -1.0737   -3.0433 C   0  0  0  0  0  0  0  0  0  0  0  0
    4.2137    0.2293   -3.2794 O   0  0  0  0  0  0  0  0  0  0  0  0
    2.7588   -1.6366   -3.6257 C   0  0  0  0  0  0  0  0  0  0  0  0
    2.1844   -2.7653   -3.0003 C   0  0  0  0  0  0  0  0  0  0  0  0
    2.9032   -3.4817   -2.0142 C   0  0  0  0  0  0  0  0  0  0  0  0
    4.2968   -3.1385   -1.9387 C   0  0  0  0  0  0  0  0  0  0  0  0
    2.2161   -4.1355   -0.7639 C   0  0  0  0  0  0  0  0  0  0  0  0
    2.6933   -3.6661    0.7058 C   0  0  1  0  0  0  0  0  0  0  0  0
    2.8421   -4.8309    1.8073 N   0  0  2  0  0  0  0  0  0  0  0  0
    1.5838   -5.0356    2.5558 C   0  0  0  0  0  0  0  0  0  0  0  0
    4.0851   -5.0557    2.8226 C   0  0  0  0  0  0  0  0  0  0  0  0
    5.7002   -4.6379    2.6301 C   0  0  0  0  0  0  0  0  0  0  0  0
    6.4425   -5.4896    3.0978 O   0  0  0  0  0  0  0  0  0  0  0  0
   10.3454   -2.4419    0.0988 H   0  0  0  0  0  0  0  0  0  0  0  0
    8.8497   -1.5165    0.4441 H   0  0  0  0  0  0  0  0  0  0  0  0
    9.0386   -2.4722   -1.0579 H   0  0  0  0  0  0  0  0  0  0  0  0
    8.9656   -3.6324    1.6958 H   0  0  0  0  0  0  0  0  0  0  0  0
    7.2112   -4.9493    0.7930 H   0  0  0  0  0  0  0  0  0  0  0  0
    7.1884   -3.1118   -1.5656 H   0  0  0  0  0  0  0  0  0  0  0  0
    3.2135   -2.0702    2.5894 H   0  0  0  0  0  0  0  0  0  0  0  0
    5.4020   -2.2914    3.7185 H   0  0  0  0  0  0  0  0  0  0  0  0
    6.3435   -0.9735    1.7867 H   0  0  0  0  0  0  0  0  0  0  0  0
    7.0046   -1.5927    0.3716 H   0  0  0  0  0  0  0  0  0  0  0  0
    4.2788   -0.7638    0.6463 H   0  0  0  0  0  0  0  0  0  0  0  0
    3.4476    0.7805   -3.4337 H   0  0  0  0  0  0  0  0  0  0  0  0
    2.2162   -1.0452   -4.3443 H   0  0  0  0  0  0  0  0  0  0  0  0
    1.1369   -2.9892   -3.1719 H   0  0  0  0  0  0  0  0  0  0  0  0
    1.1657   -3.9542   -0.8906 H   0  0  0  0  0  0  0  0  0  0  0  0
    2.2726   -5.2197   -0.7680 H   0  0  0  0  0  0  0  0  0  0  0  0
    1.9824   -2.9185    1.0376 H   0  0  0  0  0  0  0  0  0  0  0  0
    1.3932   -4.2011    3.2190 H   0  0  0  0  0  0  0  0  0  0  0  0
    1.6220   -5.9525    3.1170 H   0  0  0  0  0  0  0  0  0  0  0  0
    0.7611   -5.1533    1.8850 H   0  0  0  0  0  0  0  0  0  0  0  0
    3.7806   -4.6282    3.7859 H   0  0  0  0  0  0  0  0  0  0  0  0
    4.0960   -6.1277    2.9780 H   0  0  0  0  0  0  0  0  0  0  0  0
    2.9585   -5.6321    1.1909 H   0  0  0  0  0  0  0  0  0  0  0  0
  1  2  1  0
  1 29  1  0
  1 30  1  0
  1 31  1  0
  2  3  1  0
  2 32  1  0
  3 11  1  0
  3  4  1  0
  3 33  1  1
  4  5  2  3
  4 34  1  0
  5 21  1  0
  5  6  1  0
  6  7  2  0
  6  8  1  0
  8 13  1  0
  8 23  1  0
  8  9  1  1
  9 10  2  0
  9 35  1  0
 10 11  1  0
 10 36  1  0
 11 27  1  1
 11 12  1  0
 12 13  1  0
 12 37  1  0
 12 38  1  0
 13 14  1  0
 13 39  1  1
 14 15  1  0
 15 21  2  0
 15 16  1  0
 16 17  1  0
 16 18  2  0
 17 40  1  0
 18 19  1  0
 18 41  1  0
 19 20  2  0
 19 42  1  0
 20 21  1  0
 20 22  1  0
 22 23  1  0
 22 43  1  0
 22 44  1  0
 23 24  1  0
 23 45  1  1
 24 25  1  0
 24 26  1  0
 24 51  1  6
 25 46  1  0
 25 47  1  0
 25 48  1  0
 26 27  1  0
 26 49  1  0
 26 50  1  0
 27 28  2  0
M  CHG  1  24   1
M  END
>  <i_m_ct_stereo_status>  (212) 
1

>  <s_m_source_file>  (212) 
/var/tmp/pbs.5076255.sched01/tmpqwfmwtcs/46j3o47u_k.sdf

>  <i_m_source_file_index>  (212) 
40

>  <i_lp_mmshare_version>  (212) 
48012

>  <i_f3d_flags>  (212) 
0

>  <s_epik_input>  (212) 
W0NAXTEyM1tDQEhdNFtDSDJdQzUoW0NIXT1bQ0hdMilbQ0BIXShbTkhdW0NIM10pL1tDSF09QyhcQzE9TyljNmMoTzQpYyhbT0hdKVtjSF1bY0hdYzZbQ0gyXVtDQEhdM04oW0NIM10pW0NIMl1DNT1P

>  <s_epik_cmdline>  (212) 
J2VwaWtfcHl0aG9uJywgJy1waHQnLCAnMi4wJywgJy1waCcsICc3LjAnLCAnLXRuJywgJzgnLCAnLW1hJywgJzIwMCcsICctaW1hZScsICc8aW5maWxlLm1hZT4nLCAnLW9tYWUnLCAnPG91dGZpbGUubWFlPic=

>  <r_epik_Ionization_Penalty>  (212) 
1.6586

>  <r_epik_Ionization_Penalty_Charging>  (212) 
1.63256

>  <r_epik_Ionization_Penalty_Neutral>  (212) 
0.0260403

>  <r_epik_State_Penalty>  (212) 
1.89487

>  <r_epik_Charging_Adjusted_Penalty>  (212) 
3.52743

>  <i_epik_Tot_Q>  (212) 
1

>  <i_epik_Tot_abs_Q>  (212) 
1

>  <s_lp_Force_Field>  (212) 
OPLS3e

>  <r_lp_Energy>  (212) 
499.079

>  <b_lp_Chiralities_Consistent>  (212) 
1

>  <s_lp_Variant>  (212) 
54:0-7

>  <s_i_glide_gridfile>  (212) 
pfpi4k_grid

>  <i_i_glide_lignum>  (212) 
40

>  <i_i_glide_rotatable_bonds>  (212) 
2

>  <r_i_docking_score>  (212) 
-3.66656

>  <r_i_glide_ligand_efficiency>  (212) 
-0.130949

>  <r_i_glide_ligand_efficiency_sa>  (212) 
-0.397637

>  <r_i_glide_ligand_efficiency_ln>  (212) 
-0.84635

>  <r_i_glide_gscore>  (212) 
-3.66656

>  <r_i_glide_lipo>  (212) 
-0.84965

>  <r_i_glide_hbond>  (212) 
0

>  <r_i_glide_metal>  (212) 
-0

>  <r_i_glide_rewards>  (212) 
-0.883484

>  <r_i_glide_evdw>  (212) 
-19.2143

>  <r_i_glide_ecoul>  (212) 
-6.43596

>  <r_i_glide_erotb>  (212) 
0

>  <r_i_glide_esite>  (212) 
-0.00731631

>  <r_i_glide_emodel>  (212) 
-22.2686

>  <r_i_glide_energy>  (212) 
-25.6503

>  <r_i_glide_einternal>  (212) 
10.2397

>  <r_i_glide_intrahb_reward>  (212) 
-0

>  <i_i_glide_confnum>  (212) 
1

>  <i_i_glide_posenum>  (212) 
8

>  <r_i_glide_eff_state_penalty>  (212) 
0

>  <ligand_id>  (212) 
54

>  <original_smiles>  (212) 
CNC1C=C2C(=O)C34C=CC15CC3Oc1c(O)ccc(c12)CC4N(C)CC5=O

>  <smiles>  (212) 
[H]Oc1c([H])c([H])c2c3c1OC1([H])C([H])([H])C45C(=O)C([H])([H])[N+]([H])(C([H])([H])[H])C([H])(C2([H])[H])C1(C(=O)C3=C([H])C4([H])N([H])C([H])([H])[H])C([H])=C5[H]

$$$$
55:0:0
     RDKit          3D

 53 59  0  0  1  0  0  0  0  0999 V2000
    4.6050   -2.8808   -2.9314 C   0  0  0  0  0  0  0  0  0  0  0  0
    4.3984   -2.3232   -1.5059 C   0  0  2  0  0  0  0  0  0  0  0  0
    4.9935   -0.9200   -1.3318 C   0  0  0  0  0  0  0  0  0  0  0  0
    5.5585   -0.8841    0.1010 C   0  0  0  0  0  0  0  0  0  0  0  0
    4.9584   -2.1134    0.8012 C   0  0  1  0  0  0  0  0  0  0  0  0
    5.8534   -2.7357    1.9737 C   0  0  1  0  0  0  0  0  0  0  0  0
    5.0703   -2.7477    3.3090 C   0  0  1  0  0  0  0  0  0  0  0  0
    4.5850   -1.3630    3.7962 C   0  0  0  0  0  0  0  0  0  0  0  0
    3.1677   -0.9633    3.3673 C   0  0  0  0  0  0  0  0  0  0  0  0
    2.9571   -0.8168    1.8565 C   0  0  0  0  0  0  0  0  0  0  0  0
    3.4507   -1.9320    1.0034 N   0  0  2  0  0  0  0  0  0  0  0  0
    2.4726   -3.0813    0.6883 C   0  0  0  0  0  0  0  0  0  0  0  0
    3.0540   -4.4069    0.0348 C   0  0  0  0  0  0  0  0  0  0  0  0
    4.4532   -4.4414    0.5476 C   0  0  1  0  0  0  0  0  0  0  0  0
    5.9449   -4.7454    0.3162 C   0  0  1  0  0  0  0  0  0  0  0  0
    6.2318   -3.7902   -0.7358 C   0  0  0  0  0  0  0  0  0  0  0  0
    4.9712   -3.1186   -0.2534 C   0  0  1  0  0  0  0  0  0  0  0  0
    6.4696   -4.2487    1.6598 C   0  0  2  0  0  0  0  0  0  0  0  0
    5.8018   -5.3438    2.4705 C   0  0  1  0  0  0  0  0  0  0  0  0
    6.2350   -5.4593    3.8171 O   0  0  0  0  0  0  0  0  0  0  0  0
    4.3616   -4.9123    2.1239 C   0  0  1  0  0  0  0  0  0  0  0  0
    3.9932   -3.8648    3.2319 C   0  0  1  0  0  0  0  0  0  0  0  0
    3.8092   -4.4633    4.4972 O   0  0  0  0  0  0  0  0  0  0  0  0
    5.6431   -2.8308   -3.2628 H   0  0  0  0  0  0  0  0  0  0  0  0
    4.0181   -2.3065   -3.6520 H   0  0  0  0  0  0  0  0  0  0  0  0
    4.2712   -3.9177   -3.0023 H   0  0  0  0  0  0  0  0  0  0  0  0
    3.3218   -2.1934   -1.4747 H   0  0  0  0  0  0  0  0  0  0  0  0
    5.7650   -0.6996   -2.0666 H   0  0  0  0  0  0  0  0  0  0  0  0
    4.2194   -0.1741   -1.4545 H   0  0  0  0  0  0  0  0  0  0  0  0
    6.6435   -0.9904    0.0498 H   0  0  0  0  0  0  0  0  0  0  0  0
    5.3702    0.0623    0.6081 H   0  0  0  0  0  0  0  0  0  0  0  0
    6.7002   -2.0669    2.0765 H   0  0  0  0  0  0  0  0  0  0  0  0
    5.8116   -3.0354    4.0531 H   0  0  0  0  0  0  0  0  0  0  0  0
    4.6020   -1.3628    4.8872 H   0  0  0  0  0  0  0  0  0  0  0  0
    5.2957   -0.5904    3.4987 H   0  0  0  0  0  0  0  0  0  0  0  0
    2.4232   -1.6224    3.8143 H   0  0  0  0  0  0  0  0  0  0  0  0
    2.9481    0.0086    3.8115 H   0  0  0  0  0  0  0  0  0  0  0  0
    1.8894   -0.6966    1.6683 H   0  0  0  0  0  0  0  0  0  0  0  0
    3.4039    0.1165    1.5254 H   0  0  0  0  0  0  0  0  0  0  0  0
    1.8201   -3.3218    1.5200 H   0  0  0  0  0  0  0  0  0  0  0  0
    1.7927   -2.6594   -0.0367 H   0  0  0  0  0  0  0  0  0  0  0  0
    2.4777   -5.2836    0.3457 H   0  0  0  0  0  0  0  0  0  0  0  0
    3.0074   -4.3963   -1.0515 H   0  0  0  0  0  0  0  0  0  0  0  0
    6.1661   -5.7711    0.0195 H   0  0  0  0  0  0  0  0  0  0  0  0
    7.1623   -3.2420   -0.6020 H   0  0  0  0  0  0  0  0  0  0  0  0
    6.1925   -4.2508   -1.7090 H   0  0  0  0  0  0  0  0  0  0  0  0
    7.5577   -4.2955    1.7119 H   0  0  0  0  0  0  0  0  0  0  0  0
    5.9944   -6.3391    2.0634 H   0  0  0  0  0  0  0  0  0  0  0  0
    7.1209   -5.8023    3.8099 H   0  0  0  0  0  0  0  0  0  0  0  0
    3.6984   -5.7754    2.2316 H   0  0  0  0  0  0  0  0  0  0  0  0
    3.0132   -3.4772    3.0723 H   0  0  0  0  0  0  0  0  0  0  0  0
    4.6120   -4.9396    4.6842 H   0  0  0  0  0  0  0  0  0  0  0  0
    3.3000   -1.4597    0.1211 H   0  0  0  0  0  0  0  0  0  0  0  0
  1  2  1  0
  1 24  1  0
  1 25  1  0
  1 26  1  0
  2 17  1  0
  2  3  1  0
  2 27  1  1
  3  4  1  0
  3 28  1  0
  3 29  1  0
  5  4  1  6
  4 30  1  0
  4 31  1  0
  5 11  1  0
  5 17  1  0
  5  6  1  0
  6 18  1  0
  6  7  1  0
  6 32  1  1
  7 22  1  0
  7  8  1  0
  7 33  1  1
  8  9  1  0
  8 34  1  0
  8 35  1  0
  9 10  1  0
  9 36  1  0
  9 37  1  0
 10 11  1  0
 10 38  1  0
 10 39  1  0
 11 12  1  0
 11 53  1  6
 12 13  1  0
 12 40  1  0
 12 41  1  0
 14 13  1  6
 13 42  1  0
 13 43  1  0
 14 17  1  0
 14 21  1  0
 14 15  1  0
 15 16  1  0
 15 18  1  0
 15 44  1  6
 17 16  1  6
 16 45  1  0
 16 46  1  0
 18 19  1  0
 18 47  1  6
 19 20  1  0
 19 21  1  0
 19 48  1  6
 20 49  1  0
 21 22  1  0
 21 50  1  6
 22 23  1  0
 22 51  1  6
 23 52  1  0
M  CHG  1  11   1
M  END
>  <i_m_ct_stereo_status>  (213) 
1

>  <s_m_source_file>  (213) 
/var/tmp/pbs.5076255.sched01/tmpqwfmwtcs/46j3o47u_k.sdf

>  <i_m_source_file_index>  (213) 
41

>  <i_lp_mmshare_version>  (213) 
48012

>  <i_f3d_flags>  (213) 
0

>  <s_epik_input>  (213) 
W0NIMl0xW0NIMl1bQ0BASF0oW0NIM10pW0NAQF0yKFtDQF0xMzQpW0NAXTU2W0NAQEhdKFtDSDJdMilbQ0BIXTdbQ0BASF0zW0NIXShbQ0BIXShbT0hdKVtDQEBIXTZbQ0BASF03W09IXSlbQ0gyXVtDSDJdW0NIMl1ONFtDSDJdW0NIMl01

>  <s_epik_cmdline>  (213) 
J2VwaWtfcHl0aG9uJywgJy1waHQnLCAnMi4wJywgJy1waCcsICc3LjAnLCAnLXRuJywgJzgnLCAnLW1hJywgJzIwMCcsICctaW1hZScsICc8aW5maWxlLm1hZT4nLCAnLW9tYWUnLCAnPG91dGZpbGUubWFlPic=

>  <r_lp_tautomer_probability>  (213) 
1

>  <r_epik_Ionization_Penalty>  (213) 
7.50953e-05

>  <r_epik_Ionization_Penalty_Charging>  (213) 
7.49388e-05

>  <r_epik_Ionization_Penalty_Neutral>  (213) 
1.56493e-07

>  <r_epik_State_Penalty>  (213) 
-0

>  <r_epik_Charging_Adjusted_Penalty>  (213) 
7.49388e-05

>  <i_epik_Tot_Q>  (213) 
1

>  <i_epik_Tot_abs_Q>  (213) 
1

>  <s_lp_Force_Field>  (213) 
OPLS3e

>  <r_lp_Energy>  (213) 
228.3

>  <b_lp_Chiralities_Consistent>  (213) 
1

>  <s_lp_Variant>  (213) 
55:0-1

>  <s_i_glide_gridfile>  (213) 
pfpi4k_grid

>  <i_i_glide_lignum>  (213) 
41

>  <i_i_glide_rotatable_bonds>  (213) 
2

>  <r_i_docking_score>  (213) 
-3.90795

>  <r_i_glide_ligand_efficiency>  (213) 
-0.169911

>  <r_i_glide_ligand_efficiency_sa>  (213) 
-0.483204

>  <r_i_glide_ligand_efficiency_ln>  (213) 
-0.944978

>  <r_i_glide_gscore>  (213) 
-3.90795

>  <r_i_glide_lipo>  (213) 
-0.645925

>  <r_i_glide_hbond>  (213) 
0

>  <r_i_glide_metal>  (213) 
-0

>  <r_i_glide_rewards>  (213) 
-1.75142

>  <r_i_glide_evdw>  (213) 
-18.3168

>  <r_i_glide_ecoul>  (213) 
-3.76454

>  <r_i_glide_erotb>  (213) 
0

>  <r_i_glide_esite>  (213) 
-0.0300787

>  <r_i_glide_emodel>  (213) 
-31.5283

>  <r_i_glide_energy>  (213) 
-22.0813

>  <r_i_glide_einternal>  (213) 
0.37097

>  <r_i_glide_intrahb_reward>  (213) 
-0.5

>  <i_i_glide_confnum>  (213) 
2

>  <i_i_glide_posenum>  (213) 
31

>  <r_i_glide_eff_state_penalty>  (213) 
0

>  <ligand_id>  (213) 
55

>  <original_smiles>  (213) 
CC1CCC23C4C5CCCN2CCC26C(CC123)C4C(O)C6C5O

>  <smiles>  (213) 
[H]OC1([H])C2([H])C([H])([H])C([H])([H])C([H])([H])[N+]3([H])C([H])([H])C([H])([H])C45C1([H])C([H])(O[H])C1([H])C4([H])C([H])([H])C54C([H])(C([H])([H])[H])C([H])([H])C([H])([H])C43C21[H]

$$$$
55:0:1
     RDKit          3D

 53 59  0  0  1  0  0  0  0  0999 V2000
    2.8178   -6.3709    4.1215 C   0  0  0  0  0  0  0  0  0  0  0  0
    2.8970   -5.5306    2.8308 C   0  0  2  0  0  0  0  0  0  0  0  0
    2.0485   -6.1161    1.6930 C   0  0  0  0  0  0  0  0  0  0  0  0
    2.8803   -5.8503    0.4311 C   0  0  0  0  0  0  0  0  0  0  0  0
    3.9685   -4.8457    0.8187 C   0  0  1  0  0  0  0  0  0  0  0  0
    5.3239   -4.9288   -0.0478 C   0  0  1  0  0  0  0  0  0  0  0  0
    5.6052   -3.5685   -0.7502 C   0  0  1  0  0  0  0  0  0  0  0  0
    4.5052   -3.0764   -1.7170 C   0  0  0  0  0  0  0  0  0  0  0  0
    3.4420   -2.1549   -1.0988 C   0  0  0  0  0  0  0  0  0  0  0  0
    2.6190   -2.7893    0.0241 C   0  0  0  0  0  0  0  0  0  0  0  0
    3.3298   -3.4772    1.1074 N   0  0  2  0  0  0  0  0  0  0  0  0
    3.6909   -2.6544    2.3745 C   0  0  0  0  0  0  0  0  0  0  0  0
    4.7287   -3.3078    3.3759 C   0  0  0  0  0  0  0  0  0  0  0  0
    5.5178   -4.2370    2.4900 C   0  0  1  0  0  0  0  0  0  0  0  0
    6.2633   -5.5786    2.3014 C   0  0  1  0  0  0  0  0  0  0  0  0
    5.1621   -6.5027    2.4620 C   0  0  0  0  0  0  0  0  0  0  0  0
    4.3194   -5.2767    2.1628 C   0  0  1  0  0  0  0  0  0  0  0  0
    6.6515   -5.4047    0.8315 C   0  0  2  0  0  0  0  0  0  0  0  0
    7.6192   -4.2685    1.0823 C   0  0  1  0  0  0  0  0  0  0  0  0
    8.4890   -3.9643   -0.0005 O   0  0  0  0  0  0  0  0  0  0  0  0
    6.5315   -3.2920    1.5857 C   0  0  1  0  0  0  0  0  0  0  0  0
    6.0290   -2.5448    0.3278 C   0  0  1  0  0  0  0  0  0  0  0  0
    6.9857   -1.6100   -0.1440 O   0  0  0  0  0  0  0  0  0  0  0  0
    3.0460   -7.4267    3.9572 H   0  0  0  0  0  0  0  0  0  0  0  0
    1.8093   -6.3279    4.5409 H   0  0  0  0  0  0  0  0  0  0  0  0
    3.4997   -5.9857    4.8818 H   0  0  0  0  0  0  0  0  0  0  0  0
    2.3930   -4.6188    3.1253 H   0  0  0  0  0  0  0  0  0  0  0  0
    1.8570   -7.1843    1.8096 H   0  0  0  0  0  0  0  0  0  0  0  0
    1.0795   -5.6166    1.6453 H   0  0  0  0  0  0  0  0  0  0  0  0
    3.3959   -6.7652    0.1541 H   0  0  0  0  0  0  0  0  0  0  0  0
    2.2645   -5.5614   -0.4167 H   0  0  0  0  0  0  0  0  0  0  0  0
    5.1794   -5.6771   -0.8187 H   0  0  0  0  0  0  0  0  0  0  0  0
    6.4603   -3.7570   -1.3999 H   0  0  0  0  0  0  0  0  0  0  0  0
    4.9813   -2.5241   -2.5313 H   0  0  0  0  0  0  0  0  0  0  0  0
    4.0160   -3.9289   -2.1898 H   0  0  0  0  0  0  0  0  0  0  0  0
    3.8730   -1.1983   -0.7954 H   0  0  0  0  0  0  0  0  0  0  0  0
    2.7472   -1.8777   -1.8881 H   0  0  0  0  0  0  0  0  0  0  0  0
    2.0567   -2.0013    0.5079 H   0  0  0  0  0  0  0  0  0  0  0  0
    1.8827   -3.4496   -0.4336 H   0  0  0  0  0  0  0  0  0  0  0  0
    4.0021   -1.6461    2.1295 H   0  0  0  0  0  0  0  0  0  0  0  0
    2.7665   -2.4669    2.9128 H   0  0  0  0  0  0  0  0  0  0  0  0
    5.3580   -2.5482    3.8466 H   0  0  0  0  0  0  0  0  0  0  0  0
    4.2449   -3.8381    4.1978 H   0  0  0  0  0  0  0  0  0  0  0  0
    7.0554   -5.7649    3.0282 H   0  0  0  0  0  0  0  0  0  0  0  0
    5.1382   -7.2893    1.7048 H   0  0  0  0  0  0  0  0  0  0  0  0
    5.1689   -6.9086    3.4741 H   0  0  0  0  0  0  0  0  0  0  0  0
    7.1583   -6.2850    0.4343 H   0  0  0  0  0  0  0  0  0  0  0  0
    8.3201   -4.4933    1.8904 H   0  0  0  0  0  0  0  0  0  0  0  0
    8.8049   -3.0832    0.1035 H   0  0  0  0  0  0  0  0  0  0  0  0
    6.9634   -2.5006    2.1737 H   0  0  0  0  0  0  0  0  0  0  0  0
    5.2523   -1.8648    0.6051 H   0  0  0  0  0  0  0  0  0  0  0  0
    7.1153   -0.9575    0.5288 H   0  0  0  0  0  0  0  0  0  0  0  0
    2.5115   -3.8907    1.5285 H   0  0  0  0  0  0  0  0  0  0  0  0
  1  2  1  0
  1 24  1  0
  1 25  1  0
  1 26  1  0
  2 17  1  0
  2  3  1  0
  2 27  1  1
  3  4  1  0
  3 28  1  0
  3 29  1  0
  5  4  1  6
  4 30  1  0
  4 31  1  0
  5 11  1  0
  5 17  1  0
  5  6  1  0
  6 18  1  0
  6  7  1  0
  6 32  1  6
  7 22  1  0
  7  8  1  0
  7 33  1  6
  8  9  1  0
  8 34  1  0
  8 35  1  0
  9 10  1  0
  9 36  1  0
  9 37  1  0
 10 11  1  0
 10 38  1  0
 10 39  1  0
 11 12  1  0
 11 53  1  1
 12 13  1  0
 12 40  1  0
 12 41  1  0
 14 13  1  1
 13 42  1  0
 13 43  1  0
 14 17  1  0
 14 21  1  0
 14 15  1  0
 15 16  1  0
 15 18  1  0
 15 44  1  1
 17 16  1  6
 16 45  1  0
 16 46  1  0
 18 19  1  0
 18 47  1  6
 19 20  1  0
 19 21  1  0
 19 48  1  1
 20 49  1  0
 21 22  1  0
 21 50  1  1
 22 23  1  0
 22 51  1  1
 23 52  1  0
M  CHG  1  11   1
M  END
>  <i_m_ct_stereo_status>  (214) 
1

>  <s_m_source_file>  (214) 
/var/tmp/pbs.5076255.sched01/tmpqwfmwtcs/46j3o47u_k.sdf

>  <i_m_source_file_index>  (214) 
41

>  <i_lp_mmshare_version>  (214) 
48012

>  <i_f3d_flags>  (214) 
0

>  <s_epik_input>  (214) 
W0NIMl0xW0NIMl1bQ0BASF0oW0NIM10pW0NAQF0yKFtDQF0xMzQpW0NAXTU2W0NAQEhdKFtDSDJdMilbQ0BIXTdbQ0BASF0zW0NIXShbQ0BIXShbT0hdKVtDQEBIXTZbQ0BASF03W09IXSlbQ0gyXVtDSDJdW0NIMl1ONFtDSDJdW0NIMl01

>  <s_epik_cmdline>  (214) 
J2VwaWtfcHl0aG9uJywgJy1waHQnLCAnMi4wJywgJy1waCcsICc3LjAnLCAnLXRuJywgJzgnLCAnLW1hJywgJzIwMCcsICctaW1hZScsICc8aW5maWxlLm1hZT4nLCAnLW9tYWUnLCAnPG91dGZpbGUubWFlPic=

>  <r_lp_tautomer_probability>  (214) 
1

>  <r_epik_Ionization_Penalty>  (214) 
7.50953e-05

>  <r_epik_Ionization_Penalty_Charging>  (214) 
7.49388e-05

>  <r_epik_Ionization_Penalty_Neutral>  (214) 
1.56493e-07

>  <r_epik_State_Penalty>  (214) 
-0

>  <r_epik_Charging_Adjusted_Penalty>  (214) 
7.49388e-05

>  <i_epik_Tot_Q>  (214) 
1

>  <i_epik_Tot_abs_Q>  (214) 
1

>  <s_lp_Force_Field>  (214) 
OPLS3e

>  <r_lp_Energy>  (214) 
228.3

>  <b_lp_Chiralities_Consistent>  (214) 
1

>  <s_lp_Variant>  (214) 
55:0-1

>  <s_i_glide_gridfile>  (214) 
pfpi4k_grid

>  <i_i_glide_lignum>  (214) 
41

>  <i_i_glide_rotatable_bonds>  (214) 
2

>  <r_i_docking_score>  (214) 
-3.57902

>  <r_i_glide_ligand_efficiency>  (214) 
-0.15561

>  <r_i_glide_ligand_efficiency_sa>  (214) 
-0.442533

>  <r_i_glide_ligand_efficiency_ln>  (214) 
-0.86544

>  <r_i_glide_gscore>  (214) 
-3.57902

>  <r_i_glide_lipo>  (214) 
-0.564351

>  <r_i_glide_hbond>  (214) 
0

>  <r_i_glide_metal>  (214) 
-0

>  <r_i_glide_rewards>  (214) 
-1.25142

>  <r_i_glide_evdw>  (214) 
-14.8272

>  <r_i_glide_ecoul>  (214) 
-6.80401

>  <r_i_glide_erotb>  (214) 
0

>  <r_i_glide_esite>  (214) 
-0.0012879

>  <r_i_glide_emodel>  (214) 
-25.3662

>  <r_i_glide_energy>  (214) 
-21.6312

>  <r_i_glide_einternal>  (214) 
0.807399

>  <r_i_glide_intrahb_reward>  (214) 
-0

>  <i_i_glide_confnum>  (214) 
2

>  <i_i_glide_posenum>  (214) 
2

>  <r_i_glide_eff_state_penalty>  (214) 
0

>  <ligand_id>  (214) 
55

>  <original_smiles>  (214) 
CC1CCC23C4C5CCCN2CCC26C(CC123)C4C(O)C6C5O

>  <smiles>  (214) 
[H]OC1([H])C2([H])C([H])([H])C([H])([H])C([H])([H])[N+]3([H])C([H])([H])C([H])([H])C45C1([H])C([H])(O[H])C1([H])C4([H])C([H])([H])C54C([H])(C([H])([H])[H])C([H])([H])C([H])([H])C43C21[H]

$$$$
55:0:2
     RDKit          3D

 53 59  0  0  1  0  0  0  0  0999 V2000
    4.6656   -0.9654   -2.0940 C   0  0  0  0  0  0  0  0  0  0  0  0
    4.4130   -2.2795   -1.3328 C   0  0  2  0  0  0  0  0  0  0  0  0
    3.2181   -3.0543   -1.8929 C   0  0  0  0  0  0  0  0  0  0  0  0
    2.5559   -3.6767   -0.6550 C   0  0  0  0  0  0  0  0  0  0  0  0
    3.5661   -3.5345    0.4920 C   0  0  1  0  0  0  0  0  0  0  0  0
    2.9299   -3.4355    1.9659 C   0  0  1  0  0  0  0  0  0  0  0  0
    3.4582   -4.5842    2.8582 C   0  0  1  0  0  0  0  0  0  0  0  0
    3.1544   -6.0080    2.3452 C   0  0  0  0  0  0  0  0  0  0  0  0
    4.2508   -6.6447    1.4835 C   0  0  0  0  0  0  0  0  0  0  0  0
    4.5454   -5.9215    0.1716 C   0  0  0  0  0  0  0  0  0  0  0  0
    4.7626   -4.4585    0.2307 N   0  0  2  0  0  0  0  0  0  0  0  0
    6.2207   -3.9593    0.3972 C   0  0  0  0  0  0  0  0  0  0  0  0
    6.4110   -2.4325    0.7811 C   0  0  0  0  0  0  0  0  0  0  0  0
    5.1466   -2.0895    1.5102 C   0  0  1  0  0  0  0  0  0  0  0  0
    4.0239   -1.0826    1.8289 C   0  0  1  0  0  0  0  0  0  0  0  0
    3.4769   -0.9059    0.5099 C   0  0  0  0  0  0  0  0  0  0  0  0
    4.1613   -2.2297    0.2324 C   0  0  1  0  0  0  0  0  0  0  0  0
    3.1558   -1.9786    2.7143 C   0  0  2  0  0  0  0  0  0  0  0  0
    4.1650   -2.0523    3.8415 C   0  0  1  0  0  0  0  0  0  0  0  0
    3.6922   -2.6214    5.0588 O   0  0  0  0  0  0  0  0  0  0  0  0
    5.2426   -2.7666    3.0071 C   0  0  1  0  0  0  0  0  0  0  0  0
    4.9462   -4.2886    3.1938 C   0  0  1  0  0  0  0  0  0  0  0  0
    5.2717   -4.7503    4.4892 O   0  0  0  0  0  0  0  0  0  0  0  0
    3.7799   -0.3307   -2.1657 H   0  0  0  0  0  0  0  0  0  0  0  0
    4.9902   -1.1766   -3.1157 H   0  0  0  0  0  0  0  0  0  0  0  0
    5.4555   -0.3874   -1.6155 H   0  0  0  0  0  0  0  0  0  0  0  0
    5.2829   -2.8624   -1.6029 H   0  0  0  0  0  0  0  0  0  0  0  0
    2.5126   -2.4183   -2.4280 H   0  0  0  0  0  0  0  0  0  0  0  0
    3.5531   -3.8318   -2.5883 H   0  0  0  0  0  0  0  0  0  0  0  0
    1.6959   -3.0556   -0.4285 H   0  0  0  0  0  0  0  0  0  0  0  0
    2.1728   -4.6800   -0.8217 H   0  0  0  0  0  0  0  0  0  0  0  0
    1.8555   -3.5481    1.8714 H   0  0  0  0  0  0  0  0  0  0  0  0
    2.8632   -4.5137    3.7663 H   0  0  0  0  0  0  0  0  0  0  0  0
    3.0139   -6.6624    3.2087 H   0  0  0  0  0  0  0  0  0  0  0  0
    2.2032   -6.0249    1.8085 H   0  0  0  0  0  0  0  0  0  0  0  0
    5.1594   -6.8213    2.0607 H   0  0  0  0  0  0  0  0  0  0  0  0
    3.9226   -7.6499    1.2160 H   0  0  0  0  0  0  0  0  0  0  0  0
    5.4150   -6.3758   -0.2802 H   0  0  0  0  0  0  0  0  0  0  0  0
    3.7469   -6.1433   -0.5224 H   0  0  0  0  0  0  0  0  0  0  0  0
    6.7962   -4.5771    1.0705 H   0  0  0  0  0  0  0  0  0  0  0  0
    6.7328   -4.1290   -0.5409 H   0  0  0  0  0  0  0  0  0  0  0  0
    7.3044   -2.3032    1.3914 H   0  0  0  0  0  0  0  0  0  0  0  0
    6.5677   -1.7904   -0.0836 H   0  0  0  0  0  0  0  0  0  0  0  0
    4.3697   -0.1360    2.2203 H   0  0  0  0  0  0  0  0  0  0  0  0
    2.3933   -0.9245    0.5212 H   0  0  0  0  0  0  0  0  0  0  0  0
    3.8953    0.0132    0.0928 H   0  0  0  0  0  0  0  0  0  0  0  0
    2.2365   -1.4836    3.0262 H   0  0  0  0  0  0  0  0  0  0  0  0
    4.5234   -1.0641    4.1364 H   0  0  0  0  0  0  0  0  0  0  0  0
    4.3444   -2.4838    5.7279 H   0  0  0  0  0  0  0  0  0  0  0  0
    6.2134   -2.5410    3.4494 H   0  0  0  0  0  0  0  0  0  0  0  0
    5.6308   -4.8715    2.6212 H   0  0  0  0  0  0  0  0  0  0  0  0
    4.6853   -4.3078    5.0841 H   0  0  0  0  0  0  0  0  0  0  0  0
    4.7317   -4.3093   -0.7659 H   0  0  0  0  0  0  0  0  0  0  0  0
  1  2  1  0
  1 24  1  0
  1 25  1  0
  1 26  1  0
  2 17  1  0
  2  3  1  0
  2 27  1  1
  3  4  1  0
  3 28  1  0
  3 29  1  0
  5  4  1  6
  4 30  1  0
  4 31  1  0
  5 11  1  0
  5 17  1  0
  5  6  1  0
  6 18  1  0
  6  7  1  0
  6 32  1  6
  7 22  1  0
  7  8  1  0
  7 33  1  1
  8  9  1  0
  8 34  1  0
  8 35  1  0
  9 10  1  0
  9 36  1  0
  9 37  1  0
 10 11  1  0
 10 38  1  0
 10 39  1  0
 11 12  1  0
 11 53  1  6
 12 13  1  0
 12 40  1  0
 12 41  1  0
 14 13  1  6
 13 42  1  0
 13 43  1  0
 14 17  1  0
 14 21  1  0
 14 15  1  0
 15 16  1  0
 15 18  1  0
 15 44  1  1
 17 16  1  6
 16 45  1  0
 16 46  1  0
 18 19  1  0
 18 47  1  1
 19 20  1  0
 19 21  1  0
 19 48  1  1
 20 49  1  0
 21 22  1  0
 21 50  1  1
 22 23  1  0
 22 51  1  6
 23 52  1  0
M  CHG  1  11   1
M  END
>  <i_m_ct_stereo_status>  (215) 
1

>  <s_m_source_file>  (215) 
/var/tmp/pbs.5076255.sched01/tmpqwfmwtcs/46j3o47u_k.sdf

>  <i_m_source_file_index>  (215) 
41

>  <i_lp_mmshare_version>  (215) 
48012

>  <i_f3d_flags>  (215) 
0

>  <s_epik_input>  (215) 
W0NIMl0xW0NIMl1bQ0BASF0oW0NIM10pW0NAQF0yKFtDQF0xMzQpW0NAXTU2W0NAQEhdKFtDSDJdMilbQ0BIXTdbQ0BASF0zW0NIXShbQ0BIXShbT0hdKVtDQEBIXTZbQ0BASF03W09IXSlbQ0gyXVtDSDJdW0NIMl1ONFtDSDJdW0NIMl01

>  <s_epik_cmdline>  (215) 
J2VwaWtfcHl0aG9uJywgJy1waHQnLCAnMi4wJywgJy1waCcsICc3LjAnLCAnLXRuJywgJzgnLCAnLW1hJywgJzIwMCcsICctaW1hZScsICc8aW5maWxlLm1hZT4nLCAnLW9tYWUnLCAnPG91dGZpbGUubWFlPic=

>  <r_lp_tautomer_probability>  (215) 
1

>  <r_epik_Ionization_Penalty>  (215) 
7.50953e-05

>  <r_epik_Ionization_Penalty_Charging>  (215) 
7.49388e-05

>  <r_epik_Ionization_Penalty_Neutral>  (215) 
1.56493e-07

>  <r_epik_State_Penalty>  (215) 
-0

>  <r_epik_Charging_Adjusted_Penalty>  (215) 
7.49388e-05

>  <i_epik_Tot_Q>  (215) 
1

>  <i_epik_Tot_abs_Q>  (215) 
1

>  <s_lp_Force_Field>  (215) 
OPLS3e

>  <r_lp_Energy>  (215) 
228.3

>  <b_lp_Chiralities_Consistent>  (215) 
1

>  <s_lp_Variant>  (215) 
55:0-1

>  <s_i_glide_gridfile>  (215) 
pfpi4k_grid

>  <i_i_glide_lignum>  (215) 
41

>  <i_i_glide_rotatable_bonds>  (215) 
2

>  <r_i_docking_score>  (215) 
-3.00564

>  <r_i_glide_ligand_efficiency>  (215) 
-0.13068

>  <r_i_glide_ligand_efficiency_sa>  (215) 
-0.371637

>  <r_i_glide_ligand_efficiency_ln>  (215) 
-0.726792

>  <r_i_glide_gscore>  (215) 
-3.00564

>  <r_i_glide_lipo>  (215) 
-0.446577

>  <r_i_glide_hbond>  (215) 
0

>  <r_i_glide_metal>  (215) 
-0

>  <r_i_glide_rewards>  (215) 
-1.25142

>  <r_i_glide_evdw>  (215) 
-18.8821

>  <r_i_glide_ecoul>  (215) 
-2.42358

>  <r_i_glide_erotb>  (215) 
0

>  <r_i_glide_esite>  (215) 
0

>  <r_i_glide_emodel>  (215) 
-24.7874

>  <r_i_glide_energy>  (215) 
-21.3056

>  <r_i_glide_einternal>  (215) 
0.30805

>  <r_i_glide_intrahb_reward>  (215) 
-0

>  <i_i_glide_confnum>  (215) 
1

>  <i_i_glide_posenum>  (215) 
26

>  <r_i_glide_eff_state_penalty>  (215) 
0

>  <ligand_id>  (215) 
55

>  <original_smiles>  (215) 
CC1CCC23C4C5CCCN2CCC26C(CC123)C4C(O)C6C5O

>  <smiles>  (215) 
[H]OC1([H])C2([H])C([H])([H])C([H])([H])C([H])([H])[N+]3([H])C([H])([H])C([H])([H])C45C1([H])C([H])(O[H])C1([H])C4([H])C([H])([H])C54C([H])(C([H])([H])[H])C([H])([H])C([H])([H])C43C21[H]

$$$$
56:0:0
     RDKit          3D

 68 73  0  0  1  0  0  0  0  0999 V2000
    3.1817   -0.5245    3.4260 C   0  0  0  0  0  0  0  0  0  0  0  0
    4.0256   -1.7901    3.2828 C   0  0  0  0  0  0  0  0  0  0  0  0
    3.7205   -2.9516    3.9828 C   0  0  0  0  0  0  0  0  0  0  0  0
    2.3266   -3.2546    3.7776 C   0  0  0  0  0  0  0  0  0  0  0  0
    1.4311   -3.2024    4.6184 O   0  0  0  0  0  0  0  0  0  0  0  0
    2.1160   -3.6753    2.4126 C   0  0  0  0  0  0  0  0  0  0  0  0
    3.0764   -3.6783    1.4549 C   0  0  0  0  0  0  0  0  0  0  0  0
    4.6126   -3.2406    1.3438 C   0  0  1  0  0  0  0  0  0  0  0  0
    5.7545   -4.1607    2.0388 C   0  0  2  0  0  0  0  0  0  0  0  0
    7.1420   -4.4752    1.3413 C   0  0  0  0  0  0  0  0  0  0  0  0
    8.0637   -5.4839    2.0503 C   0  0  0  0  0  0  0  0  0  0  0  0
    7.2764   -6.6701    2.6163 C   0  0  1  0  0  0  0  0  0  0  0  0
    8.2459   -7.7078    3.1996 C   0  0  0  0  0  0  0  0  0  0  0  0
    6.2829   -6.0921    3.6479 C   0  0  2  0  0  0  0  0  0  0  0  0
    5.6581   -7.0978    4.6418 C   0  0  0  0  0  0  0  0  0  0  0  0
    4.9136   -6.3740    5.7655 C   0  0  0  0  0  0  0  0  0  0  0  0
    3.9270   -5.2588    5.3238 C   0  0  1  0  0  0  0  0  0  0  0  0
    3.4350   -4.5950    6.6391 C   0  0  0  0  0  0  0  0  0  0  0  0
    4.5532   -4.2747    4.2530 C   0  0  2  0  0  0  0  0  0  0  0  0
    5.6107   -3.7367    5.0402 O   0  0  0  0  0  0  0  0  0  0  0  0
    5.1810   -5.1675    3.0020 C   0  0  1  0  0  0  0  0  0  0  0  0
    4.2933   -6.0870    2.0530 C   0  0  0  0  0  0  0  0  0  0  0  0
    4.5128   -6.1098    0.4588 C   0  0  0  0  0  0  0  0  0  0  0  0
    4.8615   -4.9021   -0.5577 C   0  0  0  0  0  0  0  0  0  0  0  0
    4.6966   -3.3684   -0.2238 C   0  0  1  0  0  0  0  0  0  0  0  0
    3.4877   -2.8826   -1.1419 C   0  0  0  0  0  0  0  0  0  0  0  0
    5.7561   -2.3602   -0.6759 C   0  0  0  0  0  0  0  0  0  0  0  0
    6.7168   -2.6537   -1.3820 O   0  0  0  0  0  0  0  0  0  0  0  0
    5.3715   -0.9828   -0.2892 C   0  0  0  0  0  0  0  0  0  0  0  0
    4.7947   -0.7548    0.9191 C   0  0  0  0  0  0  0  0  0  0  0  0
    4.8863   -1.8161    2.0132 C   0  0  1  0  0  0  0  0  0  0  0  0
    6.1818   -1.4538    2.4540 O   0  0  0  0  0  0  0  0  0  0  0  0
    2.5902   -0.2890    2.5347 H   0  0  0  0  0  0  0  0  0  0  0  0
    3.8507    0.3115    3.6421 H   0  0  0  0  0  0  0  0  0  0  0  0
    2.5032   -0.6012    4.2784 H   0  0  0  0  0  0  0  0  0  0  0  0
    1.1679   -4.1256    2.1911 H   0  0  0  0  0  0  0  0  0  0  0  0
    2.6622   -4.2098    0.6175 H   0  0  0  0  0  0  0  0  0  0  0  0
    6.2287   -3.6141    2.8051 H   0  0  0  0  0  0  0  0  0  0  0  0
    7.1140   -4.8601    0.3467 H   0  0  0  0  0  0  0  0  0  0  0  0
    7.6878   -3.5364    1.2305 H   0  0  0  0  0  0  0  0  0  0  0  0
    8.8257   -5.8250    1.3463 H   0  0  0  0  0  0  0  0  0  0  0  0
    8.6233   -5.0248    2.8615 H   0  0  0  0  0  0  0  0  0  0  0  0
    6.7515   -7.1627    1.8040 H   0  0  0  0  0  0  0  0  0  0  0  0
    8.7774   -7.3271    4.0763 H   0  0  0  0  0  0  0  0  0  0  0  0
    8.9977   -7.9901    2.4631 H   0  0  0  0  0  0  0  0  0  0  0  0
    7.7188   -8.6251    3.4770 H   0  0  0  0  0  0  0  0  0  0  0  0
    6.9432   -5.5024    4.2831 H   0  0  0  0  0  0  0  0  0  0  0  0
    4.9931   -7.8194    4.1698 H   0  0  0  0  0  0  0  0  0  0  0  0
    6.4358   -7.6981    5.1131 H   0  0  0  0  0  0  0  0  0  0  0  0
    4.3755   -7.1122    6.3565 H   0  0  0  0  0  0  0  0  0  0  0  0
    5.6629   -5.9533    6.4394 H   0  0  0  0  0  0  0  0  0  0  0  0
    3.0694   -5.7490    4.8635 H   0  0  0  0  0  0  0  0  0  0  0  0
    4.2618   -4.2501    7.2633 H   0  0  0  0  0  0  0  0  0  0  0  0
    2.8717   -5.3132    7.2359 H   0  0  0  0  0  0  0  0  0  0  0  0
    2.7871   -3.7307    6.5043 H   0  0  0  0  0  0  0  0  0  0  0  0
    6.0993   -3.1416    4.4915 H   0  0  0  0  0  0  0  0  0  0  0  0
    4.4073   -7.1273    2.3309 H   0  0  0  0  0  0  0  0  0  0  0  0
    3.2391   -5.9742    2.2963 H   0  0  0  0  0  0  0  0  0  0  0  0
    5.2554   -6.8805    0.2634 H   0  0  0  0  0  0  0  0  0  0  0  0
    3.6003   -6.5597    0.0705 H   0  0  0  0  0  0  0  0  0  0  0  0
    5.8005   -5.0828   -1.0704 H   0  0  0  0  0  0  0  0  0  0  0  0
    4.2341   -5.0514   -1.4237 H   0  0  0  0  0  0  0  0  0  0  0  0
    2.6945   -3.6181   -1.3085 H   0  0  0  0  0  0  0  0  0  0  0  0
    3.8224   -2.6658   -2.1625 H   0  0  0  0  0  0  0  0  0  0  0  0
    2.9969   -1.9830   -0.7705 H   0  0  0  0  0  0  0  0  0  0  0  0
    5.4490   -0.2502   -1.0677 H   0  0  0  0  0  0  0  0  0  0  0  0
    4.4449    0.2341    1.1866 H   0  0  0  0  0  0  0  0  0  0  0  0
    6.4188   -0.6252    2.0719 H   0  0  0  0  0  0  0  0  0  0  0  0
  1  2  1  0
  1 33  1  0
  1 34  1  0
  1 35  1  0
  2 31  1  0
  2  3  2  0
  3 19  1  0
  3  4  1  0
  4  5  2  0
  4  6  1  0
  6  7  2  0
  6 36  1  0
  8  7  1  1
  7 37  1  0
  8 25  1  0
  8 31  1  0
  8  9  1  0
  9 21  1  0
  9 10  1  0
  9 38  1  1
 10 11  1  0
 10 39  1  0
 10 40  1  0
 11 12  1  0
 11 41  1  0
 11 42  1  0
 12 13  1  0
 12 14  1  0
 12 43  1  6
 13 44  1  0
 13 45  1  0
 13 46  1  0
 14 21  1  0
 14 15  1  0
 14 47  1  1
 15 16  1  0
 15 48  1  0
 15 49  1  0
 16 17  1  0
 16 50  1  0
 16 51  1  0
 17 18  1  0
 17 19  1  0
 17 52  1  6
 18 53  1  0
 18 54  1  0
 18 55  1  0
 19 20  1  1
 19 21  1  0
 20 56  1  0
 21 22  1  6
 22 23  1  0
 22 57  1  0
 22 58  1  0
 23 24  1  0
 23 59  1  0
 23 60  1  0
 24 25  1  0
 24 61  1  0
 24 62  1  0
 25 26  1  6
 25 27  1  0
 26 63  1  0
 26 64  1  0
 26 65  1  0
 27 28  2  0
 27 29  1  0
 29 30  2  0
 29 66  1  0
 30 31  1  0
 30 67  1  0
 31 32  1  1
 32 68  1  0
M  END
>  <i_m_ct_stereo_status>  (216) 
1

>  <s_m_source_file>  (216) 
/var/tmp/pbs.5076255.sched01/tmpqwfmwtcs/46j3o47u_k.sdf

>  <i_m_source_file_index>  (216) 
42

>  <i_lp_mmshare_version>  (216) 
48012

>  <i_f3d_flags>  (216) 
0

>  <s_epik_input>  (216) 
W0NIMl0xW0NIMl1bQ0gyXVtDQF0yKFtDSDNdKUMoPU8pW0NIXT1bQ0hdW0NAQF0zKFtPSF0pQyhbQ0gzXSk9QyhDKD1PKVtDSF09W0NIXTQpW0NAQF01KFtPSF0pW0NASF0oW0NIM10pW0NIMl1bQ0gyXVtDQEhdKFtDQEBdMTVbQ0BASF02W0NAXTIzNClbQ0BIXShbQ0gzXSlbQ0gyXVtDSDJdNg==

>  <s_epik_cmdline>  (216) 
J2VwaWtfcHl0aG9uJywgJy1waHQnLCAnMi4wJywgJy1waCcsICc3LjAnLCAnLXRuJywgJzgnLCAnLW1hJywgJzIwMCcsICctaW1hZScsICc8aW5maWxlLm1hZT4nLCAnLW9tYWUnLCAnPG91dGZpbGUubWFlPic=

>  <r_lp_tautomer_probability>  (216) 
1

>  <r_epik_Ionization_Penalty>  (216) 
5.11165e-05

>  <r_epik_Ionization_Penalty_Charging>  (216) 
0

>  <r_epik_Ionization_Penalty_Neutral>  (216) 
5.11165e-05

>  <r_epik_State_Penalty>  (216) 
-0

>  <r_epik_Charging_Adjusted_Penalty>  (216) 
0

>  <i_epik_Tot_Q>  (216) 
0

>  <i_epik_Tot_abs_Q>  (216) 
0

>  <s_lp_Force_Field>  (216) 
OPLS3e

>  <r_lp_Energy>  (216) 
263.651

>  <b_lp_Chiralities_Consistent>  (216) 
1

>  <s_lp_Variant>  (216) 
56:0-1

>  <s_i_glide_gridfile>  (216) 
pfpi4k_grid

>  <i_i_glide_lignum>  (216) 
42

>  <i_i_glide_rotatable_bonds>  (216) 
2

>  <r_i_docking_score>  (216) 
-2.59213

>  <r_i_glide_ligand_efficiency>  (216) 
-0.0810041

>  <r_i_glide_ligand_efficiency_sa>  (216) 
-0.257172

>  <r_i_glide_ligand_efficiency_ln>  (216) 
-0.580449

>  <r_i_glide_gscore>  (216) 
-2.59213

>  <r_i_glide_lipo>  (216) 
-0.586

>  <r_i_glide_hbond>  (216) 
-0.0487106

>  <r_i_glide_metal>  (216) 
-0

>  <r_i_glide_rewards>  (216) 
-0.434825

>  <r_i_glide_evdw>  (216) 
-20.9103

>  <r_i_glide_ecoul>  (216) 
-3.04146

>  <r_i_glide_erotb>  (216) 
0

>  <r_i_glide_esite>  (216) 
-0.0208586

>  <r_i_glide_emodel>  (216) 
-28.0235

>  <r_i_glide_energy>  (216) 
-23.9518

>  <r_i_glide_einternal>  (216) 
0.464768

>  <r_i_glide_intrahb_reward>  (216) 
-0

>  <i_i_glide_confnum>  (216) 
2

>  <i_i_glide_posenum>  (216) 
1

>  <r_i_glide_eff_state_penalty>  (216) 
0

>  <ligand_id>  (216) 
56

>  <original_smiles>  (216) 
CC1=C2C(=O)C=CC34C5CCC(C)C6CCC(C)C2(O)C65CCCC3(C)C(=O)C=CC14O

>  <smiles>  (216) 
[H]OC12C([H])=C([H])C(=O)C3(C([H])([H])[H])C([H])([H])C([H])([H])C([H])([H])C45C6(O[H])C(=C1C([H])([H])[H])C(=O)C([H])=C([H])C23C4([H])C([H])([H])C([H])([H])C([H])(C([H])([H])[H])C5([H])C([H])([H])C([H])([H])C6([H])C([H])([H])[H]

$$$$
56:0:1
     RDKit          3D

 68 73  0  0  1  0  0  0  0  0999 V2000
    1.7341   -5.3199    5.1800 C   0  0  0  0  0  0  0  0  0  0  0  0
    2.3103   -4.6517    3.9342 C   0  0  0  0  0  0  0  0  0  0  0  0
    2.8086   -3.3620    3.9596 C   0  0  0  0  0  0  0  0  0  0  0  0
    3.7267   -3.2316    5.0764 C   0  0  0  0  0  0  0  0  0  0  0  0
    3.5430   -2.5636    6.0878 O   0  0  0  0  0  0  0  0  0  0  0  0
    4.9311   -4.0065    4.8169 C   0  0  0  0  0  0  0  0  0  0  0  0
    5.1038   -4.7611    3.7057 C   0  0  0  0  0  0  0  0  0  0  0  0
    4.2215   -5.2159    2.4391 C   0  0  1  0  0  0  0  0  0  0  0  0
    3.9119   -4.1560    1.2403 C   0  0  2  0  0  0  0  0  0  0  0  0
    3.9819   -4.5727   -0.2730 C   0  0  0  0  0  0  0  0  0  0  0  0
    3.7962   -3.4449   -1.2964 C   0  0  0  0  0  0  0  0  0  0  0  0
    4.5909   -2.1892   -0.9057 C   0  0  1  0  0  0  0  0  0  0  0  0
    4.5312   -1.1417   -2.0304 C   0  0  0  0  0  0  0  0  0  0  0  0
    4.0017   -1.7194    0.4390 C   0  0  2  0  0  0  0  0  0  0  0  0
    4.3410   -0.2778    0.8857 C   0  0  0  0  0  0  0  0  0  0  0  0
    3.4672    0.1421    2.0709 C   0  0  0  0  0  0  0  0  0  0  0  0
    3.4126   -0.8515    3.2607 C   0  0  1  0  0  0  0  0  0  0  0  0
    2.3714   -0.2598    4.2528 C   0  0  0  0  0  0  0  0  0  0  0  0
    3.1453   -2.3379    2.7906 C   0  0  2  0  0  0  0  0  0  0  0  0
    1.8507   -2.1729    2.2171 O   0  0  0  0  0  0  0  0  0  0  0  0
    4.2380   -2.7391    1.6146 C   0  0  1  0  0  0  0  0  0  0  0  0
    5.8111   -2.8128    1.8611 C   0  0  0  0  0  0  0  0  0  0  0  0
    6.7214   -4.0007    1.2585 C   0  0  0  0  0  0  0  0  0  0  0  0
    6.4347   -5.5825    1.1746 C   0  0  0  0  0  0  0  0  0  0  0  0
    5.2458   -6.3211    1.9501 C   0  0  1  0  0  0  0  0  0  0  0  0
    5.9871   -7.2555    3.0077 C   0  0  0  0  0  0  0  0  0  0  0  0
    4.3980   -7.3942    1.2619 C   0  0  0  0  0  0  0  0  0  0  0  0
    4.6036   -7.7624    0.1120 O   0  0  0  0  0  0  0  0  0  0  0  0
    3.3782   -7.9850    2.1829 C   0  0  0  0  0  0  0  0  0  0  0  0
    2.7277   -7.1701    3.0626 C   0  0  0  0  0  0  0  0  0  0  0  0
    2.7362   -5.6557    2.8425 C   0  0  1  0  0  0  0  0  0  0  0  0
    1.6774   -5.6359    1.8862 O   0  0  0  0  0  0  0  0  0  0  0  0
    2.3685   -6.1092    5.5930 H   0  0  0  0  0  0  0  0  0  0  0  0
    0.7599   -5.7422    4.9296 H   0  0  0  0  0  0  0  0  0  0  0  0
    1.5502   -4.5849    5.9670 H   0  0  0  0  0  0  0  0  0  0  0  0
    5.7726   -3.8663    5.4926 H   0  0  0  0  0  0  0  0  0  0  0  0
    6.1484   -5.0145    3.6868 H   0  0  0  0  0  0  0  0  0  0  0  0
    2.8606   -3.9579    1.1330 H   0  0  0  0  0  0  0  0  0  0  0  0
    4.8732   -5.0693   -0.6052 H   0  0  0  0  0  0  0  0  0  0  0  0
    3.1960   -5.3066   -0.4471 H   0  0  0  0  0  0  0  0  0  0  0  0
    4.1133   -3.8060   -2.2786 H   0  0  0  0  0  0  0  0  0  0  0  0
    2.7316   -3.2127   -1.3904 H   0  0  0  0  0  0  0  0  0  0  0  0
    5.6366   -2.4552   -0.7959 H   0  0  0  0  0  0  0  0  0  0  0  0
    3.5165   -0.7611   -2.1712 H   0  0  0  0  0  0  0  0  0  0  0  0
    4.8690   -1.5783   -2.9728 H   0  0  0  0  0  0  0  0  0  0  0  0
    5.1887   -0.2987   -1.8111 H   0  0  0  0  0  0  0  0  0  0  0  0
    2.9422   -1.6595    0.1964 H   0  0  0  0  0  0  0  0  0  0  0  0
    5.3884   -0.1260    1.1289 H   0  0  0  0  0  0  0  0  0  0  0  0
    4.1480    0.4247    0.0834 H   0  0  0  0  0  0  0  0  0  0  0  0
    3.8102    1.0997    2.4408 H   0  0  0  0  0  0  0  0  0  0  0  0
    2.4552    0.3376    1.6969 H   0  0  0  0  0  0  0  0  0  0  0  0
    4.3842   -0.8226    3.7547 H   0  0  0  0  0  0  0  0  0  0  0  0
    1.4089   -0.0631    3.7745 H   0  0  0  0  0  0  0  0  0  0  0  0
    2.7235    0.6949    4.6424 H   0  0  0  0  0  0  0  0  0  0  0  0
    2.1522   -0.8831    5.1144 H   0  0  0  0  0  0  0  0  0  0  0  0
    1.9082   -1.5518    1.5026 H   0  0  0  0  0  0  0  0  0  0  0  0
    6.2921   -1.9274    1.4629 H   0  0  0  0  0  0  0  0  0  0  0  0
    6.0244   -2.6435    2.9095 H   0  0  0  0  0  0  0  0  0  0  0  0
    7.0350   -3.7007    0.2639 H   0  0  0  0  0  0  0  0  0  0  0  0
    7.6528   -3.9352    1.8113 H   0  0  0  0  0  0  0  0  0  0  0  0
    6.4842   -5.9140    0.1386 H   0  0  0  0  0  0  0  0  0  0  0  0
    7.3742   -6.0376    1.4910 H   0  0  0  0  0  0  0  0  0  0  0  0
    6.9156   -6.8488    3.4201 H   0  0  0  0  0  0  0  0  0  0  0  0
    6.3221   -8.1901    2.5468 H   0  0  0  0  0  0  0  0  0  0  0  0
    5.3625   -7.5247    3.8613 H   0  0  0  0  0  0  0  0  0  0  0  0
    3.2663   -9.0649    2.2024 H   0  0  0  0  0  0  0  0  0  0  0  0
    2.0273   -7.5728    3.7758 H   0  0  0  0  0  0  0  0  0  0  0  0
    1.9287   -6.2020    1.1719 H   0  0  0  0  0  0  0  0  0  0  0  0
  1  2  1  0
  1 33  1  0
  1 34  1  0
  1 35  1  0
  2 31  1  0
  2  3  2  0
  3 19  1  0
  3  4  1  0
  4  5  2  0
  4  6  1  0
  6  7  2  0
  6 36  1  0
  8  7  1  1
  7 37  1  0
  8 25  1  0
  8 31  1  0
  8  9  1  0
  9 21  1  0
  9 10  1  0
  9 38  1  1
 10 11  1  0
 10 39  1  0
 10 40  1  0
 11 12  1  0
 11 41  1  0
 11 42  1  0
 12 13  1  0
 12 14  1  0
 12 43  1  1
 13 44  1  0
 13 45  1  0
 13 46  1  0
 14 21  1  0
 14 15  1  0
 14 47  1  6
 15 16  1  0
 15 48  1  0
 15 49  1  0
 16 17  1  0
 16 50  1  0
 16 51  1  0
 17 18  1  0
 17 19  1  0
 17 52  1  1
 18 53  1  0
 18 54  1  0
 18 55  1  0
 19 20  1  6
 19 21  1  0
 20 56  1  0
 21 22  1  1
 22 23  1  0
 22 57  1  0
 22 58  1  0
 23 24  1  0
 23 59  1  0
 23 60  1  0
 24 25  1  0
 24 61  1  0
 24 62  1  0
 25 26  1  1
 25 27  1  0
 26 63  1  0
 26 64  1  0
 26 65  1  0
 27 28  2  0
 27 29  1  0
 29 30  2  0
 29 66  1  0
 30 31  1  0
 30 67  1  0
 31 32  1  6
 32 68  1  0
M  END
>  <i_m_ct_stereo_status>  (217) 
1

>  <s_m_source_file>  (217) 
/var/tmp/pbs.5076255.sched01/tmpqwfmwtcs/46j3o47u_k.sdf

>  <i_m_source_file_index>  (217) 
42

>  <i_lp_mmshare_version>  (217) 
48012

>  <i_f3d_flags>  (217) 
0

>  <s_epik_input>  (217) 
W0NIMl0xW0NIMl1bQ0gyXVtDQF0yKFtDSDNdKUMoPU8pW0NIXT1bQ0hdW0NAQF0zKFtPSF0pQyhbQ0gzXSk9QyhDKD1PKVtDSF09W0NIXTQpW0NAQF01KFtPSF0pW0NASF0oW0NIM10pW0NIMl1bQ0gyXVtDQEhdKFtDQEBdMTVbQ0BASF02W0NAXTIzNClbQ0BIXShbQ0gzXSlbQ0gyXVtDSDJdNg==

>  <s_epik_cmdline>  (217) 
J2VwaWtfcHl0aG9uJywgJy1waHQnLCAnMi4wJywgJy1waCcsICc3LjAnLCAnLXRuJywgJzgnLCAnLW1hJywgJzIwMCcsICctaW1hZScsICc8aW5maWxlLm1hZT4nLCAnLW9tYWUnLCAnPG91dGZpbGUubWFlPic=

>  <r_lp_tautomer_probability>  (217) 
1

>  <r_epik_Ionization_Penalty>  (217) 
5.11165e-05

>  <r_epik_Ionization_Penalty_Charging>  (217) 
0

>  <r_epik_Ionization_Penalty_Neutral>  (217) 
5.11165e-05

>  <r_epik_State_Penalty>  (217) 
-0

>  <r_epik_Charging_Adjusted_Penalty>  (217) 
0

>  <i_epik_Tot_Q>  (217) 
0

>  <i_epik_Tot_abs_Q>  (217) 
0

>  <s_lp_Force_Field>  (217) 
OPLS3e

>  <r_lp_Energy>  (217) 
263.651

>  <b_lp_Chiralities_Consistent>  (217) 
1

>  <s_lp_Variant>  (217) 
56:0-1

>  <s_i_glide_gridfile>  (217) 
pfpi4k_grid

>  <i_i_glide_lignum>  (217) 
42

>  <i_i_glide_rotatable_bonds>  (217) 
2

>  <r_i_docking_score>  (217) 
-2.53211

>  <r_i_glide_ligand_efficiency>  (217) 
-0.0791283

>  <r_i_glide_ligand_efficiency_sa>  (217) 
-0.251217

>  <r_i_glide_ligand_efficiency_ln>  (217) 
-0.567008

>  <r_i_glide_gscore>  (217) 
-2.53211

>  <r_i_glide_lipo>  (217) 
-0.476098

>  <r_i_glide_hbond>  (217) 
0

>  <r_i_glide_metal>  (217) 
-0

>  <r_i_glide_rewards>  (217) 
-0.556282

>  <r_i_glide_evdw>  (217) 
-27.3487

>  <r_i_glide_ecoul>  (217) 
-0.88193

>  <r_i_glide_erotb>  (217) 
0

>  <r_i_glide_esite>  (217) 
0

>  <r_i_glide_emodel>  (217) 
-32.4027

>  <r_i_glide_energy>  (217) 
-28.2307

>  <r_i_glide_einternal>  (217) 
0.358504

>  <r_i_glide_intrahb_reward>  (217) 
-0

>  <i_i_glide_confnum>  (217) 
2

>  <i_i_glide_posenum>  (217) 
2

>  <r_i_glide_eff_state_penalty>  (217) 
0

>  <ligand_id>  (217) 
56

>  <original_smiles>  (217) 
CC1=C2C(=O)C=CC34C5CCC(C)C6CCC(C)C2(O)C65CCCC3(C)C(=O)C=CC14O

>  <smiles>  (217) 
[H]OC12C([H])=C([H])C(=O)C3(C([H])([H])[H])C([H])([H])C([H])([H])C([H])([H])C45C6(O[H])C(=C1C([H])([H])[H])C(=O)C([H])=C([H])C23C4([H])C([H])([H])C([H])([H])C([H])(C([H])([H])[H])C5([H])C([H])([H])C([H])([H])C6([H])C([H])([H])[H]

$$$$
56:0:2
     RDKit          3D

 68 73  0  0  1  0  0  0  0  0999 V2000
    3.4034   -0.1277    3.5071 C   0  0  0  0  0  0  0  0  0  0  0  0
    4.1157   -1.4799    3.4618 C   0  0  0  0  0  0  0  0  0  0  0  0
    3.7778   -2.5042    4.3399 C   0  0  0  0  0  0  0  0  0  0  0  0
    2.3406   -2.6882    4.3153 C   0  0  0  0  0  0  0  0  0  0  0  0
    1.5618   -2.4462    5.2356 O   0  0  0  0  0  0  0  0  0  0  0  0
    1.9264   -3.2410    3.0395 C   0  0  0  0  0  0  0  0  0  0  0  0
    2.7892   -3.4891    2.0219 C   0  0  0  0  0  0  0  0  0  0  0  0
    4.3445   -3.2332    1.7025 C   0  0  1  0  0  0  0  0  0  0  0  0
    5.4830   -4.1509    2.4187 C   0  0  2  0  0  0  0  0  0  0  0  0
    6.7391   -4.6983    1.6297 C   0  0  0  0  0  0  0  0  0  0  0  0
    7.6552   -5.6736    2.3846 C   0  0  0  0  0  0  0  0  0  0  0  0
    6.8474   -6.6963    3.1983 C   0  0  1  0  0  0  0  0  0  0  0  0
    7.7867   -7.7476    3.8106 C   0  0  0  0  0  0  0  0  0  0  0  0
    6.0236   -5.8941    4.2309 C   0  0  2  0  0  0  0  0  0  0  0  0
    5.4263   -6.6898    5.4164 C   0  0  0  0  0  0  0  0  0  0  0  0
    4.8756   -5.7484    6.4926 C   0  0  0  0  0  0  0  0  0  0  0  0
    3.9471   -4.6062    5.9926 C   0  0  1  0  0  0  0  0  0  0  0  0
    3.6640   -3.7221    7.2402 C   0  0  0  0  0  0  0  0  0  0  0  0
    4.5294   -3.8490    4.7281 C   0  0  2  0  0  0  0  0  0  0  0  0
    5.7135   -3.3230    5.3186 O   0  0  0  0  0  0  0  0  0  0  0  0
    4.9377   -4.9577    3.5691 C   0  0  1  0  0  0  0  0  0  0  0  0
    3.8715   -5.9009    2.8574 C   0  0  0  0  0  0  0  0  0  0  0  0
    3.9076   -6.1833    1.2742 C   0  0  0  0  0  0  0  0  0  0  0  0
    4.2244   -5.1825    0.0533 C   0  0  0  0  0  0  0  0  0  0  0  0
    4.2468   -3.5918    0.1691 C   0  0  1  0  0  0  0  0  0  0  0  0
    2.9946   -3.1114   -0.6845 C   0  0  0  0  0  0  0  0  0  0  0  0
    5.3270   -2.7473   -0.5325 C   0  0  0  0  0  0  0  0  0  0  0  0
    6.1819   -3.2392   -1.2650 O   0  0  0  0  0  0  0  0  0  0  0  0
    5.1116   -1.2833   -0.3159 C   0  0  0  0  0  0  0  0  0  0  0  0
    4.6879   -0.8492    0.9005 C   0  0  0  0  0  0  0  0  0  0  0  0
    4.8167   -1.7635    2.1196 C   0  0  1  0  0  0  0  0  0  0  0  0
    6.1891   -1.4887    2.3458 O   0  0  0  0  0  0  0  0  0  0  0  0
    2.7393    0.0449    2.6546 H   0  0  0  0  0  0  0  0  0  0  0  0
    4.1572    0.6608    3.5357 H   0  0  0  0  0  0  0  0  0  0  0  0
    2.8177   -0.0193    4.4224 H   0  0  0  0  0  0  0  0  0  0  0  0
    0.9041   -3.5851    2.9490 H   0  0  0  0  0  0  0  0  0  0  0  0
    2.2468   -4.0912    1.3170 H   0  0  0  0  0  0  0  0  0  0  0  0
    6.1241   -3.5650    3.0404 H   0  0  0  0  0  0  0  0  0  0  0  0
    6.5461   -5.2120    0.7116 H   0  0  0  0  0  0  0  0  0  0  0  0
    7.3502   -3.8470    1.3244 H   0  0  0  0  0  0  0  0  0  0  0  0
    8.3095   -6.1813    1.6723 H   0  0  0  0  0  0  0  0  0  0  0  0
    8.3290   -5.1166    3.0360 H   0  0  0  0  0  0  0  0  0  0  0  0
    6.1903   -7.2370    2.5243 H   0  0  0  0  0  0  0  0  0  0  0  0
    8.4437   -7.3128    4.5675 H   0  0  0  0  0  0  0  0  0  0  0  0
    8.4107   -8.2002    3.0372 H   0  0  0  0  0  0  0  0  0  0  0  0
    7.2144   -8.5560    4.2719 H   0  0  0  0  0  0  0  0  0  0  0  0
    6.7986   -5.2946    4.7062 H   0  0  0  0  0  0  0  0  0  0  0  0
    4.6539   -7.3983    5.1227 H   0  0  0  0  0  0  0  0  0  0  0  0
    6.1989   -7.2959    5.8908 H   0  0  0  0  0  0  0  0  0  0  0  0
    4.3469   -6.3411    7.2377 H   0  0  0  0  0  0  0  0  0  0  0  0
    5.7311   -5.3204    7.0214 H   0  0  0  0  0  0  0  0  0  0  0  0
    3.0056   -5.0635    5.6950 H   0  0  0  0  0  0  0  0  0  0  0  0
    4.5789   -3.3850    7.7315 H   0  0  0  0  0  0  0  0  0  0  0  0
    3.1101   -4.2935    7.9862 H   0  0  0  0  0  0  0  0  0  0  0  0
    3.0797   -2.8258    7.0459 H   0  0  0  0  0  0  0  0  0  0  0  0
    5.4604   -2.6825    5.9639 H   0  0  0  0  0  0  0  0  0  0  0  0
    3.9250   -6.8995    3.2726 H   0  0  0  0  0  0  0  0  0  0  0  0
    2.8648   -5.6483    3.1811 H   0  0  0  0  0  0  0  0  0  0  0  0
    4.5573   -7.0425    1.1146 H   0  0  0  0  0  0  0  0  0  0  0  0
    2.9218   -6.5955    1.0536 H   0  0  0  0  0  0  0  0  0  0  0  0
    5.0650   -5.5469   -0.5344 H   0  0  0  0  0  0  0  0  0  0  0  0
    3.4605   -5.4315   -0.6779 H   0  0  0  0  0  0  0  0  0  0  0  0
    2.1288   -3.7767   -0.6622 H   0  0  0  0  0  0  0  0  0  0  0  0
    3.2266   -3.0627   -1.7533 H   0  0  0  0  0  0  0  0  0  0  0  0
    2.6227   -2.1283   -0.3895 H   0  0  0  0  0  0  0  0  0  0  0  0
    5.1904   -0.6255   -1.1709 H   0  0  0  0  0  0  0  0  0  0  0  0
    4.4745    0.1986    1.0627 H   0  0  0  0  0  0  0  0  0  0  0  0
    6.3488   -0.5681    2.2081 H   0  0  0  0  0  0  0  0  0  0  0  0
  1  2  1  0
  1 33  1  0
  1 34  1  0
  1 35  1  0
  2 31  1  0
  2  3  2  0
  3 19  1  0
  3  4  1  0
  4  5  2  0
  4  6  1  0
  6  7  2  0
  6 36  1  0
  8  7  1  1
  7 37  1  0
  8 25  1  0
  8 31  1  0
  8  9  1  0
  9 21  1  0
  9 10  1  0
  9 38  1  1
 10 11  1  0
 10 39  1  0
 10 40  1  0
 11 12  1  0
 11 41  1  0
 11 42  1  0
 12 13  1  0
 12 14  1  0
 12 43  1  6
 13 44  1  0
 13 45  1  0
 13 46  1  0
 14 21  1  0
 14 15  1  0
 14 47  1  1
 15 16  1  0
 15 48  1  0
 15 49  1  0
 16 17  1  0
 16 50  1  0
 16 51  1  0
 17 18  1  0
 17 19  1  0
 17 52  1  6
 18 53  1  0
 18 54  1  0
 18 55  1  0
 19 20  1  1
 19 21  1  0
 20 56  1  0
 21 22  1  6
 22 23  1  0
 22 57  1  0
 22 58  1  0
 23 24  1  0
 23 59  1  0
 23 60  1  0
 24 25  1  0
 24 61  1  0
 24 62  1  0
 25 26  1  6
 25 27  1  0
 26 63  1  0
 26 64  1  0
 26 65  1  0
 27 28  2  0
 27 29  1  0
 29 30  2  0
 29 66  1  0
 30 31  1  0
 30 67  1  0
 31 32  1  1
 32 68  1  0
M  END
>  <i_m_ct_stereo_status>  (218) 
1

>  <s_m_source_file>  (218) 
/var/tmp/pbs.5076255.sched01/tmpqwfmwtcs/46j3o47u_k.sdf

>  <i_m_source_file_index>  (218) 
42

>  <i_lp_mmshare_version>  (218) 
48012

>  <i_f3d_flags>  (218) 
0

>  <s_epik_input>  (218) 
W0NIMl0xW0NIMl1bQ0gyXVtDQF0yKFtDSDNdKUMoPU8pW0NIXT1bQ0hdW0NAQF0zKFtPSF0pQyhbQ0gzXSk9QyhDKD1PKVtDSF09W0NIXTQpW0NAQF01KFtPSF0pW0NASF0oW0NIM10pW0NIMl1bQ0gyXVtDQEhdKFtDQEBdMTVbQ0BASF02W0NAXTIzNClbQ0BIXShbQ0gzXSlbQ0gyXVtDSDJdNg==

>  <s_epik_cmdline>  (218) 
J2VwaWtfcHl0aG9uJywgJy1waHQnLCAnMi4wJywgJy1waCcsICc3LjAnLCAnLXRuJywgJzgnLCAnLW1hJywgJzIwMCcsICctaW1hZScsICc8aW5maWxlLm1hZT4nLCAnLW9tYWUnLCAnPG91dGZpbGUubWFlPic=

>  <r_lp_tautomer_probability>  (218) 
1

>  <r_epik_Ionization_Penalty>  (218) 
5.11165e-05

>  <r_epik_Ionization_Penalty_Charging>  (218) 
0

>  <r_epik_Ionization_Penalty_Neutral>  (218) 
5.11165e-05

>  <r_epik_State_Penalty>  (218) 
-0

>  <r_epik_Charging_Adjusted_Penalty>  (218) 
0

>  <i_epik_Tot_Q>  (218) 
0

>  <i_epik_Tot_abs_Q>  (218) 
0

>  <s_lp_Force_Field>  (218) 
OPLS3e

>  <r_lp_Energy>  (218) 
263.651

>  <b_lp_Chiralities_Consistent>  (218) 
1

>  <s_lp_Variant>  (218) 
56:0-1

>  <s_i_glide_gridfile>  (218) 
pfpi4k_grid

>  <i_i_glide_lignum>  (218) 
42

>  <i_i_glide_rotatable_bonds>  (218) 
2

>  <r_i_docking_score>  (218) 
-2.37237

>  <r_i_glide_ligand_efficiency>  (218) 
-0.0741364

>  <r_i_glide_ligand_efficiency_sa>  (218) 
-0.235369

>  <r_i_glide_ligand_efficiency_ln>  (218) 
-0.531237

>  <r_i_glide_gscore>  (218) 
-2.37237

>  <r_i_glide_lipo>  (218) 
-0.382805

>  <r_i_glide_hbond>  (218) 
0

>  <r_i_glide_metal>  (218) 
-0

>  <r_i_glide_rewards>  (218) 
-0.432483

>  <r_i_glide_evdw>  (218) 
-21.7513

>  <r_i_glide_ecoul>  (218) 
-3.1261

>  <r_i_glide_erotb>  (218) 
0

>  <r_i_glide_esite>  (218) 
-0.000595163

>  <r_i_glide_emodel>  (218) 
-28.723

>  <r_i_glide_energy>  (218) 
-24.8775

>  <r_i_glide_einternal>  (218) 
0.294885

>  <r_i_glide_intrahb_reward>  (218) 
-0

>  <i_i_glide_confnum>  (218) 
2

>  <i_i_glide_posenum>  (218) 
37

>  <r_i_glide_eff_state_penalty>  (218) 
0

>  <ligand_id>  (218) 
56

>  <original_smiles>  (218) 
CC1=C2C(=O)C=CC34C5CCC(C)C6CCC(C)C2(O)C65CCCC3(C)C(=O)C=CC14O

>  <smiles>  (218) 
[H]OC12C([H])=C([H])C(=O)C3(C([H])([H])[H])C([H])([H])C([H])([H])C([H])([H])C45C6(O[H])C(=C1C([H])([H])[H])C(=O)C([H])=C([H])C23C4([H])C([H])([H])C([H])([H])C([H])(C([H])([H])[H])C5([H])C([H])([H])C([H])([H])C6([H])C([H])([H])[H]

$$$$
57:0:0
     RDKit          3D

 43 46  0  0  1  0  0  0  0  0999 V2000
    7.9169   -4.5327    0.7202 C   0  0  0  0  0  0  0  0  0  0  0  0
    6.7103   -3.8095    0.0878 C   0  0  2  0  0  0  0  0  0  0  0  0
    7.0596   -2.3056   -0.0735 C   0  0  0  0  0  0  0  0  0  0  0  0
    5.8807   -1.4095   -0.5167 C   0  0  0  0  0  0  0  0  0  0  0  0
    4.6713   -2.2609   -0.9117 C   0  0  2  0  0  0  0  0  0  0  0  0
    3.5095   -1.6155   -1.6818 C   0  0  1  0  0  0  0  0  0  0  0  0
    3.9440   -0.6774   -2.8339 C   0  0  0  0  0  0  0  0  0  0  0  0
    2.6623   -2.7875   -2.2385 C   0  0  0  0  0  0  0  0  0  0  0  0
    2.2579   -2.7560   -3.3909 O   0  0  0  0  0  0  0  0  0  0  0  0
    2.4746   -3.8443   -1.3755 O   0  0  0  0  0  0  0  0  0  0  0  0
    2.7675   -3.6330   -0.0272 C   0  0  1  0  0  0  0  0  0  0  0  0
    2.3320   -4.6321    0.8161 O   0  0  0  0  0  0  0  0  0  0  0  0
    2.7936   -4.4771    2.1461 C   0  0  2  0  0  0  0  0  0  0  0  0
    1.5929   -4.8517    3.0365 C   0  0  0  0  0  0  0  0  0  0  0  0
    3.1802   -3.1182    2.5284 O   0  0  0  0  0  0  0  0  0  0  0  0
    3.8682   -2.2727    1.4239 O   0  0  0  0  0  0  0  0  0  0  0  0
    4.1910   -3.0760    0.3095 C   0  0  2  0  0  0  0  0  0  0  0  0
    5.3561   -3.9997    0.8481 C   0  0  1  0  0  0  0  0  0  0  0  0
    4.9366   -5.4462    1.1050 C   0  0  0  0  0  0  0  0  0  0  0  0
    3.9282   -5.5201    2.2593 C   0  0  1  0  0  0  0  0  0  0  0  0
    4.5652   -5.4333    3.5185 O   0  0  0  0  0  0  0  0  0  0  0  0
    8.0538   -4.2488    1.7621 H   0  0  0  0  0  0  0  0  0  0  0  0
    8.8424   -4.2885    0.1958 H   0  0  0  0  0  0  0  0  0  0  0  0
    7.8190   -5.6162    0.6815 H   0  0  0  0  0  0  0  0  0  0  0  0
    6.5976   -4.2370   -0.9099 H   0  0  0  0  0  0  0  0  0  0  0  0
    7.4906   -1.9067    0.8496 H   0  0  0  0  0  0  0  0  0  0  0  0
    7.8501   -2.2298   -0.8191 H   0  0  0  0  0  0  0  0  0  0  0  0
    5.6222   -0.7224    0.2881 H   0  0  0  0  0  0  0  0  0  0  0  0
    6.1818   -0.7989   -1.3612 H   0  0  0  0  0  0  0  0  0  0  0  0
    5.0591   -2.9666   -1.6439 H   0  0  0  0  0  0  0  0  0  0  0  0
    2.9080   -1.0269   -0.9901 H   0  0  0  0  0  0  0  0  0  0  0  0
    3.0752   -0.3023   -3.3818 H   0  0  0  0  0  0  0  0  0  0  0  0
    4.5968   -1.1864   -3.5499 H   0  0  0  0  0  0  0  0  0  0  0  0
    4.4663    0.2010   -2.4528 H   0  0  0  0  0  0  0  0  0  0  0  0
    2.0862   -2.8189    0.2270 H   0  0  0  0  0  0  0  0  0  0  0  0
    0.7758   -4.1488    2.8798 H   0  0  0  0  0  0  0  0  0  0  0  0
    1.8460   -4.8141    4.0944 H   0  0  0  0  0  0  0  0  0  0  0  0
    1.2051   -5.8495    2.8152 H   0  0  0  0  0  0  0  0  0  0  0  0
    5.6131   -3.6095    1.8376 H   0  0  0  0  0  0  0  0  0  0  0  0
    4.5194   -5.8760    0.1920 H   0  0  0  0  0  0  0  0  0  0  0  0
    5.7844   -6.0728    1.3637 H   0  0  0  0  0  0  0  0  0  0  0  0
    3.4903   -6.5171    2.2147 H   0  0  0  0  0  0  0  0  0  0  0  0
    3.9346   -5.6356    4.1921 H   0  0  0  0  0  0  0  0  0  0  0  0
  1  2  1  0
  1 22  1  0
  1 23  1  0
  1 24  1  0
  2 18  1  0
  2  3  1  0
  2 25  1  6
  3  4  1  0
  3 26  1  0
  3 27  1  0
  4  5  1  0
  4 28  1  0
  4 29  1  0
  5 17  1  0
  5  6  1  0
  5 30  1  6
  6  7  1  0
  6  8  1  0
  6 31  1  1
  7 32  1  0
  7 33  1  0
  7 34  1  0
  8  9  2  0
  8 10  1  0
 10 11  1  0
 11 17  1  0
 11 12  1  0
 11 35  1  1
 12 13  1  0
 13 20  1  0
 13 14  1  1
 13 15  1  0
 14 36  1  0
 14 37  1  0
 14 38  1  0
 15 16  1  0
 17 16  1  1
 17 18  1  0
 18 19  1  0
 18 39  1  1
 19 20  1  0
 19 40  1  0
 19 41  1  0
 20 21  1  0
 20 42  1  1
 21 43  1  0
M  END
>  <i_m_ct_stereo_status>  (219) 
1

>  <s_m_source_file>  (219) 
/var/tmp/pbs.5076255.sched01/tmpqwfmwtcs/46j3o47u_k.sdf

>  <i_m_source_file_index>  (219) 
43

>  <i_lp_mmshare_version>  (219) 
48012

>  <i_f3d_flags>  (219) 
0

>  <s_epik_input>  (219) 
W0NAQF0xMjNbQ0BASF00W0NIMl1bQ0gyXVtDQEBIXShbQ0gzXSlbQ0BASF0zW0NIMl1bQ0BASF0oW09IXSlbQ0BAXShbQ0gzXSkoT08yKU9bQ0BASF0xT0MoPU8pW0NAQEhdNFtDSDNd

>  <s_epik_cmdline>  (219) 
J2VwaWtfcHl0aG9uJywgJy1waHQnLCAnMi4wJywgJy1waCcsICc3LjAnLCAnLXRuJywgJzgnLCAnLW1hJywgJzIwMCcsICctaW1hZScsICc8aW5maWxlLm1hZT4nLCAnLW9tYWUnLCAnPG91dGZpbGUubWFlPic=

>  <r_lp_tautomer_probability>  (219) 
1

>  <r_epik_Ionization_Penalty>  (219) 
1.26949e-06

>  <r_epik_Ionization_Penalty_Charging>  (219) 
0

>  <r_epik_Ionization_Penalty_Neutral>  (219) 
1.26949e-06

>  <r_epik_State_Penalty>  (219) 
-0

>  <r_epik_Charging_Adjusted_Penalty>  (219) 
0

>  <i_epik_Tot_Q>  (219) 
0

>  <i_epik_Tot_abs_Q>  (219) 
0

>  <s_epik_Chemistry_Notes>  (219) 
This compound has an ester and may undergo hydrolysis at high or low pH. This compound contains an acetal/aminal-like group ( X-CH(R)-Y where X, Y are N, S, or O) that may be acid/base labile, releasing an aldehyde.

>  <s_lp_Force_Field>  (219) 
OPLS3e

>  <r_lp_Energy>  (219) 
66.1536

>  <b_lp_Chiralities_Consistent>  (219) 
1

>  <s_lp_Variant>  (219) 
57:0-1

>  <s_i_glide_gridfile>  (219) 
pfpi4k_grid

>  <i_i_glide_lignum>  (219) 
43

>  <i_i_glide_rotatable_bonds>  (219) 
1

>  <r_i_docking_score>  (219) 
-3.13523

>  <r_i_glide_ligand_efficiency>  (219) 
-0.149297

>  <r_i_glide_ligand_efficiency_sa>  (219) 
-0.411898

>  <r_i_glide_ligand_efficiency_ln>  (219) 
-0.775179

>  <r_i_glide_gscore>  (219) 
-3.13523

>  <r_i_glide_lipo>  (219) 
-0.484176

>  <r_i_glide_hbond>  (219) 
-0.00425995

>  <r_i_glide_metal>  (219) 
-0

>  <r_i_glide_rewards>  (219) 
-1.37501

>  <r_i_glide_evdw>  (219) 
-22.8381

>  <r_i_glide_ecoul>  (219) 
-0.49142

>  <r_i_glide_erotb>  (219) 
0

>  <r_i_glide_esite>  (219) 
-0.0561621

>  <r_i_glide_emodel>  (219) 
-28.47

>  <r_i_glide_energy>  (219) 
-23.3296

>  <r_i_glide_einternal>  (219) 
0.345616

>  <r_i_glide_intrahb_reward>  (219) 
-0

>  <i_i_glide_confnum>  (219) 
2

>  <i_i_glide_posenum>  (219) 
30

>  <r_i_glide_eff_state_penalty>  (219) 
0

>  <ligand_id>  (219) 
57

>  <original_smiles>  (219) 
CC1CCC2C(C)C(=O)OC3OC4(C)OOC32C1CC4O

>  <smiles>  (219) 
[H]OC1([H])C([H])([H])C2([H])C([H])(C([H])([H])[H])C([H])([H])C([H])([H])C3([H])C([H])(C([H])([H])[H])C(=O)OC4([H])OC1(C([H])([H])[H])OOC432

$$$$
57:0:1
     RDKit          3D

 43 46  0  0  1  0  0  0  0  0999 V2000
    7.9066   -4.5194    0.7175 C   0  0  0  0  0  0  0  0  0  0  0  0
    6.7015   -3.8031    0.0780 C   0  0  2  0  0  0  0  0  0  0  0  0
    7.0517   -2.2996   -0.1027 C   0  0  0  0  0  0  0  0  0  0  0  0
    5.8731   -1.4077   -0.5542 C   0  0  0  0  0  0  0  0  0  0  0  0
    4.6643   -2.2581   -0.9395 C   0  0  2  0  0  0  0  0  0  0  0  0
    3.5032   -1.6184   -1.7135 C   0  0  1  0  0  0  0  0  0  0  0  0
    3.9373   -0.6941   -2.8778 C   0  0  0  0  0  0  0  0  0  0  0  0
    2.6541   -2.7997   -2.2577 C   0  0  0  0  0  0  0  0  0  0  0  0
    2.2546   -2.7848   -3.4145 O   0  0  0  0  0  0  0  0  0  0  0  0
    2.4704   -3.8541   -1.3832 O   0  0  0  0  0  0  0  0  0  0  0  0
    2.7617   -3.6190   -0.0383 C   0  0  1  0  0  0  0  0  0  0  0  0
    2.3244   -4.6036    0.8161 O   0  0  0  0  0  0  0  0  0  0  0  0
    2.7850   -4.4370    2.1481 C   0  0  2  0  0  0  0  0  0  0  0  0
    1.5841   -4.7976    3.0427 C   0  0  0  0  0  0  0  0  0  0  0  0
    3.1860   -3.0791    2.5157 O   0  0  0  0  0  0  0  0  0  0  0  0
    3.8640   -2.2413    1.3979 O   0  0  0  0  0  0  0  0  0  0  0  0
    4.1853   -3.0628    0.2926 C   0  0  2  0  0  0  0  0  0  0  0  0
    5.3487   -3.9784    0.8389 C   0  0  1  0  0  0  0  0  0  0  0  0
    4.9247   -5.4233    1.1162 C   0  0  0  0  0  0  0  0  0  0  0  0
    3.9171   -5.4789    2.2704 C   0  0  1  0  0  0  0  0  0  0  0  0
    4.5486   -5.3584    3.5293 O   0  0  0  0  0  0  0  0  0  0  0  0
    8.0462   -4.2260    1.7582 H   0  0  0  0  0  0  0  0  0  0  0  0
    8.8325   -4.2806    0.1892 H   0  0  0  0  0  0  0  0  0  0  0  0
    7.8075   -5.6042    0.6883 H   0  0  0  0  0  0  0  0  0  0  0  0
    6.5900   -4.2511   -0.9115 H   0  0  0  0  0  0  0  0  0  0  0  0
    7.4855   -1.8895    0.8159 H   0  0  0  0  0  0  0  0  0  0  0  0
    7.8416   -2.2344   -0.8503 H   0  0  0  0  0  0  0  0  0  0  0  0
    5.6174   -0.7077    0.2421 H   0  0  0  0  0  0  0  0  0  0  0  0
    6.1736   -0.8082   -1.4083 H   0  0  0  0  0  0  0  0  0  0  0  0
    5.0520   -2.9757   -1.6618 H   0  0  0  0  0  0  0  0  0  0  0  0
    2.8996   -1.0258   -1.0286 H   0  0  0  0  0  0  0  0  0  0  0  0
    3.0684   -0.3257   -3.4273 H   0  0  0  0  0  0  0  0  0  0  0  0
    4.5881   -1.2112   -3.5879 H   0  0  0  0  0  0  0  0  0  0  0  0
    4.4581    0.1872   -2.5070 H   0  0  0  0  0  0  0  0  0  0  0  0
    2.0792   -2.8007    0.2057 H   0  0  0  0  0  0  0  0  0  0  0  0
    0.7690   -4.0946    2.8805 H   0  0  0  0  0  0  0  0  0  0  0  0
    1.8447   -4.7518    4.0994 H   0  0  0  0  0  0  0  0  0  0  0  0
    1.1963   -5.7974    2.8339 H   0  0  0  0  0  0  0  0  0  0  0  0
    5.6091   -3.5722    1.8195 H   0  0  0  0  0  0  0  0  0  0  0  0
    4.5057   -5.8607    0.2074 H   0  0  0  0  0  0  0  0  0  0  0  0
    5.7714   -6.0471    1.3780 H   0  0  0  0  0  0  0  0  0  0  0  0
    3.4798   -6.4761    2.2488 H   0  0  0  0  0  0  0  0  0  0  0  0
    4.9349   -4.5001    3.5834 H   0  0  0  0  0  0  0  0  0  0  0  0
  1  2  1  0
  1 22  1  0
  1 23  1  0
  1 24  1  0
  2 18  1  0
  2  3  1  0
  2 25  1  6
  3  4  1  0
  3 26  1  0
  3 27  1  0
  4  5  1  0
  4 28  1  0
  4 29  1  0
  5 17  1  0
  5  6  1  0
  5 30  1  6
  6  7  1  0
  6  8  1  0
  6 31  1  1
  7 32  1  0
  7 33  1  0
  7 34  1  0
  8  9  2  0
  8 10  1  0
 10 11  1  0
 11 17  1  0
 11 12  1  0
 11 35  1  1
 12 13  1  0
 13 20  1  0
 13 14  1  1
 13 15  1  0
 14 36  1  0
 14 37  1  0
 14 38  1  0
 15 16  1  0
 17 16  1  1
 17 18  1  0
 18 19  1  0
 18 39  1  1
 19 20  1  0
 19 40  1  0
 19 41  1  0
 20 21  1  0
 20 42  1  1
 21 43  1  0
M  END
>  <i_m_ct_stereo_status>  (220) 
1

>  <s_m_source_file>  (220) 
/var/tmp/pbs.5076255.sched01/tmpqwfmwtcs/46j3o47u_k.sdf

>  <i_m_source_file_index>  (220) 
43

>  <i_lp_mmshare_version>  (220) 
48012

>  <i_f3d_flags>  (220) 
0

>  <s_epik_input>  (220) 
W0NAQF0xMjNbQ0BASF00W0NIMl1bQ0gyXVtDQEBIXShbQ0gzXSlbQ0BASF0zW0NIMl1bQ0BASF0oW09IXSlbQ0BAXShbQ0gzXSkoT08yKU9bQ0BASF0xT0MoPU8pW0NAQEhdNFtDSDNd

>  <s_epik_cmdline>  (220) 
J2VwaWtfcHl0aG9uJywgJy1waHQnLCAnMi4wJywgJy1waCcsICc3LjAnLCAnLXRuJywgJzgnLCAnLW1hJywgJzIwMCcsICctaW1hZScsICc8aW5maWxlLm1hZT4nLCAnLW9tYWUnLCAnPG91dGZpbGUubWFlPic=

>  <r_lp_tautomer_probability>  (220) 
1

>  <r_epik_Ionization_Penalty>  (220) 
1.26949e-06

>  <r_epik_Ionization_Penalty_Charging>  (220) 
0

>  <r_epik_Ionization_Penalty_Neutral>  (220) 
1.26949e-06

>  <r_epik_State_Penalty>  (220) 
-0

>  <r_epik_Charging_Adjusted_Penalty>  (220) 
0

>  <i_epik_Tot_Q>  (220) 
0

>  <i_epik_Tot_abs_Q>  (220) 
0

>  <s_epik_Chemistry_Notes>  (220) 
This compound has an ester and may undergo hydrolysis at high or low pH. This compound contains an acetal/aminal-like group ( X-CH(R)-Y where X, Y are N, S, or O) that may be acid/base labile, releasing an aldehyde.

>  <s_lp_Force_Field>  (220) 
OPLS3e

>  <r_lp_Energy>  (220) 
66.1536

>  <b_lp_Chiralities_Consistent>  (220) 
1

>  <s_lp_Variant>  (220) 
57:0-1

>  <s_i_glide_gridfile>  (220) 
pfpi4k_grid

>  <i_i_glide_lignum>  (220) 
43

>  <i_i_glide_rotatable_bonds>  (220) 
1

>  <r_i_docking_score>  (220) 
-3.11345

>  <r_i_glide_ligand_efficiency>  (220) 
-0.14826

>  <r_i_glide_ligand_efficiency_sa>  (220) 
-0.409037

>  <r_i_glide_ligand_efficiency_ln>  (220) 
-0.769795

>  <r_i_glide_gscore>  (220) 
-3.11345

>  <r_i_glide_lipo>  (220) 
-0.483239

>  <r_i_glide_hbond>  (220) 
-0.00458087

>  <r_i_glide_metal>  (220) 
-0

>  <r_i_glide_rewards>  (220) 
-1.37501

>  <r_i_glide_evdw>  (220) 
-22.8151

>  <r_i_glide_ecoul>  (220) 
-0.367521

>  <r_i_glide_erotb>  (220) 
0

>  <r_i_glide_esite>  (220) 
-0.0547359

>  <r_i_glide_emodel>  (220) 
-28.429

>  <r_i_glide_energy>  (220) 
-23.1826

>  <r_i_glide_einternal>  (220) 
0.0001114

>  <r_i_glide_intrahb_reward>  (220) 
-0

>  <i_i_glide_confnum>  (220) 
2

>  <i_i_glide_posenum>  (220) 
40

>  <r_i_glide_eff_state_penalty>  (220) 
0

>  <ligand_id>  (220) 
57

>  <original_smiles>  (220) 
CC1CCC2C(C)C(=O)OC3OC4(C)OOC32C1CC4O

>  <smiles>  (220) 
[H]OC1([H])C([H])([H])C2([H])C([H])(C([H])([H])[H])C([H])([H])C([H])([H])C3([H])C([H])(C([H])([H])[H])C(=O)OC4([H])OC1(C([H])([H])[H])OOC432

$$$$
57:0:2
     RDKit          3D

 43 46  0  0  1  0  0  0  0  0999 V2000
    2.9643    3.9291    7.1814 C   0  0  0  0  0  0  0  0  0  0  0  0
    1.8064    3.2601    6.4123 C   0  0  2  0  0  0  0  0  0  0  0  0
    1.6768    3.9280    5.0113 C   0  0  0  0  0  0  0  0  0  0  0  0
    0.4284    3.5190    4.1908 C   0  0  0  0  0  0  0  0  0  0  0  0
   -0.3038    2.3575    4.8786 C   0  0  2  0  0  0  0  0  0  0  0  0
   -1.3826    1.5621    4.1139 C   0  0  1  0  0  0  0  0  0  0  0  0
   -0.9835    1.2236    2.6583 C   0  0  0  0  0  0  0  0  0  0  0  0
   -1.6193    0.2727    4.9497 C   0  0  0  0  0  0  0  0  0  0  0  0
   -1.7798   -0.8298    4.4349 O   0  0  0  0  0  0  0  0  0  0  0  0
   -1.5868    0.4222    6.3051 O   0  0  0  0  0  0  0  0  0  0  0  0
   -1.7960    1.7101    6.7860 C   0  0  1  0  0  0  0  0  0  0  0  0
   -2.1120    1.7679    8.1229 O   0  0  0  0  0  0  0  0  0  0  0  0
   -2.0905    3.0836    8.6421 C   0  0  2  0  0  0  0  0  0  0  0  0
   -3.3000    3.1750    9.5927 C   0  0  0  0  0  0  0  0  0  0  0  0
   -2.2748    4.1477    7.6624 O   0  0  0  0  0  0  0  0  0  0  0  0
   -1.6422    3.9032    6.2637 O   0  0  0  0  0  0  0  0  0  0  0  0
   -0.7848    2.7890    6.2925 C   0  0  2  0  0  0  0  0  0  0  0  0
    0.4376    3.2605    7.1723 C   0  0  1  0  0  0  0  0  0  0  0  0
    0.4524    2.6671    8.5838 C   0  0  0  0  0  0  0  0  0  0  0  0
   -0.7477    3.1650    9.4052 C   0  0  1  0  0  0  0  0  0  0  0  0
   -0.5271    4.4706    9.9021 O   0  0  0  0  0  0  0  0  0  0  0  0
    2.7152    4.9519    7.4683 H   0  0  0  0  0  0  0  0  0  0  0  0
    3.8646    3.9731    6.5665 H   0  0  0  0  0  0  0  0  0  0  0  0
    3.2349    3.3792    8.0825 H   0  0  0  0  0  0  0  0  0  0  0  0
    2.1144    2.2241    6.2639 H   0  0  0  0  0  0  0  0  0  0  0  0
    1.6912    5.0158    5.1128 H   0  0  0  0  0  0  0  0  0  0  0  0
    2.5655    3.6809    4.4265 H   0  0  0  0  0  0  0  0  0  0  0  0
   -0.2349    4.3774    4.0787 H   0  0  0  0  0  0  0  0  0  0  0  0
    0.7429    3.2511    3.1823 H   0  0  0  0  0  0  0  0  0  0  0  0
    0.4755    1.6044    5.0182 H   0  0  0  0  0  0  0  0  0  0  0  0
   -2.3165    2.1268    4.0806 H   0  0  0  0  0  0  0  0  0  0  0  0
   -1.7413    0.6099    2.1696 H   0  0  0  0  0  0  0  0  0  0  0  0
   -0.0364    0.6807    2.6089 H   0  0  0  0  0  0  0  0  0  0  0  0
   -0.8836    2.1250    2.0537 H   0  0  0  0  0  0  0  0  0  0  0  0
   -2.7614    1.9771    6.3512 H   0  0  0  0  0  0  0  0  0  0  0  0
   -4.2331    3.0359    9.0454 H   0  0  0  0  0  0  0  0  0  0  0  0
   -3.3521    4.1456   10.0867 H   0  0  0  0  0  0  0  0  0  0  0  0
   -3.2645    2.4083   10.3704 H   0  0  0  0  0  0  0  0  0  0  0  0
    0.2901    4.3290    7.3350 H   0  0  0  0  0  0  0  0  0  0  0  0
    0.4503    1.5780    8.5182 H   0  0  0  0  0  0  0  0  0  0  0  0
    1.3598    2.9281    9.1210 H   0  0  0  0  0  0  0  0  0  0  0  0
   -0.8099    2.5182   10.2820 H   0  0  0  0  0  0  0  0  0  0  0  0
   -1.1771    4.6513   10.5656 H   0  0  0  0  0  0  0  0  0  0  0  0
  1  2  1  0
  1 22  1  0
  1 23  1  0
  1 24  1  0
  2 18  1  0
  2  3  1  0
  2 25  1  6
  3  4  1  0
  3 26  1  0
  3 27  1  0
  4  5  1  0
  4 28  1  0
  4 29  1  0
  5 17  1  0
  5  6  1  0
  5 30  1  1
  6  7  1  0
  6  8  1  0
  6 31  1  6
  7 32  1  0
  7 33  1  0
  7 34  1  0
  8  9  2  0
  8 10  1  0
 10 11  1  0
 11 17  1  0
 11 12  1  0
 11 35  1  6
 12 13  1  0
 13 20  1  0
 13 14  1  1
 13 15  1  0
 14 36  1  0
 14 37  1  0
 14 38  1  0
 15 16  1  0
 17 16  1  6
 17 18  1  0
 18 19  1  0
 18 39  1  1
 19 20  1  0
 19 40  1  0
 19 41  1  0
 20 21  1  0
 20 42  1  1
 21 43  1  0
M  END
>  <i_m_ct_stereo_status>  (221) 
1

>  <s_m_source_file>  (221) 
/var/tmp/pbs.5076255.sched01/tmpqwfmwtcs/46j3o47u_k.sdf

>  <i_m_source_file_index>  (221) 
43

>  <i_lp_mmshare_version>  (221) 
48012

>  <i_f3d_flags>  (221) 
0

>  <s_epik_input>  (221) 
W0NAQF0xMjNbQ0BASF00W0NIMl1bQ0gyXVtDQEBIXShbQ0gzXSlbQ0BASF0zW0NIMl1bQ0BASF0oW09IXSlbQ0BAXShbQ0gzXSkoT08yKU9bQ0BASF0xT0MoPU8pW0NAQEhdNFtDSDNd

>  <s_epik_cmdline>  (221) 
J2VwaWtfcHl0aG9uJywgJy1waHQnLCAnMi4wJywgJy1waCcsICc3LjAnLCAnLXRuJywgJzgnLCAnLW1hJywgJzIwMCcsICctaW1hZScsICc8aW5maWxlLm1hZT4nLCAnLW9tYWUnLCAnPG91dGZpbGUubWFlPic=

>  <r_lp_tautomer_probability>  (221) 
1

>  <r_epik_Ionization_Penalty>  (221) 
1.26949e-06

>  <r_epik_Ionization_Penalty_Charging>  (221) 
0

>  <r_epik_Ionization_Penalty_Neutral>  (221) 
1.26949e-06

>  <r_epik_State_Penalty>  (221) 
-0

>  <r_epik_Charging_Adjusted_Penalty>  (221) 
0

>  <i_epik_Tot_Q>  (221) 
0

>  <i_epik_Tot_abs_Q>  (221) 
0

>  <s_epik_Chemistry_Notes>  (221) 
This compound has an ester and may undergo hydrolysis at high or low pH. This compound contains an acetal/aminal-like group ( X-CH(R)-Y where X, Y are N, S, or O) that may be acid/base labile, releasing an aldehyde.

>  <s_lp_Force_Field>  (221) 
OPLS3e

>  <r_lp_Energy>  (221) 
66.1536

>  <b_lp_Chiralities_Consistent>  (221) 
1

>  <s_lp_Variant>  (221) 
57:0-1

>  <s_i_glide_gridfile>  (221) 
pfpi4k_grid

>  <i_i_glide_lignum>  (221) 
43

>  <i_i_glide_rotatable_bonds>  (221) 
1

>  <r_i_docking_score>  (221) 
-3.0696

>  <r_i_glide_ligand_efficiency>  (221) 
-0.146172

>  <r_i_glide_ligand_efficiency_sa>  (221) 
-0.403276

>  <r_i_glide_ligand_efficiency_ln>  (221) 
-0.758954

>  <r_i_glide_gscore>  (221) 
-3.0696

>  <r_i_glide_lipo>  (221) 
0

>  <r_i_glide_hbond>  (221) 
-0.152446

>  <r_i_glide_metal>  (221) 
-0

>  <r_i_glide_rewards>  (221) 
-1.37501

>  <r_i_glide_evdw>  (221) 
-20.2434

>  <r_i_glide_ecoul>  (221) 
-2.97891

>  <r_i_glide_erotb>  (221) 
0

>  <r_i_glide_esite>  (221) 
-0.0831378

>  <r_i_glide_emodel>  (221) 
-28.244

>  <r_i_glide_energy>  (221) 
-23.2223

>  <r_i_glide_einternal>  (221) 
0.381145

>  <r_i_glide_intrahb_reward>  (221) 
-0

>  <i_i_glide_confnum>  (221) 
1

>  <i_i_glide_posenum>  (221) 
7

>  <r_i_glide_eff_state_penalty>  (221) 
0

>  <ligand_id>  (221) 
57

>  <original_smiles>  (221) 
CC1CCC2C(C)C(=O)OC3OC4(C)OOC32C1CC4O

>  <smiles>  (221) 
[H]OC1([H])C([H])([H])C2([H])C([H])(C([H])([H])[H])C([H])([H])C([H])([H])C3([H])C([H])(C([H])([H])[H])C(=O)OC4([H])OC1(C([H])([H])[H])OOC432

$$$$
58:0:0
     RDKit          3D

 54 60  0  0  1  0  0  0  0  0999 V2000
    4.6075   -1.2081   -1.6797 C   0  0  0  0  0  0  0  0  0  0  0  0
    4.5085   -1.4677   -0.1817 C   0  0  0  0  0  0  0  0  0  0  0  0
    3.8051   -2.4190    0.4567 C   0  0  0  0  0  0  0  0  0  0  0  0
    3.0211   -3.5978   -0.1391 C   0  0  0  0  0  0  0  0  0  0  0  0
    3.0962   -4.8607    0.7847 C   0  0  1  0  0  0  0  0  0  0  0  0
    3.7125   -5.9187    0.0839 O   0  0  0  0  0  0  0  0  0  0  0  0
    3.9980   -4.4638    1.9855 C   0  0  2  0  0  0  0  0  0  0  0  0
    4.5598   -5.0643    3.2113 C   0  0  2  0  0  0  0  0  0  0  0  0
    5.8125   -5.9370    3.0244 C   0  0  0  0  0  0  0  0  0  0  0  0
    3.1251   -5.9680    3.4502 C   0  0  0  0  0  0  0  0  0  0  0  0
    1.8024   -5.0093    4.0147 C   0  0  2  0  0  0  0  0  0  0  0  0
    0.5372   -5.8617    4.1868 C   0  0  0  0  0  0  0  0  0  0  0  0
    1.3991   -3.8816    3.1928 O   0  0  0  0  0  0  0  0  0  0  0  0
    2.2331   -2.6737    3.1778 C   0  0  1  0  0  0  0  0  0  0  0  0
    1.5606   -1.5247    2.3873 C   0  0  0  0  0  0  0  0  0  0  0  0
    3.4186   -2.2329    4.2665 C   0  0  1  0  0  0  0  0  0  0  0  0
    2.3010   -2.5988    5.1795 O   0  0  0  0  0  0  0  0  0  0  0  0
    2.0549   -4.0808    5.2695 C   0  0  2  0  0  0  0  0  0  0  0  0
    3.4191   -4.2852    4.9759 C   0  0  2  0  0  0  0  0  0  0  0  0
    4.7353   -4.0831    5.7033 C   0  0  0  0  0  0  0  0  0  0  0  0
    4.8922   -3.5769    4.4001 C   0  0  1  0  0  0  0  0  0  0  0  0
    3.3402   -3.4468    2.9123 C   0  0  1  0  0  0  0  0  0  0  0  0
    4.0834   -2.3712    1.8986 C   0  0  0  0  0  0  0  0  0  0  0  0
    5.0206   -1.4080    2.0641 C   0  0  0  0  0  0  0  0  0  0  0  0
    5.3317   -0.6456    0.7863 C   0  0  1  0  0  0  0  0  0  0  0  0
    6.7047   -0.6680    0.4802 O   0  0  0  0  0  0  0  0  0  0  0  0
    4.3434   -0.1766   -1.8920 H   0  0  0  0  0  0  0  0  0  0  0  0
    3.9432   -1.8350   -2.2701 H   0  0  0  0  0  0  0  0  0  0  0  0
    5.6203   -1.3462   -2.0504 H   0  0  0  0  0  0  0  0  0  0  0  0
    1.9896   -3.2748   -0.2359 H   0  0  0  0  0  0  0  0  0  0  0  0
    3.3645   -3.8128   -1.1525 H   0  0  0  0  0  0  0  0  0  0  0  0
    2.0821   -5.1440    1.0886 H   0  0  0  0  0  0  0  0  0  0  0  0
    3.4049   -5.9102   -0.8127 H   0  0  0  0  0  0  0  0  0  0  0  0
    4.9869   -4.2865    1.5301 H   0  0  0  0  0  0  0  0  0  0  0  0
    6.0896   -6.4590    3.9426 H   0  0  0  0  0  0  0  0  0  0  0  0
    6.6753   -5.3299    2.7380 H   0  0  0  0  0  0  0  0  0  0  0  0
    5.6742   -6.6858    2.2426 H   0  0  0  0  0  0  0  0  0  0  0  0
    2.8497   -6.5749    2.5925 H   0  0  0  0  0  0  0  0  0  0  0  0
    3.3312   -6.7235    4.2148 H   0  0  0  0  0  0  0  0  0  0  0  0
    0.6885   -6.6936    4.8787 H   0  0  0  0  0  0  0  0  0  0  0  0
    0.2090   -6.2885    3.2382 H   0  0  0  0  0  0  0  0  0  0  0  0
   -0.2950   -5.2700    4.5752 H   0  0  0  0  0  0  0  0  0  0  0  0
    2.1806   -0.6312    2.2759 H   0  0  0  0  0  0  0  0  0  0  0  0
    0.6497   -1.2126    2.8967 H   0  0  0  0  0  0  0  0  0  0  0  0
    1.2602   -1.8539    1.3967 H   0  0  0  0  0  0  0  0  0  0  0  0
    3.6784   -1.1868    4.3837 H   0  0  0  0  0  0  0  0  0  0  0  0
    1.5657   -4.4564    6.1817 H   0  0  0  0  0  0  0  0  0  0  0  0
    3.3099   -4.0542    6.0421 H   0  0  0  0  0  0  0  0  0  0  0  0
    4.8862   -3.2507    6.4097 H   0  0  0  0  0  0  0  0  0  0  0  0
    5.3260   -4.9790    5.9123 H   0  0  0  0  0  0  0  0  0  0  0  0
    5.8575   -3.1215    4.2427 H   0  0  0  0  0  0  0  0  0  0  0  0
    5.4903   -1.1266    2.9969 H   0  0  0  0  0  0  0  0  0  0  0  0
    4.9582    0.3787    0.8190 H   0  0  0  0  0  0  0  0  0  0  0  0
    7.1634   -0.0388    1.0195 H   0  0  0  0  0  0  0  0  0  0  0  0
  1  2  1  0
  1 27  1  0
  1 28  1  0
  1 29  1  0
  2 25  1  0
  2  3  2  0
  3 23  1  0
  3  4  1  0
  4  5  1  0
  4 30  1  0
  4 31  1  0
  5  6  1  0
  5  7  1  0
  5 32  1  1
  6 33  1  0
  7 22  1  0
  7  8  1  0
  7 34  1  6
  8 21  1  0
  8  9  1  6
  8 10  1  0
  9 35  1  0
  9 36  1  0
  9 37  1  0
 10 11  1  0
 10 38  1  0
 10 39  1  0
 11 18  1  0
 11 12  1  1
 11 13  1  0
 12 40  1  0
 12 41  1  0
 12 42  1  0
 13 14  1  0
 14 22  1  0
 14 15  1  6
 14 16  1  0
 15 43  1  0
 15 44  1  0
 15 45  1  0
 16 21  1  0
 16 17  1  0
 16 46  1  6
 17 18  1  0
 18 19  1  0
 18 47  1  1
 19 20  1  0
 19 22  1  0
 19 48  1  6
 20 21  1  0
 20 49  1  0
 20 50  1  0
 21 51  1  1
 22 23  1  1
 23 24  2  0
 24 25  1  0
 24 52  1  0
 25 26  1  0
 25 53  1  1
 26 54  1  0
M  END
>  <i_m_ct_stereo_status>  (222) 
1

>  <s_m_source_file>  (222) 
/var/tmp/pbs.5076255.sched01/tmpqwfmwtcs/46j3o47u_k.sdf

>  <i_m_source_file_index>  (222) 
44

>  <i_lp_mmshare_version>  (222) 
48012

>  <i_f3d_flags>  (222) 
0

>  <s_epik_input>  (222) 
W0NIM11DPTFbQ0BIXShbT0hdKVtDSF09QzJDMVtDSDJdW0NAQEhdKFtPSF0pW0NAQEhdKFtDQEBdMjM0KVtDQEBdNShbQ0gzXSlbQ0BIXTZbQ0BIXTdbQ0BdMyhbQ0gzXSlPW0NAXShbQ0gyXTUpKFtDSDNdKVtDQEhdKE83KVtDQEBIXTRbQ0gyXTY=

>  <s_epik_cmdline>  (222) 
J2VwaWtfcHl0aG9uJywgJy1waHQnLCAnMi4wJywgJy1waCcsICc3LjAnLCAnLXRuJywgJzgnLCAnLW1hJywgJzIwMCcsICctaW1hZScsICc8aW5maWxlLm1hZT4nLCAnLW9tYWUnLCAnPG91dGZpbGUubWFlPic=

>  <r_lp_tautomer_probability>  (222) 
1

>  <r_epik_Ionization_Penalty>  (222) 
0.000290627

>  <r_epik_Ionization_Penalty_Charging>  (222) 
0

>  <r_epik_Ionization_Penalty_Neutral>  (222) 
0.000290627

>  <r_epik_State_Penalty>  (222) 
-0

>  <r_epik_Charging_Adjusted_Penalty>  (222) 
0

>  <i_epik_Tot_Q>  (222) 
0

>  <i_epik_Tot_abs_Q>  (222) 
0

>  <s_lp_Force_Field>  (222) 
OPLS3e

>  <r_lp_Energy>  (222) 
901.223

>  <b_lp_Chiralities_Consistent>  (222) 
1

>  <s_lp_Variant>  (222) 
58:0-1

>  <s_i_glide_gridfile>  (222) 
pfpi4k_grid

>  <i_i_glide_lignum>  (222) 
44

>  <i_i_glide_rotatable_bonds>  (222) 
2

>  <r_i_docking_score>  (222) 
-3.82774

>  <r_i_glide_ligand_efficiency>  (222) 
-0.147221

>  <r_i_glide_ligand_efficiency_sa>  (222) 
-0.436141

>  <r_i_glide_ligand_efficiency_ln>  (222) 
-0.898933

>  <r_i_glide_gscore>  (222) 
-3.82774

>  <r_i_glide_lipo>  (222) 
-0.267293

>  <r_i_glide_hbond>  (222) 
-0.612055

>  <r_i_glide_metal>  (222) 
-0

>  <r_i_glide_rewards>  (222) 
-0.978714

>  <r_i_glide_evdw>  (222) 
-20.1097

>  <r_i_glide_ecoul>  (222) 
-6.42796

>  <r_i_glide_erotb>  (222) 
0

>  <r_i_glide_esite>  (222) 
0

>  <r_i_glide_emodel>  (222) 
-32.4515

>  <r_i_glide_energy>  (222) 
-26.5377

>  <r_i_glide_einternal>  (222) 
1.2988

>  <r_i_glide_intrahb_reward>  (222) 
-0

>  <i_i_glide_confnum>  (222) 
2

>  <i_i_glide_posenum>  (222) 
36

>  <r_i_glide_eff_state_penalty>  (222) 
0

>  <ligand_id>  (222) 
58

>  <original_smiles>  (222) 
CC1=C2CC(O)C3C4(C)CC5(C)OC6(C)C7OC5C(CC74)C36C2=CC1O

>  <smiles>  (222) 
[H]OC1([H])C([H])=C2C(=C1C([H])([H])[H])C([H])([H])C([H])(O[H])C1([H])C23C2([H])C([H])([H])C4([H])C5([H])OC2([H])C(C([H])([H])[H])(OC53C([H])([H])[H])C([H])([H])C41C([H])([H])[H]

$$$$
58:0:1
     RDKit          3D

 54 60  0  0  1  0  0  0  0  0999 V2000
    2.6430   -2.8282   -3.6948 C   0  0  0  0  0  0  0  0  0  0  0  0
    3.5440   -3.0312   -2.4937 C   0  0  0  0  0  0  0  0  0  0  0  0
    3.2264   -3.4564   -1.2641 C   0  0  0  0  0  0  0  0  0  0  0  0
    1.8786   -3.9348   -0.7547 C   0  0  0  0  0  0  0  0  0  0  0  0
    2.0040   -5.0215    0.3668 C   0  0  1  0  0  0  0  0  0  0  0  0
    1.2156   -6.1437    0.0782 O   0  0  0  0  0  0  0  0  0  0  0  0
    3.5028   -5.3247    0.4930 C   0  0  2  0  0  0  0  0  0  0  0  0
    4.3765   -6.2146    1.2667 C   0  0  2  0  0  0  0  0  0  0  0  0
    4.4778   -7.6531    0.7459 C   0  0  0  0  0  0  0  0  0  0  0  0
    3.3707   -6.0587    2.6486 C   0  0  0  0  0  0  0  0  0  0  0  0
    3.5209   -4.5310    3.4408 C   0  0  2  0  0  0  0  0  0  0  0  0
    2.6018   -4.4373    4.6644 C   0  0  0  0  0  0  0  0  0  0  0  0
    3.2343   -3.3393    2.6535 O   0  0  0  0  0  0  0  0  0  0  0  0
    4.2183   -2.8868    1.6570 C   0  0  1  0  0  0  0  0  0  0  0  0
    3.8301   -1.5150    1.0506 C   0  0  0  0  0  0  0  0  0  0  0  0
    5.8305   -3.3373    1.5165 C   0  0  1  0  0  0  0  0  0  0  0  0
    5.7173   -2.9964    2.9645 O   0  0  0  0  0  0  0  0  0  0  0  0
    4.9848   -4.0234    3.7812 C   0  0  2  0  0  0  0  0  0  0  0  0
    5.3982   -4.9974    2.8465 C   0  0  2  0  0  0  0  0  0  0  0  0
    6.6998   -5.6998    2.4799 C   0  0  0  0  0  0  0  0  0  0  0  0
    6.0758   -5.3131    1.2701 C   0  0  1  0  0  0  0  0  0  0  0  0
    4.2778   -4.1624    1.1258 C   0  0  1  0  0  0  0  0  0  0  0  0
    4.4284   -3.6932   -0.4657 C   0  0  0  0  0  0  0  0  0  0  0  0
    5.4715   -3.5114   -1.3045 C   0  0  0  0  0  0  0  0  0  0  0  0
    5.0297   -2.9885   -2.6699 C   0  0  1  0  0  0  0  0  0  0  0  0
    5.3748   -3.8504   -3.7315 O   0  0  0  0  0  0  0  0  0  0  0  0
    2.8302   -1.8491   -4.1171 H   0  0  0  0  0  0  0  0  0  0  0  0
    1.5866   -2.9020   -3.4600 H   0  0  0  0  0  0  0  0  0  0  0  0
    2.8495   -3.5409   -4.4931 H   0  0  0  0  0  0  0  0  0  0  0  0
    1.4496   -3.0536   -0.3126 H   0  0  0  0  0  0  0  0  0  0  0  0
    1.2045   -4.2047   -1.5652 H   0  0  0  0  0  0  0  0  0  0  0  0
    1.6077   -4.6351    1.3053 H   0  0  0  0  0  0  0  0  0  0  0  0
    1.6957   -6.6070   -0.5895 H   0  0  0  0  0  0  0  0  0  0  0  0
    3.7833   -5.7414   -0.4849 H   0  0  0  0  0  0  0  0  0  0  0  0
    5.0498   -8.2887    1.4242 H   0  0  0  0  0  0  0  0  0  0  0  0
    4.9816   -7.6614   -0.2215 H   0  0  0  0  0  0  0  0  0  0  0  0
    3.4941   -8.1020    0.6044 H   0  0  0  0  0  0  0  0  0  0  0  0
    2.3249   -6.3152    2.4698 H   0  0  0  0  0  0  0  0  0  0  0  0
    3.6820   -6.8267    3.3626 H   0  0  0  0  0  0  0  0  0  0  0  0
    2.7989   -5.2345    5.3849 H   0  0  0  0  0  0  0  0  0  0  0  0
    1.5515   -4.5076    4.3758 H   0  0  0  0  0  0  0  0  0  0  0  0
    2.7240   -3.4867    5.1905 H   0  0  0  0  0  0  0  0  0  0  0  0
    4.4930   -1.1846    0.2472 H   0  0  0  0  0  0  0  0  0  0  0  0
    3.8819   -0.7524    1.8277 H   0  0  0  0  0  0  0  0  0  0  0  0
    2.8051   -1.5166    0.6860 H   0  0  0  0  0  0  0  0  0  0  0  0
    6.5411   -2.6667    1.0281 H   0  0  0  0  0  0  0  0  0  0  0  0
    5.2189   -4.0860    4.8569 H   0  0  0  0  0  0  0  0  0  0  0  0
    6.2306   -4.8160    3.5575 H   0  0  0  0  0  0  0  0  0  0  0  0
    7.6732   -5.1845    2.5300 H   0  0  0  0  0  0  0  0  0  0  0  0
    6.7389   -6.7826    2.6305 H   0  0  0  0  0  0  0  0  0  0  0  0
    6.6817   -5.5530    0.3887 H   0  0  0  0  0  0  0  0  0  0  0  0
    6.5149   -3.6448   -1.0473 H   0  0  0  0  0  0  0  0  0  0  0  0
    5.3687   -1.9666   -2.8399 H   0  0  0  0  0  0  0  0  0  0  0  0
    5.4450   -4.7379   -3.4008 H   0  0  0  0  0  0  0  0  0  0  0  0
  1  2  1  0
  1 27  1  0
  1 28  1  0
  1 29  1  0
  2 25  1  0
  2  3  2  0
  3 23  1  0
  3  4  1  0
  4  5  1  0
  4 30  1  0
  4 31  1  0
  5  6  1  0
  5  7  1  0
  5 32  1  1
  6 33  1  0
  7 22  1  0
  7  8  1  0
  7 34  1  6
  8 21  1  0
  8  9  1  6
  8 10  1  0
  9 35  1  0
  9 36  1  0
  9 37  1  0
 10 11  1  0
 10 38  1  0
 10 39  1  0
 11 18  1  0
 11 12  1  1
 11 13  1  0
 12 40  1  0
 12 41  1  0
 12 42  1  0
 13 14  1  0
 14 22  1  0
 14 15  1  6
 14 16  1  0
 15 43  1  0
 15 44  1  0
 15 45  1  0
 16 21  1  0
 16 17  1  0
 16 46  1  6
 17 18  1  0
 18 19  1  0
 18 47  1  1
 19 20  1  0
 19 22  1  0
 19 48  1  1
 20 21  1  0
 20 49  1  0
 20 50  1  0
 21 51  1  6
 22 23  1  6
 23 24  2  0
 24 25  1  0
 24 52  1  0
 25 26  1  0
 25 53  1  6
 26 54  1  0
M  END
>  <i_m_ct_stereo_status>  (223) 
1

>  <s_m_source_file>  (223) 
/var/tmp/pbs.5076255.sched01/tmpqwfmwtcs/46j3o47u_k.sdf

>  <i_m_source_file_index>  (223) 
44

>  <i_lp_mmshare_version>  (223) 
48012

>  <i_f3d_flags>  (223) 
0

>  <s_epik_input>  (223) 
W0NIM11DPTFbQ0BIXShbT0hdKVtDSF09QzJDMVtDSDJdW0NAQEhdKFtPSF0pW0NAQEhdKFtDQEBdMjM0KVtDQEBdNShbQ0gzXSlbQ0BIXTZbQ0BIXTdbQ0BdMyhbQ0gzXSlPW0NAXShbQ0gyXTUpKFtDSDNdKVtDQEhdKE83KVtDQEBIXTRbQ0gyXTY=

>  <s_epik_cmdline>  (223) 
J2VwaWtfcHl0aG9uJywgJy1waHQnLCAnMi4wJywgJy1waCcsICc3LjAnLCAnLXRuJywgJzgnLCAnLW1hJywgJzIwMCcsICctaW1hZScsICc8aW5maWxlLm1hZT4nLCAnLW9tYWUnLCAnPG91dGZpbGUubWFlPic=

>  <r_lp_tautomer_probability>  (223) 
1

>  <r_epik_Ionization_Penalty>  (223) 
0.000290627

>  <r_epik_Ionization_Penalty_Charging>  (223) 
0

>  <r_epik_Ionization_Penalty_Neutral>  (223) 
0.000290627

>  <r_epik_State_Penalty>  (223) 
-0

>  <r_epik_Charging_Adjusted_Penalty>  (223) 
0

>  <i_epik_Tot_Q>  (223) 
0

>  <i_epik_Tot_abs_Q>  (223) 
0

>  <s_lp_Force_Field>  (223) 
OPLS3e

>  <r_lp_Energy>  (223) 
901.223

>  <b_lp_Chiralities_Consistent>  (223) 
1

>  <s_lp_Variant>  (223) 
58:0-1

>  <s_i_glide_gridfile>  (223) 
pfpi4k_grid

>  <i_i_glide_lignum>  (223) 
44

>  <i_i_glide_rotatable_bonds>  (223) 
2

>  <r_i_docking_score>  (223) 
-3.82106

>  <r_i_glide_ligand_efficiency>  (223) 
-0.146964

>  <r_i_glide_ligand_efficiency_sa>  (223) 
-0.43538

>  <r_i_glide_ligand_efficiency_ln>  (223) 
-0.897363

>  <r_i_glide_gscore>  (223) 
-3.82106

>  <r_i_glide_lipo>  (223) 
-0.963957

>  <r_i_glide_hbond>  (223) 
-0.403126

>  <r_i_glide_metal>  (223) 
-0

>  <r_i_glide_rewards>  (223) 
-0.978714

>  <r_i_glide_evdw>  (223) 
-17.6807

>  <r_i_glide_ecoul>  (223) 
-3.94151

>  <r_i_glide_erotb>  (223) 
0

>  <r_i_glide_esite>  (223) 
0

>  <r_i_glide_emodel>  (223) 
-26.5939

>  <r_i_glide_energy>  (223) 
-21.6222

>  <r_i_glide_einternal>  (223) 
0.339113

>  <r_i_glide_intrahb_reward>  (223) 
-0

>  <i_i_glide_confnum>  (223) 
2

>  <i_i_glide_posenum>  (223) 
2

>  <r_i_glide_eff_state_penalty>  (223) 
0

>  <ligand_id>  (223) 
58

>  <original_smiles>  (223) 
CC1=C2CC(O)C3C4(C)CC5(C)OC6(C)C7OC5C(CC74)C36C2=CC1O

>  <smiles>  (223) 
[H]OC1([H])C([H])=C2C(=C1C([H])([H])[H])C([H])([H])C([H])(O[H])C1([H])C23C2([H])C([H])([H])C4([H])C5([H])OC2([H])C(C([H])([H])[H])(OC53C([H])([H])[H])C([H])([H])C41C([H])([H])[H]

$$$$
58:0:2
     RDKit          3D

 54 60  0  0  1  0  0  0  0  0999 V2000
    2.2239   -2.9934   -3.8790 C   0  0  0  0  0  0  0  0  0  0  0  0
    3.3098   -3.1789   -2.8519 C   0  0  0  0  0  0  0  0  0  0  0  0
    3.1849   -3.4447   -1.5512 C   0  0  0  0  0  0  0  0  0  0  0  0
    1.9277   -3.7631   -0.7620 C   0  0  0  0  0  0  0  0  0  0  0  0
    2.1844   -4.7687    0.4046 C   0  0  1  0  0  0  0  0  0  0  0  0
    1.2998   -5.8576    0.2647 O   0  0  0  0  0  0  0  0  0  0  0  0
    3.6468   -5.1747    0.3050 C   0  0  2  0  0  0  0  0  0  0  0  0
    4.5622   -6.0722    0.9975 C   0  0  2  0  0  0  0  0  0  0  0  0
    4.4878   -7.5509    0.6156 C   0  0  0  0  0  0  0  0  0  0  0  0
    3.8381   -5.7241    2.5058 C   0  0  0  0  0  0  0  0  0  0  0  0
    4.1976   -4.1475    3.0951 C   0  0  2  0  0  0  0  0  0  0  0  0
    3.5397   -3.8817    4.4620 C   0  0  0  0  0  0  0  0  0  0  0  0
    3.8648   -3.0039    2.2586 O   0  0  0  0  0  0  0  0  0  0  0  0
    4.6907   -2.7194    1.0697 C   0  0  1  0  0  0  0  0  0  0  0  0
    4.2892   -1.3685    0.4254 C   0  0  0  0  0  0  0  0  0  0  0  0
    6.2113   -3.3130    0.7014 C   0  0  1  0  0  0  0  0  0  0  0  0
    6.3302   -2.8341    2.0793 O   0  0  0  0  0  0  0  0  0  0  0  0
    5.7067   -3.7427    3.1111 C   0  0  2  0  0  0  0  0  0  0  0  0
    5.9262   -4.8121    2.2299 C   0  0  2  0  0  0  0  0  0  0  0  0
    7.1008   -5.6252    1.7388 C   0  0  0  0  0  0  0  0  0  0  0  0
    6.2957   -5.3142    0.6254 C   0  0  1  0  0  0  0  0  0  0  0  0
    4.5760   -4.0291    0.6600 C   0  0  1  0  0  0  0  0  0  0  0  0
    4.4787   -3.7029   -0.9579 C   0  0  0  0  0  0  0  0  0  0  0  0
    5.3685   -3.6821   -1.9748 C   0  0  0  0  0  0  0  0  0  0  0  0
    4.7465   -3.2630   -3.2938 C   0  0  1  0  0  0  0  0  0  0  0  0
    4.9236   -4.2417   -4.2995 O   0  0  0  0  0  0  0  0  0  0  0  0
    2.4031   -2.0518   -4.3835 H   0  0  0  0  0  0  0  0  0  0  0  0
    1.2270   -2.9554   -3.4534 H   0  0  0  0  0  0  0  0  0  0  0  0
    2.2249   -3.7756   -4.6346 H   0  0  0  0  0  0  0  0  0  0  0  0
    1.6600   -2.8338   -0.2980 H   0  0  0  0  0  0  0  0  0  0  0  0
    1.1048   -4.0543   -1.4152 H   0  0  0  0  0  0  0  0  0  0  0  0
    1.9452   -4.2641    1.3500 H   0  0  0  0  0  0  0  0  0  0  0  0
    1.5830   -6.5496    0.8556 H   0  0  0  0  0  0  0  0  0  0  0  0
    3.7208   -5.6862   -0.6570 H   0  0  0  0  0  0  0  0  0  0  0  0
    5.1393   -8.1668    1.2330 H   0  0  0  0  0  0  0  0  0  0  0  0
    4.7908   -7.6777   -0.4172 H   0  0  0  0  0  0  0  0  0  0  0  0
    3.4743   -7.9327    0.6866 H   0  0  0  0  0  0  0  0  0  0  0  0
    2.7739   -5.9077    2.5384 H   0  0  0  0  0  0  0  0  0  0  0  0
    4.2271   -6.4434    3.2309 H   0  0  0  0  0  0  0  0  0  0  0  0
    3.8147   -4.6245    5.2122 H   0  0  0  0  0  0  0  0  0  0  0  0
    2.4559   -3.8914    4.3741 H   0  0  0  0  0  0  0  0  0  0  0  0
    3.8142   -2.9045    4.8663 H   0  0  0  0  0  0  0  0  0  0  0  0
    4.8182   -1.1555   -0.5026 H   0  0  0  0  0  0  0  0  0  0  0  0
    4.5230   -0.5545    1.1111 H   0  0  0  0  0  0  0  0  0  0  0  0
    3.2195   -1.3236    0.2479 H   0  0  0  0  0  0  0  0  0  0  0  0
    6.8838   -2.7481    0.0483 H   0  0  0  0  0  0  0  0  0  0  0  0
    6.1052   -3.7176    4.1355 H   0  0  0  0  0  0  0  0  0  0  0  0
    6.8589   -4.6395    2.7764 H   0  0  0  0  0  0  0  0  0  0  0  0
    8.1012   -5.1773    1.5888 H   0  0  0  0  0  0  0  0  0  0  0  0
    7.1113   -6.6893    1.9932 H   0  0  0  0  0  0  0  0  0  0  0  0
    6.7067   -5.6744   -0.3109 H   0  0  0  0  0  0  0  0  0  0  0  0
    6.4250   -3.8600   -1.8820 H   0  0  0  0  0  0  0  0  0  0  0  0
    5.0908   -2.2782   -3.6084 H   0  0  0  0  0  0  0  0  0  0  0  0
    4.8041   -5.1024   -3.9197 H   0  0  0  0  0  0  0  0  0  0  0  0
  1  2  1  0
  1 27  1  0
  1 28  1  0
  1 29  1  0
  2 25  1  0
  2  3  2  0
  3 23  1  0
  3  4  1  0
  4  5  1  0
  4 30  1  0
  4 31  1  0
  5  6  1  0
  5  7  1  0
  5 32  1  1
  6 33  1  0
  7 22  1  0
  7  8  1  0
  7 34  1  6
  8 21  1  0
  8  9  1  6
  8 10  1  0
  9 35  1  0
  9 36  1  0
  9 37  1  0
 10 11  1  0
 10 38  1  0
 10 39  1  0
 11 18  1  0
 11 12  1  1
 11 13  1  0
 12 40  1  0
 12 41  1  0
 12 42  1  0
 13 14  1  0
 14 22  1  0
 14 15  1  6
 14 16  1  0
 15 43  1  0
 15 44  1  0
 15 45  1  0
 16 21  1  0
 16 17  1  0
 16 46  1  6
 17 18  1  0
 18 19  1  0
 18 47  1  1
 19 20  1  0
 19 22  1  0
 19 48  1  1
 20 21  1  0
 20 49  1  0
 20 50  1  0
 21 51  1  6
 22 23  1  6
 23 24  2  0
 24 25  1  0
 24 52  1  0
 25 26  1  0
 25 53  1  6
 26 54  1  0
M  END
>  <i_m_ct_stereo_status>  (224) 
1

>  <s_m_source_file>  (224) 
/var/tmp/pbs.5076255.sched01/tmpqwfmwtcs/46j3o47u_k.sdf

>  <i_m_source_file_index>  (224) 
44

>  <i_lp_mmshare_version>  (224) 
48012

>  <i_f3d_flags>  (224) 
0

>  <s_epik_input>  (224) 
W0NIM11DPTFbQ0BIXShbT0hdKVtDSF09QzJDMVtDSDJdW0NAQEhdKFtPSF0pW0NAQEhdKFtDQEBdMjM0KVtDQEBdNShbQ0gzXSlbQ0BIXTZbQ0BIXTdbQ0BdMyhbQ0gzXSlPW0NAXShbQ0gyXTUpKFtDSDNdKVtDQEhdKE83KVtDQEBIXTRbQ0gyXTY=

>  <s_epik_cmdline>  (224) 
J2VwaWtfcHl0aG9uJywgJy1waHQnLCAnMi4wJywgJy1waCcsICc3LjAnLCAnLXRuJywgJzgnLCAnLW1hJywgJzIwMCcsICctaW1hZScsICc8aW5maWxlLm1hZT4nLCAnLW9tYWUnLCAnPG91dGZpbGUubWFlPic=

>  <r_lp_tautomer_probability>  (224) 
1

>  <r_epik_Ionization_Penalty>  (224) 
0.000290627

>  <r_epik_Ionization_Penalty_Charging>  (224) 
0

>  <r_epik_Ionization_Penalty_Neutral>  (224) 
0.000290627

>  <r_epik_State_Penalty>  (224) 
-0

>  <r_epik_Charging_Adjusted_Penalty>  (224) 
0

>  <i_epik_Tot_Q>  (224) 
0

>  <i_epik_Tot_abs_Q>  (224) 
0

>  <s_lp_Force_Field>  (224) 
OPLS3e

>  <r_lp_Energy>  (224) 
901.223

>  <b_lp_Chiralities_Consistent>  (224) 
1

>  <s_lp_Variant>  (224) 
58:0-1

>  <s_i_glide_gridfile>  (224) 
pfpi4k_grid

>  <i_i_glide_lignum>  (224) 
44

>  <i_i_glide_rotatable_bonds>  (224) 
2

>  <r_i_docking_score>  (224) 
-3.72674

>  <r_i_glide_ligand_efficiency>  (224) 
-0.143336

>  <r_i_glide_ligand_efficiency_sa>  (224) 
-0.424633

>  <r_i_glide_ligand_efficiency_ln>  (224) 
-0.875214

>  <r_i_glide_gscore>  (224) 
-3.72674

>  <r_i_glide_lipo>  (224) 
-1.09112

>  <r_i_glide_hbond>  (224) 
-0.18126

>  <r_i_glide_metal>  (224) 
-0

>  <r_i_glide_rewards>  (224) 
-0.978714

>  <r_i_glide_evdw>  (224) 
-10.3112

>  <r_i_glide_ecoul>  (224) 
-6.40064

>  <r_i_glide_erotb>  (224) 
0

>  <r_i_glide_esite>  (224) 
0

>  <r_i_glide_emodel>  (224) 
-22.6437

>  <r_i_glide_energy>  (224) 
-16.7118

>  <r_i_glide_einternal>  (224) 
0.56257

>  <r_i_glide_intrahb_reward>  (224) 
-0

>  <i_i_glide_confnum>  (224) 
2

>  <i_i_glide_posenum>  (224) 
9

>  <r_i_glide_eff_state_penalty>  (224) 
0

>  <ligand_id>  (224) 
58

>  <original_smiles>  (224) 
CC1=C2CC(O)C3C4(C)CC5(C)OC6(C)C7OC5C(CC74)C36C2=CC1O

>  <smiles>  (224) 
[H]OC1([H])C([H])=C2C(=C1C([H])([H])[H])C([H])([H])C([H])(O[H])C1([H])C23C2([H])C([H])([H])C4([H])C5([H])OC2([H])C(C([H])([H])[H])(OC53C([H])([H])[H])C([H])([H])C41C([H])([H])[H]

$$$$
60:0:0
     RDKit          3D

 48 51  0  0  1  0  0  0  0  0999 V2000
  -10.9620   -6.3109  -10.7238 C   0  0  0  0  0  0  0  0  0  0  0  0
   -9.4561   -6.4177  -10.8135 C   0  0  0  0  0  0  0  0  0  0  0  0
   -8.8977   -7.4761  -11.2427 O   0  0  0  0  0  0  0  0  0  0  0  0
   -8.8897   -5.4719  -10.0824 O   0  0  0  0  0  0  0  0  0  0  0  0
   -7.8811   -5.7077   -9.1302 C   0  0  0  0  0  0  0  0  0  0  0  0
   -8.4355   -6.3593   -7.8231 C   0  0  2  0  0  0  0  0  0  0  0  0
   -9.4392   -5.3385   -7.1231 C   0  0  0  0  0  0  0  0  0  0  0  0
   -8.7646   -4.2220   -6.2607 C   0  0  0  0  0  0  0  0  0  0  0  0
   -7.3231   -4.5749   -5.9376 C   0  0  2  0  0  0  0  0  0  0  0  0
   -7.3654   -6.0623   -5.5524 C   0  0  1  0  0  0  0  0  0  0  0  0
   -7.2560   -6.7824   -6.8782 C   0  0  1  0  0  0  0  0  0  0  0  0
   -7.4281   -8.2666   -6.7562 C   0  0  1  0  0  0  0  0  0  0  0  0
   -7.8680   -8.7282   -8.1766 C   0  0  2  0  0  0  0  0  0  0  0  0
   -9.0491   -7.7771   -8.0876 C   0  0  0  0  0  0  0  0  0  0  0  0
   -6.7539   -9.3716   -7.3575 C   0  0  0  0  0  0  0  0  0  0  0  0
   -5.3078   -9.1626   -7.7367 C   0  0  0  0  0  0  0  0  0  0  0  0
   -6.9954  -10.7747   -6.8456 C   0  0  0  0  0  0  0  0  0  0  0  0
   -6.5263   -5.1059   -4.7812 C   0  0  0  0  0  0  0  0  0  0  0  0
   -5.0234   -5.2459   -4.8927 C   0  0  0  0  0  0  0  0  0  0  0  0
   -6.9425   -4.6892   -3.4018 C   0  0  0  0  0  0  0  0  0  0  0  0
  -11.2868   -5.3816  -11.1946 H   0  0  0  0  0  0  0  0  0  0  0  0
  -11.2792   -6.2691   -9.6731 H   0  0  0  0  0  0  0  0  0  0  0  0
  -11.4652   -7.1621  -11.1687 H   0  0  0  0  0  0  0  0  0  0  0  0
   -7.0242   -6.2427   -9.5554 H   0  0  0  0  0  0  0  0  0  0  0  0
   -7.5187   -4.7189   -8.8772 H   0  0  0  0  0  0  0  0  0  0  0  0
  -10.1710   -4.9491   -7.8436 H   0  0  0  0  0  0  0  0  0  0  0  0
  -10.0631   -5.8336   -6.3817 H   0  0  0  0  0  0  0  0  0  0  0  0
   -8.7978   -3.2874   -6.8187 H   0  0  0  0  0  0  0  0  0  0  0  0
   -9.3375   -4.0787   -5.3387 H   0  0  0  0  0  0  0  0  0  0  0  0
   -6.6569   -4.2134   -6.7096 H   0  0  0  0  0  0  0  0  0  0  0  0
   -8.2022   -6.4257   -4.9522 H   0  0  0  0  0  0  0  0  0  0  0  0
   -6.2683   -6.6031   -7.3082 H   0  0  0  0  0  0  0  0  0  0  0  0
   -8.1003   -8.5635   -5.9628 H   0  0  0  0  0  0  0  0  0  0  0  0
   -7.3617   -8.4971   -9.1145 H   0  0  0  0  0  0  0  0  0  0  0  0
   -9.7562   -8.0738   -7.3227 H   0  0  0  0  0  0  0  0  0  0  0  0
   -9.6685   -7.9181   -8.9463 H   0  0  0  0  0  0  0  0  0  0  0  0
   -4.9948   -9.9489   -8.4161 H   0  0  0  0  0  0  0  0  0  0  0  0
   -4.6668   -9.1962   -6.8530 H   0  0  0  0  0  0  0  0  0  0  0  0
   -5.1454   -8.2059   -8.2356 H   0  0  0  0  0  0  0  0  0  0  0  0
   -6.7003  -11.5151   -7.5923 H   0  0  0  0  0  0  0  0  0  0  0  0
   -8.0542  -10.9196   -6.6295 H   0  0  0  0  0  0  0  0  0  0  0  0
   -6.4313  -10.9444   -5.9273 H   0  0  0  0  0  0  0  0  0  0  0  0
   -4.6478   -5.9984   -4.2043 H   0  0  0  0  0  0  0  0  0  0  0  0
   -4.5468   -4.2873   -4.6936 H   0  0  0  0  0  0  0  0  0  0  0  0
   -4.7276   -5.5798   -5.8782 H   0  0  0  0  0  0  0  0  0  0  0  0
   -6.6174   -5.3986   -2.6586 H   0  0  0  0  0  0  0  0  0  0  0  0
   -8.0240   -4.5735   -3.3446 H   0  0  0  0  0  0  0  0  0  0  0  0
   -6.4855   -3.7165   -3.1564 H   0  0  0  0  0  0  0  0  0  0  0  0
  1  2  1  0
  1 21  1  0
  1 22  1  0
  1 23  1  0
  2  3  2  0
  2  4  1  0
  4  5  1  0
  6  5  1  6
  5 24  1  0
  5 25  1  0
  6 11  1  0
  6 14  1  0
  6  7  1  0
  7  8  1  0
  7 26  1  0
  7 27  1  0
  8  9  1  0
  8 28  1  0
  8 29  1  0
  9 18  1  0
  9 10  1  0
  9 30  1  6
 10 11  1  0
 10 18  1  0
 10 31  1  1
 11 12  1  0
 11 32  1  6
 12 15  1  0
 12 13  1  0
 12 33  1  1
 13 14  1  0
 13 15  1  0
 13 34  1  6
 14 35  1  0
 14 36  1  0
 15 16  1  0
 15 17  1  0
 16 37  1  0
 16 38  1  0
 16 39  1  0
 17 40  1  0
 17 41  1  0
 17 42  1  0
 18 19  1  0
 18 20  1  0
 19 43  1  0
 19 44  1  0
 19 45  1  0
 20 46  1  0
 20 47  1  0
 20 48  1  0
M  END
>  <i_m_ct_stereo_status>  (225) 
1

>  <s_m_source_file>  (225) 
/var/tmp/pbs.5076255.sched01/tmpqwfmwtcs/46j3o47u_k.sdf

>  <i_m_source_file_index>  (225) 
46

>  <i_lp_mmshare_version>  (225) 
48012

>  <i_f3d_flags>  (225) 
0

>  <s_epik_input>  (225) 
W0NIM11DKD1PKU9bQ0gyXVtDQEBdMTJbQ0BASF0oW0NAQEhdM1tDQEBIXShbQ0gyXVtDSDJdMSlDMyhbQ0gzXSlbQ0gzXSlbQ0BIXTRbQ0BIXShbQ0gyXTIpQzQoW0NIM10pW0NIM10=

>  <s_epik_cmdline>  (225) 
J2VwaWtfcHl0aG9uJywgJy1waHQnLCAnMi4wJywgJy1waCcsICc3LjAnLCAnLXRuJywgJzgnLCAnLW1hJywgJzIwMCcsICctaW1hZScsICc8aW5maWxlLm1hZT4nLCAnLW9tYWUnLCAnPG91dGZpbGUubWFlPic=

>  <r_lp_tautomer_probability>  (225) 
1

>  <r_epik_Ionization_Penalty>  (225) 
0

>  <r_epik_Ionization_Penalty_Charging>  (225) 
0

>  <r_epik_Ionization_Penalty_Neutral>  (225) 
0

>  <r_epik_State_Penalty>  (225) 
-0

>  <r_epik_Charging_Adjusted_Penalty>  (225) 
0

>  <i_epik_Tot_Q>  (225) 
0

>  <i_epik_Tot_abs_Q>  (225) 
0

>  <s_epik_Chemistry_Notes>  (225) 
This compound has an ester and may undergo hydrolysis at high or low pH.

>  <s_lp_Force_Field>  (225) 
OPLS3e

>  <r_lp_Energy>  (225) 
82.9389

>  <b_lp_Chiralities_Consistent>  (225) 
1

>  <s_lp_Variant>  (225) 
60:0-1

>  <s_i_glide_gridfile>  (225) 
pfpi4k_grid

>  <i_i_glide_lignum>  (225) 
46

>  <i_i_glide_rotatable_bonds>  (225) 
3

>  <r_i_docking_score>  (225) 
-5.44497

>  <r_i_glide_ligand_efficiency>  (225) 
-0.272248

>  <r_i_glide_ligand_efficiency_sa>  (225) 
-0.738996

>  <r_i_glide_ligand_efficiency_ln>  (225) 
-1.3627

>  <r_i_glide_gscore>  (225) 
-5.44497

>  <r_i_glide_lipo>  (225) 
-2.90979

>  <r_i_glide_hbond>  (225) 
0

>  <r_i_glide_metal>  (225) 
-0

>  <r_i_glide_rewards>  (225) 
-2.45856

>  <r_i_glide_evdw>  (225) 
-11.5273

>  <r_i_glide_ecoul>  (225) 
0.191994

>  <r_i_glide_erotb>  (225) 
0.470946

>  <r_i_glide_esite>  (225) 
0

>  <r_i_glide_emodel>  (225) 
-4.53062

>  <r_i_glide_energy>  (225) 
-11.3353

>  <r_i_glide_einternal>  (225) 
7.98849

>  <r_i_glide_intrahb_reward>  (225) 
-0

>  <i_i_glide_confnum>  (225) 
4

>  <i_i_glide_posenum>  (225) 
7

>  <r_i_glide_eff_state_penalty>  (225) 
0

>  <ligand_id>  (225) 
60

>  <original_smiles>  (225) 
CC(=O)OCC12CCC3C(C1C1C(C2)C1(C)C)C3(C)C

>  <smiles>  (225) 
[H]C([H])([H])C(=O)OC([H])([H])C12C([H])([H])C([H])([H])C3([H])C([H])(C1([H])C1([H])C([H])(C2([H])[H])C1(C([H])([H])[H])C([H])([H])[H])C3(C([H])([H])[H])C([H])([H])[H]

$$$$
60:0:1
     RDKit          3D

 48 51  0  0  1  0  0  0  0  0999 V2000
  -12.8493   -6.8235  -10.8017 C   0  0  0  0  0  0  0  0  0  0  0  0
  -11.9624   -7.4137   -9.7387 C   0  0  0  0  0  0  0  0  0  0  0  0
  -11.8575   -8.6589   -9.5831 O   0  0  0  0  0  0  0  0  0  0  0  0
  -11.3176   -6.4918   -9.0453 O   0  0  0  0  0  0  0  0  0  0  0  0
  -10.4414   -6.8647   -7.9781 C   0  0  0  0  0  0  0  0  0  0  0  0
   -8.9329   -6.7617   -8.3744 C   0  0  2  0  0  0  0  0  0  0  0  0
   -8.6218   -7.5324   -9.7095 C   0  0  0  0  0  0  0  0  0  0  0  0
   -8.5703   -9.1038   -9.5471 C   0  0  0  0  0  0  0  0  0  0  0  0
   -8.3455   -9.4765   -8.0878 C   0  0  2  0  0  0  0  0  0  0  0  0
   -7.2339   -8.4961   -7.6731 C   0  0  1  0  0  0  0  0  0  0  0  0
   -8.0416   -7.3055   -7.2144 C   0  0  1  0  0  0  0  0  0  0  0  0
   -7.1531   -6.1554   -6.8738 C   0  0  1  0  0  0  0  0  0  0  0  0
   -8.1110   -4.8698   -6.9849 C   0  0  2  0  0  0  0  0  0  0  0  0
   -8.4953   -5.2730   -8.4067 C   0  0  0  0  0  0  0  0  0  0  0  0
   -7.1168   -5.1069   -5.8569 C   0  0  0  0  0  0  0  0  0  0  0  0
   -7.6579   -5.4226   -4.5227 C   0  0  0  0  0  0  0  0  0  0  0  0
   -5.8913   -4.2435   -5.6010 C   0  0  0  0  0  0  0  0  0  0  0  0
   -7.1696   -9.9334   -7.2990 C   0  0  0  0  0  0  0  0  0  0  0  0
   -7.3209  -10.2544   -5.8710 C   0  0  0  0  0  0  0  0  0  0  0  0
   -6.1585  -10.8630   -7.9187 C   0  0  0  0  0  0  0  0  0  0  0  0
  -12.3198   -6.0148  -11.3226 H   0  0  0  0  0  0  0  0  0  0  0  0
  -13.7581   -6.4177  -10.3381 H   0  0  0  0  0  0  0  0  0  0  0  0
  -13.1164   -7.5979  -11.5154 H   0  0  0  0  0  0  0  0  0  0  0  0
  -10.6324   -6.1677   -7.1620 H   0  0  0  0  0  0  0  0  0  0  0  0
  -10.6731   -7.8633   -7.6114 H   0  0  0  0  0  0  0  0  0  0  0  0
   -9.3099   -7.2483  -10.5142 H   0  0  0  0  0  0  0  0  0  0  0  0
   -7.6276   -7.2013  -10.0563 H   0  0  0  0  0  0  0  0  0  0  0  0
   -9.5242   -9.5734   -9.8129 H   0  0  0  0  0  0  0  0  0  0  0  0
   -7.7735   -9.5184  -10.1682 H   0  0  0  0  0  0  0  0  0  0  0  0
   -9.2597   -9.4928   -7.5087 H   0  0  0  0  0  0  0  0  0  0  0  0
   -6.4561   -8.2174   -8.3362 H   0  0  0  0  0  0  0  0  0  0  0  0
   -8.5216   -7.6314   -6.3146 H   0  0  0  0  0  0  0  0  0  0  0  0
   -6.2065   -6.3037   -7.3282 H   0  0  0  0  0  0  0  0  0  0  0  0
   -9.0652   -4.6931   -6.4863 H   0  0  0  0  0  0  0  0  0  0  0  0
   -7.6652   -5.1061   -9.0925 H   0  0  0  0  0  0  0  0  0  0  0  0
   -9.3218   -4.6260   -8.7146 H   0  0  0  0  0  0  0  0  0  0  0  0
   -7.8521   -4.5159   -3.9103 H   0  0  0  0  0  0  0  0  0  0  0  0
   -6.8653   -6.0160   -4.0600 H   0  0  0  0  0  0  0  0  0  0  0  0
   -8.5958   -5.9543   -4.7222 H   0  0  0  0  0  0  0  0  0  0  0  0
   -6.1637   -3.4668   -4.8882 H   0  0  0  0  0  0  0  0  0  0  0  0
   -5.5520   -3.6507   -6.4771 H   0  0  0  0  0  0  0  0  0  0  0  0
   -5.1153   -4.8412   -5.1221 H   0  0  0  0  0  0  0  0  0  0  0  0
   -6.3565  -10.0816   -5.3864 H   0  0  0  0  0  0  0  0  0  0  0  0
   -7.6513  -11.2903   -5.7477 H   0  0  0  0  0  0  0  0  0  0  0  0
   -8.0598   -9.5996   -5.4320 H   0  0  0  0  0  0  0  0  0  0  0  0
   -5.2002  -10.7613   -7.4093 H   0  0  0  0  0  0  0  0  0  0  0  0
   -6.0512  -10.6189   -8.9778 H   0  0  0  0  0  0  0  0  0  0  0  0
   -6.5112  -11.8901   -7.8140 H   0  0  0  0  0  0  0  0  0  0  0  0
  1  2  1  0
  1 21  1  0
  1 22  1  0
  1 23  1  0
  2  3  2  0
  2  4  1  0
  4  5  1  0
  6  5  1  1
  5 24  1  0
  5 25  1  0
  6 11  1  0
  6 14  1  0
  6  7  1  0
  7  8  1  0
  7 26  1  0
  7 27  1  0
  8  9  1  0
  8 28  1  0
  8 29  1  0
  9 18  1  0
  9 10  1  0
  9 30  1  1
 10 11  1  0
 10 18  1  0
 10 31  1  6
 11 12  1  0
 11 32  1  1
 12 15  1  0
 12 13  1  0
 12 33  1  6
 13 14  1  0
 13 15  1  0
 13 34  1  1
 14 35  1  0
 14 36  1  0
 15 16  1  0
 15 17  1  0
 16 37  1  0
 16 38  1  0
 16 39  1  0
 17 40  1  0
 17 41  1  0
 17 42  1  0
 18 19  1  0
 18 20  1  0
 19 43  1  0
 19 44  1  0
 19 45  1  0
 20 46  1  0
 20 47  1  0
 20 48  1  0
M  END
>  <i_m_ct_stereo_status>  (226) 
1

>  <s_m_source_file>  (226) 
/var/tmp/pbs.5076255.sched01/tmpqwfmwtcs/46j3o47u_k.sdf

>  <i_m_source_file_index>  (226) 
46

>  <i_lp_mmshare_version>  (226) 
48012

>  <i_f3d_flags>  (226) 
0

>  <s_epik_input>  (226) 
W0NIM11DKD1PKU9bQ0gyXVtDQEBdMTJbQ0BASF0oW0NAQEhdM1tDQEBIXShbQ0gyXVtDSDJdMSlDMyhbQ0gzXSlbQ0gzXSlbQ0BIXTRbQ0BIXShbQ0gyXTIpQzQoW0NIM10pW0NIM10=

>  <s_epik_cmdline>  (226) 
J2VwaWtfcHl0aG9uJywgJy1waHQnLCAnMi4wJywgJy1waCcsICc3LjAnLCAnLXRuJywgJzgnLCAnLW1hJywgJzIwMCcsICctaW1hZScsICc8aW5maWxlLm1hZT4nLCAnLW9tYWUnLCAnPG91dGZpbGUubWFlPic=

>  <r_lp_tautomer_probability>  (226) 
1

>  <r_epik_Ionization_Penalty>  (226) 
0

>  <r_epik_Ionization_Penalty_Charging>  (226) 
0

>  <r_epik_Ionization_Penalty_Neutral>  (226) 
0

>  <r_epik_State_Penalty>  (226) 
-0

>  <r_epik_Charging_Adjusted_Penalty>  (226) 
0

>  <i_epik_Tot_Q>  (226) 
0

>  <i_epik_Tot_abs_Q>  (226) 
0

>  <s_epik_Chemistry_Notes>  (226) 
This compound has an ester and may undergo hydrolysis at high or low pH.

>  <s_lp_Force_Field>  (226) 
OPLS3e

>  <r_lp_Energy>  (226) 
82.9389

>  <b_lp_Chiralities_Consistent>  (226) 
1

>  <s_lp_Variant>  (226) 
60:0-1

>  <s_i_glide_gridfile>  (226) 
pfpi4k_grid

>  <i_i_glide_lignum>  (226) 
46

>  <i_i_glide_rotatable_bonds>  (226) 
3

>  <r_i_docking_score>  (226) 
-4.37933

>  <r_i_glide_ligand_efficiency>  (226) 
-0.218967

>  <r_i_glide_ligand_efficiency_sa>  (226) 
-0.594367

>  <r_i_glide_ligand_efficiency_ln>  (226) 
-1.096

>  <r_i_glide_gscore>  (226) 
-4.37933

>  <r_i_glide_lipo>  (226) 
-2.35865

>  <r_i_glide_hbond>  (226) 
0

>  <r_i_glide_metal>  (226) 
-0

>  <r_i_glide_rewards>  (226) 
-2.09324

>  <r_i_glide_evdw>  (226) 
-7.83426

>  <r_i_glide_ecoul>  (226) 
0.273041

>  <r_i_glide_erotb>  (226) 
0.470946

>  <r_i_glide_esite>  (226) 
-0.0476239

>  <r_i_glide_emodel>  (226) 
-5.78214

>  <r_i_glide_energy>  (226) 
-7.56122

>  <r_i_glide_einternal>  (226) 
0.589668

>  <r_i_glide_intrahb_reward>  (226) 
-0

>  <i_i_glide_confnum>  (226) 
6

>  <i_i_glide_posenum>  (226) 
18

>  <r_i_glide_eff_state_penalty>  (226) 
0

>  <ligand_id>  (226) 
60

>  <original_smiles>  (226) 
CC(=O)OCC12CCC3C(C1C1C(C2)C1(C)C)C3(C)C

>  <smiles>  (226) 
[H]C([H])([H])C(=O)OC([H])([H])C12C([H])([H])C([H])([H])C3([H])C([H])(C1([H])C1([H])C([H])(C2([H])[H])C1(C([H])([H])[H])C([H])([H])[H])C3(C([H])([H])[H])C([H])([H])[H]

$$$$
60:0:2
     RDKit          3D

 48 51  0  0  1  0  0  0  0  0999 V2000
  -11.8145   -8.5932   -9.9763 C   0  0  0  0  0  0  0  0  0  0  0  0
  -11.8093   -7.0911  -10.2902 C   0  0  0  0  0  0  0  0  0  0  0  0
  -12.2698   -6.6518  -11.3351 O   0  0  0  0  0  0  0  0  0  0  0  0
  -11.1417   -6.3152   -9.3857 O   0  0  0  0  0  0  0  0  0  0  0  0
  -10.3761   -6.8549   -8.3030 C   0  0  0  0  0  0  0  0  0  0  0  0
   -8.8583   -6.7864   -8.6106 C   0  0  2  0  0  0  0  0  0  0  0  0
   -8.4609   -7.5599   -9.9350 C   0  0  0  0  0  0  0  0  0  0  0  0
   -8.3373   -9.1251   -9.7954 C   0  0  0  0  0  0  0  0  0  0  0  0
   -8.2658   -9.5032   -8.3302 C   0  0  2  0  0  0  0  0  0  0  0  0
   -7.2126   -8.5282   -7.7728 C   0  0  1  0  0  0  0  0  0  0  0  0
   -8.0667   -7.3343   -7.3789 C   0  0  1  0  0  0  0  0  0  0  0  0
   -7.2379   -6.1727   -6.9825 C   0  0  1  0  0  0  0  0  0  0  0  0
   -8.1676   -4.8903   -7.1904 C   0  0  2  0  0  0  0  0  0  0  0  0
   -8.4141   -5.2957   -8.6323 C   0  0  0  0  0  0  0  0  0  0  0  0
   -7.3224   -5.1577   -5.9429 C   0  0  0  0  0  0  0  0  0  0  0  0
   -7.9621   -5.5672   -4.6867 C   0  0  0  0  0  0  0  0  0  0  0  0
   -6.1438   -4.2745   -5.5834 C   0  0  0  0  0  0  0  0  0  0  0  0
   -7.1872   -9.9788   -7.3952 C   0  0  0  0  0  0  0  0  0  0  0  0
   -7.4990  -10.3282   -5.9633 C   0  0  0  0  0  0  0  0  0  0  0  0
   -6.1322  -10.8958   -7.9659 C   0  0  0  0  0  0  0  0  0  0  0  0
  -12.1997   -8.8202   -8.9799 H   0  0  0  0  0  0  0  0  0  0  0  0
  -10.7579   -8.8480   -9.9749 H   0  0  0  0  0  0  0  0  0  0  0  0
  -12.2760   -9.2094  -10.7354 H   0  0  0  0  0  0  0  0  0  0  0  0
  -10.6277   -6.3026   -7.3929 H   0  0  0  0  0  0  0  0  0  0  0  0
  -10.6052   -7.8809   -8.0421 H   0  0  0  0  0  0  0  0  0  0  0  0
   -9.0982   -7.2551  -10.7603 H   0  0  0  0  0  0  0  0  0  0  0  0
   -7.4699   -7.1871  -10.2231 H   0  0  0  0  0  0  0  0  0  0  0  0
   -9.1590   -9.7022  -10.2504 H   0  0  0  0  0  0  0  0  0  0  0  0
   -7.4499   -9.4702  -10.3130 H   0  0  0  0  0  0  0  0  0  0  0  0
   -9.2355   -9.5561   -7.8482 H   0  0  0  0  0  0  0  0  0  0  0  0
   -6.3764   -8.2649   -8.4080 H   0  0  0  0  0  0  0  0  0  0  0  0
   -8.6113   -7.6255   -6.5142 H   0  0  0  0  0  0  0  0  0  0  0  0
   -6.2640   -6.3099   -7.4110 H   0  0  0  0  0  0  0  0  0  0  0  0
   -9.1498   -4.7419   -6.7581 H   0  0  0  0  0  0  0  0  0  0  0  0
   -7.5075   -5.1350   -9.2210 H   0  0  0  0  0  0  0  0  0  0  0  0
   -9.1954   -4.6421   -9.0520 H   0  0  0  0  0  0  0  0  0  0  0  0
   -8.2686   -4.7133   -4.0753 H   0  0  0  0  0  0  0  0  0  0  0  0
   -7.2195   -6.2153   -4.2085 H   0  0  0  0  0  0  0  0  0  0  0  0
   -8.8420   -6.1778   -4.9399 H   0  0  0  0  0  0  0  0  0  0  0  0
   -6.4805   -3.4565   -4.9521 H   0  0  0  0  0  0  0  0  0  0  0  0
   -5.6743   -3.8346   -6.4629 H   0  0  0  0  0  0  0  0  0  0  0  0
   -5.3858   -4.8291   -5.0249 H   0  0  0  0  0  0  0  0  0  0  0  0
   -6.6074  -10.1805   -5.3609 H   0  0  0  0  0  0  0  0  0  0  0  0
   -7.8661  -11.3519   -5.8805 H   0  0  0  0  0  0  0  0  0  0  0  0
   -8.2525   -9.6782   -5.5584 H   0  0  0  0  0  0  0  0  0  0  0  0
   -5.2040  -10.8115   -7.4018 H   0  0  0  0  0  0  0  0  0  0  0  0
   -5.9316  -10.6286   -9.0022 H   0  0  0  0  0  0  0  0  0  0  0  0
   -6.4787  -11.9300   -7.9480 H   0  0  0  0  0  0  0  0  0  0  0  0
  1  2  1  0
  1 21  1  0
  1 22  1  0
  1 23  1  0
  2  3  2  0
  2  4  1  0
  4  5  1  0
  6  5  1  1
  5 24  1  0
  5 25  1  0
  6 11  1  0
  6 14  1  0
  6  7  1  0
  7  8  1  0
  7 26  1  0
  7 27  1  0
  8  9  1  0
  8 28  1  0
  8 29  1  0
  9 18  1  0
  9 10  1  0
  9 30  1  1
 10 11  1  0
 10 18  1  0
 10 31  1  6
 11 12  1  0
 11 32  1  1
 12 15  1  0
 12 13  1  0
 12 33  1  6
 13 14  1  0
 13 15  1  0
 13 34  1  1
 14 35  1  0
 14 36  1  0
 15 16  1  0
 15 17  1  0
 16 37  1  0
 16 38  1  0
 16 39  1  0
 17 40  1  0
 17 41  1  0
 17 42  1  0
 18 19  1  0
 18 20  1  0
 19 43  1  0
 19 44  1  0
 19 45  1  0
 20 46  1  0
 20 47  1  0
 20 48  1  0
M  END
>  <i_m_ct_stereo_status>  (227) 
1

>  <s_m_source_file>  (227) 
/var/tmp/pbs.5076255.sched01/tmpqwfmwtcs/46j3o47u_k.sdf

>  <i_m_source_file_index>  (227) 
46

>  <i_lp_mmshare_version>  (227) 
48012

>  <i_f3d_flags>  (227) 
0

>  <s_epik_input>  (227) 
W0NIM11DKD1PKU9bQ0gyXVtDQEBdMTJbQ0BASF0oW0NAQEhdM1tDQEBIXShbQ0gyXVtDSDJdMSlDMyhbQ0gzXSlbQ0gzXSlbQ0BIXTRbQ0BIXShbQ0gyXTIpQzQoW0NIM10pW0NIM10=

>  <s_epik_cmdline>  (227) 
J2VwaWtfcHl0aG9uJywgJy1waHQnLCAnMi4wJywgJy1waCcsICc3LjAnLCAnLXRuJywgJzgnLCAnLW1hJywgJzIwMCcsICctaW1hZScsICc8aW5maWxlLm1hZT4nLCAnLW9tYWUnLCAnPG91dGZpbGUubWFlPic=

>  <r_lp_tautomer_probability>  (227) 
1

>  <r_epik_Ionization_Penalty>  (227) 
0

>  <r_epik_Ionization_Penalty_Charging>  (227) 
0

>  <r_epik_Ionization_Penalty_Neutral>  (227) 
0

>  <r_epik_State_Penalty>  (227) 
-0

>  <r_epik_Charging_Adjusted_Penalty>  (227) 
0

>  <i_epik_Tot_Q>  (227) 
0

>  <i_epik_Tot_abs_Q>  (227) 
0

>  <s_epik_Chemistry_Notes>  (227) 
This compound has an ester and may undergo hydrolysis at high or low pH.

>  <s_lp_Force_Field>  (227) 
OPLS3e

>  <r_lp_Energy>  (227) 
82.9389

>  <b_lp_Chiralities_Consistent>  (227) 
1

>  <s_lp_Variant>  (227) 
60:0-1

>  <s_i_glide_gridfile>  (227) 
pfpi4k_grid

>  <i_i_glide_lignum>  (227) 
46

>  <i_i_glide_rotatable_bonds>  (227) 
3

>  <r_i_docking_score>  (227) 
-4.25751

>  <r_i_glide_ligand_efficiency>  (227) 
-0.212876

>  <r_i_glide_ligand_efficiency_sa>  (227) 
-0.577833

>  <r_i_glide_ligand_efficiency_ln>  (227) 
-1.06551

>  <r_i_glide_gscore>  (227) 
-4.25751

>  <r_i_glide_lipo>  (227) 
-2.3025

>  <r_i_glide_hbond>  (227) 
0

>  <r_i_glide_metal>  (227) 
-0

>  <r_i_glide_rewards>  (227) 
-2.08228

>  <r_i_glide_evdw>  (227) 
-5.21906

>  <r_i_glide_ecoul>  (227) 
-0.282662

>  <r_i_glide_erotb>  (227) 
0.470946

>  <r_i_glide_esite>  (227) 
-0.0403162

>  <r_i_glide_emodel>  (227) 
-0.619963

>  <r_i_glide_energy>  (227) 
-5.50173

>  <r_i_glide_einternal>  (227) 
5.96518

>  <r_i_glide_intrahb_reward>  (227) 
-0

>  <i_i_glide_confnum>  (227) 
4

>  <i_i_glide_posenum>  (227) 
2

>  <r_i_glide_eff_state_penalty>  (227) 
0

>  <ligand_id>  (227) 
60

>  <original_smiles>  (227) 
CC(=O)OCC12CCC3C(C1C1C(C2)C1(C)C)C3(C)C

>  <smiles>  (227) 
[H]C([H])([H])C(=O)OC([H])([H])C12C([H])([H])C([H])([H])C3([H])C([H])(C1([H])C1([H])C([H])(C2([H])[H])C1(C([H])([H])[H])C([H])([H])[H])C3(C([H])([H])[H])C([H])([H])[H]

$$$$
61:0:0
     RDKit          3D

 20 20  0  0  1  0  0  0  0  0999 V2000
    2.4500   -3.3597   -1.0902 C   0  0  0  0  0  0  0  0  0  0  0  0
    3.6736   -3.8125   -0.4751 N   0  0  0  0  0  0  0  0  0  0  0  0
    4.9276   -3.2300   -0.6693 C   0  0  0  0  0  0  0  0  0  0  0  0
    5.0119   -1.8803   -1.7696 Cl  0  0  0  0  0  0  0  0  0  0  0  0
    6.0568   -3.6906   -0.0490 C   0  0  0  0  0  0  0  0  0  0  0  0
    7.5392   -3.0900   -0.2339 C   0  0  0  0  0  0  0  0  0  0  0  0
    8.5307   -3.8035    0.0464 O   0  0  0  0  0  0  0  0  0  0  0  0
    7.6216   -1.9227   -0.6857 O   0  0  0  0  0  0  0  0  0  0  0  0
    5.9682   -4.8732    0.8432 C   0  0  0  0  0  0  0  0  0  0  0  0
    6.9045   -5.3941    1.4571 O   0  0  0  0  0  0  0  0  0  0  0  0
    4.6737   -5.4224    1.0025 N   0  0  0  0  0  0  0  0  0  0  0  0
    4.5512   -6.5711    1.8908 C   0  0  0  0  0  0  0  0  0  0  0  0
    3.5117   -4.9265    0.3785 C   0  0  0  0  0  0  0  0  0  0  0  0
    2.3962   -5.4349    0.5639 O   0  0  0  0  0  0  0  0  0  0  0  0
    2.6214   -2.5029   -1.7334 H   0  0  0  0  0  0  0  0  0  0  0  0
    1.7906   -3.0592   -0.2775 H   0  0  0  0  0  0  0  0  0  0  0  0
    2.0417   -4.1844   -1.6784 H   0  0  0  0  0  0  0  0  0  0  0  0
    3.5227   -6.9188    1.9530 H   0  0  0  0  0  0  0  0  0  0  0  0
    4.8831   -6.2607    2.8821 H   0  0  0  0  0  0  0  0  0  0  0  0
    5.1738   -7.3695    1.4901 H   0  0  0  0  0  0  0  0  0  0  0  0
  1  2  1  0
  1 15  1  0
  1 16  1  0
  1 17  1  0
  2 13  1  0
  2  3  1  0
  3  4  1  0
  3  5  2  0
  5  6  1  0
  5  9  1  0
  6  7  2  0
  6  8  1  0
  9 10  2  0
  9 11  1  0
 11 12  1  0
 11 13  1  0
 12 18  1  0
 12 19  1  0
 12 20  1  0
 13 14  2  0
M  CHG  1   8  -1
M  END
>  <i_m_ct_stereo_status>  (228) 
1

>  <s_m_source_file>  (228) 
/var/tmp/pbs.5076255.sched01/tmpz7l6rxva/92z_h6r8yo.sdf

>  <i_m_source_file_index>  (228) 
1

>  <i_lp_mmshare_version>  (228) 
48012

>  <i_f3d_flags>  (228) 
0

>  <s_epik_input>  (228) 
W0NIM11uMWMoQ2wpYyhDKD1PKVtPSF0pYyg9TyluKFtDSDNdKWMxPU8=

>  <s_epik_cmdline>  (228) 
J2VwaWtfcHl0aG9uJywgJy1waHQnLCAnMi4wJywgJy1waCcsICc3LjAnLCAnLXRuJywgJzgnLCAnLW1hJywgJzIwMCcsICctaW1hZScsICc8aW5maWxlLm1hZT4nLCAnLW9tYWUnLCAnPG91dGZpbGUubWFlPic=

>  <r_lp_tautomer_probability>  (228) 
1

>  <r_epik_Ionization_Penalty>  (228) 
1.35085e-05

>  <r_epik_Ionization_Penalty_Charging>  (228) 
1.35085e-05

>  <r_epik_Ionization_Penalty_Neutral>  (228) 
0

>  <r_epik_State_Penalty>  (228) 
-0

>  <r_epik_Charging_Adjusted_Penalty>  (228) 
1.35085e-05

>  <i_epik_Tot_Q>  (228) 
-1

>  <i_epik_Tot_abs_Q>  (228) 
1

>  <s_lp_Force_Field>  (228) 
OPLS3e

>  <r_lp_Energy>  (228) 
44.3288

>  <b_lp_Chiralities_Consistent>  (228) 
1

>  <s_lp_Variant>  (228) 
61:0-1

>  <s_i_glide_gridfile>  (228) 
pfpi4k_grid

>  <i_i_glide_lignum>  (228) 
1

>  <i_i_glide_rotatable_bonds>  (228) 
1

>  <r_i_docking_score>  (228) 
-4.18107

>  <r_i_glide_ligand_efficiency>  (228) 
-0.298648

>  <r_i_glide_ligand_efficiency_sa>  (228) 
-0.719784

>  <r_i_glide_ligand_efficiency_ln>  (228) 
-1.14894

>  <r_i_glide_gscore>  (228) 
-4.18107

>  <r_i_glide_lipo>  (228) 
-0.248909

>  <r_i_glide_hbond>  (228) 
-0.2

>  <r_i_glide_metal>  (228) 
-0

>  <r_i_glide_rewards>  (228) 
-2.17862

>  <r_i_glide_evdw>  (228) 
-16.9295

>  <r_i_glide_ecoul>  (228) 
-4.61261

>  <r_i_glide_erotb>  (228) 
0

>  <r_i_glide_esite>  (228) 
-0.0151783

>  <r_i_glide_emodel>  (228) 
-31.0799

>  <r_i_glide_energy>  (228) 
-21.5421

>  <r_i_glide_einternal>  (228) 
0.196769

>  <r_i_glide_intrahb_reward>  (228) 
-0

>  <i_i_glide_confnum>  (228) 
2

>  <i_i_glide_posenum>  (228) 
33

>  <r_i_glide_eff_state_penalty>  (228) 
0

>  <ligand_id>  (228) 
61

>  <original_smiles>  (228) 
Cn1c(Cl)c(C(=O)O)c(=O)n(C)c1=O

>  <smiles>  (228) 
[H]C([H])([H])n1c(Cl)c(C(=O)[O-])c(=O)n(C([H])([H])[H])c1=O

$$$$
61:0:1
     RDKit          3D

 20 20  0  0  1  0  0  0  0  0999 V2000
    2.4201   -4.3714   -0.0654 C   0  0  0  0  0  0  0  0  0  0  0  0
    3.8401   -4.5443    0.1511 N   0  0  0  0  0  0  0  0  0  0  0  0
    4.8228   -3.6276   -0.2210 C   0  0  0  0  0  0  0  0  0  0  0  0
    4.2762   -2.1677   -0.9950 Cl  0  0  0  0  0  0  0  0  0  0  0  0
    6.1561   -3.8406    0.0111 C   0  0  0  0  0  0  0  0  0  0  0  0
    7.3494   -2.8239   -0.3752 C   0  0  0  0  0  0  0  0  0  0  0  0
    8.4944   -3.0201    0.0887 O   0  0  0  0  0  0  0  0  0  0  0  0
    7.0628   -1.8577   -1.1174 O   0  0  0  0  0  0  0  0  0  0  0  0
    6.5897   -5.0874    0.6993 C   0  0  0  0  0  0  0  0  0  0  0  0
    7.7503   -5.4148    0.9634 O   0  0  0  0  0  0  0  0  0  0  0  0
    5.5494   -5.9804    1.0510 N   0  0  0  0  0  0  0  0  0  0  0  0
    5.9385   -7.2211    1.7092 C   0  0  0  0  0  0  0  0  0  0  0  0
    4.1833   -5.7527    0.7978 C   0  0  0  0  0  0  0  0  0  0  0  0
    3.3111   -6.5672    1.1271 O   0  0  0  0  0  0  0  0  0  0  0  0
    2.2077   -3.4311   -0.5638 H   0  0  0  0  0  0  0  0  0  0  0  0
    1.9402   -4.3811    0.9161 H   0  0  0  0  0  0  0  0  0  0  0  0
    2.0812   -5.1930   -0.6999 H   0  0  0  0  0  0  0  0  0  0  0  0
    5.0742   -7.8431    1.9356 H   0  0  0  0  0  0  0  0  0  0  0  0
    6.4447   -6.9592    2.6389 H   0  0  0  0  0  0  0  0  0  0  0  0
    6.6004   -7.7651    1.0348 H   0  0  0  0  0  0  0  0  0  0  0  0
  1  2  1  0
  1 15  1  0
  1 16  1  0
  1 17  1  0
  2 13  1  0
  2  3  1  0
  3  4  1  0
  3  5  2  0
  5  6  1  0
  5  9  1  0
  6  7  2  0
  6  8  1  0
  9 10  2  0
  9 11  1  0
 11 12  1  0
 11 13  1  0
 12 18  1  0
 12 19  1  0
 12 20  1  0
 13 14  2  0
M  CHG  1   8  -1
M  END
>  <i_m_ct_stereo_status>  (229) 
1

>  <s_m_source_file>  (229) 
/var/tmp/pbs.5076255.sched01/tmpz7l6rxva/92z_h6r8yo.sdf

>  <i_m_source_file_index>  (229) 
1

>  <i_lp_mmshare_version>  (229) 
48012

>  <i_f3d_flags>  (229) 
0

>  <s_epik_input>  (229) 
W0NIM11uMWMoQ2wpYyhDKD1PKVtPSF0pYyg9TyluKFtDSDNdKWMxPU8=

>  <s_epik_cmdline>  (229) 
J2VwaWtfcHl0aG9uJywgJy1waHQnLCAnMi4wJywgJy1waCcsICc3LjAnLCAnLXRuJywgJzgnLCAnLW1hJywgJzIwMCcsICctaW1hZScsICc8aW5maWxlLm1hZT4nLCAnLW9tYWUnLCAnPG91dGZpbGUubWFlPic=

>  <r_lp_tautomer_probability>  (229) 
1

>  <r_epik_Ionization_Penalty>  (229) 
1.35085e-05

>  <r_epik_Ionization_Penalty_Charging>  (229) 
1.35085e-05

>  <r_epik_Ionization_Penalty_Neutral>  (229) 
0

>  <r_epik_State_Penalty>  (229) 
-0

>  <r_epik_Charging_Adjusted_Penalty>  (229) 
1.35085e-05

>  <i_epik_Tot_Q>  (229) 
-1

>  <i_epik_Tot_abs_Q>  (229) 
1

>  <s_lp_Force_Field>  (229) 
OPLS3e

>  <r_lp_Energy>  (229) 
44.3288

>  <b_lp_Chiralities_Consistent>  (229) 
1

>  <s_lp_Variant>  (229) 
61:0-1

>  <s_i_glide_gridfile>  (229) 
pfpi4k_grid

>  <i_i_glide_lignum>  (229) 
1

>  <i_i_glide_rotatable_bonds>  (229) 
1

>  <r_i_docking_score>  (229) 
-4.0754

>  <r_i_glide_ligand_efficiency>  (229) 
-0.2911

>  <r_i_glide_ligand_efficiency_sa>  (229) 
-0.701593

>  <r_i_glide_ligand_efficiency_ln>  (229) 
-1.11991

>  <r_i_glide_gscore>  (229) 
-4.0754

>  <r_i_glide_lipo>  (229) 
-0.301122

>  <r_i_glide_hbond>  (229) 
-0.2

>  <r_i_glide_metal>  (229) 
-0

>  <r_i_glide_rewards>  (229) 
-2.18688

>  <r_i_glide_evdw>  (229) 
-15.7207

>  <r_i_glide_ecoul>  (229) 
-3.95818

>  <r_i_glide_erotb>  (229) 
0

>  <r_i_glide_esite>  (229) 
-0.00763771

>  <r_i_glide_emodel>  (229) 
-29.0088

>  <r_i_glide_energy>  (229) 
-19.6789

>  <r_i_glide_einternal>  (229) 
0.0501589

>  <r_i_glide_intrahb_reward>  (229) 
-0

>  <i_i_glide_confnum>  (229) 
2

>  <i_i_glide_posenum>  (229) 
2

>  <r_i_glide_eff_state_penalty>  (229) 
0

>  <ligand_id>  (229) 
61

>  <original_smiles>  (229) 
Cn1c(Cl)c(C(=O)O)c(=O)n(C)c1=O

>  <smiles>  (229) 
[H]C([H])([H])n1c(Cl)c(C(=O)[O-])c(=O)n(C([H])([H])[H])c1=O

$$$$
61:0:2
     RDKit          3D

 20 20  0  0  1  0  0  0  0  0999 V2000
    1.0710    2.5468    2.7558 C   0  0  0  0  0  0  0  0  0  0  0  0
    0.7488    1.2365    3.2788 N   0  0  0  0  0  0  0  0  0  0  0  0
   -0.2895    0.9623    4.1751 C   0  0  0  0  0  0  0  0  0  0  0  0
   -1.3068    2.2818    4.6635 Cl  0  0  0  0  0  0  0  0  0  0  0  0
   -0.5295   -0.2955    4.6539 C   0  0  0  0  0  0  0  0  0  0  0  0
   -1.7054   -0.6994    5.6797 C   0  0  0  0  0  0  0  0  0  0  0  0
   -2.1615   -1.8605    5.6803 O   0  0  0  0  0  0  0  0  0  0  0  0
   -2.1252    0.1751    6.4664 O   0  0  0  0  0  0  0  0  0  0  0  0
    0.3105   -1.4268    4.1892 C   0  0  0  0  0  0  0  0  0  0  0  0
    0.1903   -2.6036    4.5453 O   0  0  0  0  0  0  0  0  0  0  0  0
    1.3414   -1.0933    3.2766 N   0  0  0  0  0  0  0  0  0  0  0  0
    2.1987   -2.1815    2.8266 C   0  0  0  0  0  0  0  0  0  0  0  0
    1.5964    0.2092    2.8036 C   0  0  0  0  0  0  0  0  0  0  0  0
    2.5280    0.4490    2.0229 O   0  0  0  0  0  0  0  0  0  0  0  0
    0.3848    3.2949    3.1367 H   0  0  0  0  0  0  0  0  0  0  0  0
    0.9787    2.4921    1.6695 H   0  0  0  0  0  0  0  0  0  0  0  0
    2.0926    2.7874    3.0643 H   0  0  0  0  0  0  0  0  0  0  0  0
    2.9614   -1.8275    2.1406 H   0  0  0  0  0  0  0  0  0  0  0  0
    1.5701   -2.9082    2.3147 H   0  0  0  0  0  0  0  0  0  0  0  0
    2.6807   -2.6120    3.7041 H   0  0  0  0  0  0  0  0  0  0  0  0
  1  2  1  0
  1 15  1  0
  1 16  1  0
  1 17  1  0
  2 13  1  0
  2  3  1  0
  3  4  1  0
  3  5  2  0
  5  6  1  0
  5  9  1  0
  6  7  2  0
  6  8  1  0
  9 10  2  0
  9 11  1  0
 11 12  1  0
 11 13  1  0
 12 18  1  0
 12 19  1  0
 12 20  1  0
 13 14  2  0
M  CHG  1   8  -1
M  END
>  <i_m_ct_stereo_status>  (230) 
1

>  <s_m_source_file>  (230) 
/var/tmp/pbs.5076255.sched01/tmpz7l6rxva/92z_h6r8yo.sdf

>  <i_m_source_file_index>  (230) 
1

>  <i_lp_mmshare_version>  (230) 
48012

>  <i_f3d_flags>  (230) 
0

>  <s_epik_input>  (230) 
W0NIM11uMWMoQ2wpYyhDKD1PKVtPSF0pYyg9TyluKFtDSDNdKWMxPU8=

>  <s_epik_cmdline>  (230) 
J2VwaWtfcHl0aG9uJywgJy1waHQnLCAnMi4wJywgJy1waCcsICc3LjAnLCAnLXRuJywgJzgnLCAnLW1hJywgJzIwMCcsICctaW1hZScsICc8aW5maWxlLm1hZT4nLCAnLW9tYWUnLCAnPG91dGZpbGUubWFlPic=

>  <r_lp_tautomer_probability>  (230) 
1

>  <r_epik_Ionization_Penalty>  (230) 
1.35085e-05

>  <r_epik_Ionization_Penalty_Charging>  (230) 
1.35085e-05

>  <r_epik_Ionization_Penalty_Neutral>  (230) 
0

>  <r_epik_State_Penalty>  (230) 
-0

>  <r_epik_Charging_Adjusted_Penalty>  (230) 
1.35085e-05

>  <i_epik_Tot_Q>  (230) 
-1

>  <i_epik_Tot_abs_Q>  (230) 
1

>  <s_lp_Force_Field>  (230) 
OPLS3e

>  <r_lp_Energy>  (230) 
44.3288

>  <b_lp_Chiralities_Consistent>  (230) 
1

>  <s_lp_Variant>  (230) 
61:0-1

>  <s_i_glide_gridfile>  (230) 
pfpi4k_grid

>  <i_i_glide_lignum>  (230) 
1

>  <i_i_glide_rotatable_bonds>  (230) 
1

>  <r_i_docking_score>  (230) 
-3.88237

>  <r_i_glide_ligand_efficiency>  (230) 
-0.277312

>  <r_i_glide_ligand_efficiency_sa>  (230) 
-0.668362

>  <r_i_glide_ligand_efficiency_ln>  (230) 
-1.06686

>  <r_i_glide_gscore>  (230) 
-3.88237

>  <r_i_glide_lipo>  (230) 
0

>  <r_i_glide_hbond>  (230) 
-0.2

>  <r_i_glide_metal>  (230) 
-0

>  <r_i_glide_rewards>  (230) 
-1.92555

>  <r_i_glide_evdw>  (230) 
-14.1223

>  <r_i_glide_ecoul>  (230) 
-6.11419

>  <r_i_glide_erotb>  (230) 
0

>  <r_i_glide_esite>  (230) 
-0.133579

>  <r_i_glide_emodel>  (230) 
-28.9967

>  <r_i_glide_energy>  (230) 
-20.2365

>  <r_i_glide_einternal>  (230) 
0.461391

>  <r_i_glide_intrahb_reward>  (230) 
-0

>  <i_i_glide_confnum>  (230) 
1

>  <i_i_glide_posenum>  (230) 
39

>  <r_i_glide_eff_state_penalty>  (230) 
0

>  <ligand_id>  (230) 
61

>  <original_smiles>  (230) 
Cn1c(Cl)c(C(=O)O)c(=O)n(C)c1=O

>  <smiles>  (230) 
[H]C([H])([H])n1c(Cl)c(C(=O)[O-])c(=O)n(C([H])([H])[H])c1=O

$$$$
62:0:0
     RDKit          3D

 27 29  0  0  1  0  0  0  0  0999 V2000
    2.7881   -3.8931    1.5386 C   0  0  0  0  0  0  0  0  0  0  0  0
    3.7656   -3.3597    0.4843 C   0  0  1  0  0  0  0  0  0  0  0  0
    5.0955   -4.2066    0.3881 C   0  0  0  0  0  0  0  0  0  0  0  0
    6.0799   -3.5745   -0.6621 C   0  0  1  0  0  0  0  0  0  0  0  0
    5.3754   -3.4550   -2.0071 C   0  0  0  0  0  0  0  0  0  0  0  0
    4.2788   -2.4344   -1.6234 C   0  0  1  0  0  0  0  0  0  0  0  0
    3.7888   -1.5943   -2.8130 C   0  0  0  0  0  0  0  0  0  0  0  0
    3.1626   -3.2338   -0.9142 C   0  0  0  0  0  0  0  0  0  0  0  0
    4.9081   -1.6154   -0.5508 N   0  0  0  0  0  0  0  0  0  0  0  0
    4.1287   -1.8722    0.6678 C   0  0  0  0  0  0  0  0  0  0  0  0
    6.1482   -2.0886   -0.3687 C   0  0  0  0  0  0  0  0  0  0  0  0
    7.1256   -1.4948    0.0795 O   0  0  0  0  0  0  0  0  0  0  0  0
    3.2404   -3.9012    2.5308 H   0  0  0  0  0  0  0  0  0  0  0  0
    2.4787   -4.9133    1.3077 H   0  0  0  0  0  0  0  0  0  0  0  0
    1.8920   -3.2747    1.5932 H   0  0  0  0  0  0  0  0  0  0  0  0
    5.5821   -4.2506    1.3627 H   0  0  0  0  0  0  0  0  0  0  0  0
    4.8686   -5.2372    0.1095 H   0  0  0  0  0  0  0  0  0  0  0  0
    7.0601   -4.0481   -0.7072 H   0  0  0  0  0  0  0  0  0  0  0  0
    6.0524   -3.0622   -2.7710 H   0  0  0  0  0  0  0  0  0  0  0  0
    4.9817   -4.4062   -2.3702 H   0  0  0  0  0  0  0  0  0  0  0  0
    3.3409   -2.2323   -3.5752 H   0  0  0  0  0  0  0  0  0  0  0  0
    4.6110   -1.0441   -3.2753 H   0  0  0  0  0  0  0  0  0  0  0  0
    3.0349   -0.8672   -2.5016 H   0  0  0  0  0  0  0  0  0  0  0  0
    2.9465   -4.1962   -1.3777 H   0  0  0  0  0  0  0  0  0  0  0  0
    2.2321   -2.6634   -0.8865 H   0  0  0  0  0  0  0  0  0  0  0  0
    3.2512   -1.2232    0.7050 H   0  0  0  0  0  0  0  0  0  0  0  0
    4.6885   -1.7073    1.5905 H   0  0  0  0  0  0  0  0  0  0  0  0
  2  1  1  1
  1 13  1  0
  1 14  1  0
  1 15  1  0
  2  8  1  0
  2 10  1  0
  2  3  1  0
  3  4  1  0
  3 16  1  0
  3 17  1  0
  4 11  1  0
  4  5  1  0
  4 18  1  6
  5  6  1  0
  5 19  1  0
  5 20  1  0
  6  7  1  6
  6  8  1  0
  6  9  1  0
  7 21  1  0
  7 22  1  0
  7 23  1  0
  8 24  1  0
  8 25  1  0
  9 10  1  0
  9 11  1  0
 10 26  1  0
 10 27  1  0
 11 12  2  0
M  END
>  <i_m_ct_stereo_status>  (231) 
1

>  <s_m_source_file>  (231) 
/var/tmp/pbs.5076255.sched01/tmpz7l6rxva/92z_h6r8yo.sdf

>  <i_m_source_file_index>  (231) 
2

>  <i_lp_mmshare_version>  (231) 
48012

>  <i_f3d_flags>  (231) 
0

>  <s_epik_input>  (231) 
W0NIM11bQ0BAXTEyW0NIMl1bQ0BIXTNbQ0gyXVtDQEBdKFtDSDNdKShbQ0gyXTEpTihbQ0gyXTIpQzM9Tw==

>  <s_epik_cmdline>  (231) 
J2VwaWtfcHl0aG9uJywgJy1waHQnLCAnMi4wJywgJy1waCcsICc3LjAnLCAnLXRuJywgJzgnLCAnLW1hJywgJzIwMCcsICctaW1hZScsICc8aW5maWxlLm1hZT4nLCAnLW9tYWUnLCAnPG91dGZpbGUubWFlPic=

>  <r_lp_tautomer_probability>  (231) 
1

>  <r_epik_Ionization_Penalty>  (231) 
2.9686e-07

>  <r_epik_Ionization_Penalty_Charging>  (231) 
0

>  <r_epik_Ionization_Penalty_Neutral>  (231) 
2.9686e-07

>  <r_epik_State_Penalty>  (231) 
-0

>  <r_epik_Charging_Adjusted_Penalty>  (231) 
0

>  <i_epik_Tot_Q>  (231) 
0

>  <i_epik_Tot_abs_Q>  (231) 
0

>  <s_lp_Force_Field>  (231) 
OPLS3e

>  <r_lp_Energy>  (231) 
39.7782

>  <b_lp_Chiralities_Consistent>  (231) 
1

>  <s_lp_Variant>  (231) 
62:0-1

>  <s_i_glide_gridfile>  (231) 
pfpi4k_grid

>  <i_i_glide_lignum>  (231) 
2

>  <i_i_glide_rotatable_bonds>  (231) 
0

>  <r_i_docking_score>  (231) 
-3.82187

>  <r_i_glide_ligand_efficiency>  (231) 
-0.318489

>  <r_i_glide_ligand_efficiency_sa>  (231) 
-0.729158

>  <r_i_glide_ligand_efficiency_ln>  (231) 
-1.09669

>  <r_i_glide_gscore>  (231) 
-3.82187

>  <r_i_glide_lipo>  (231) 
-0.313777

>  <r_i_glide_hbond>  (231) 
-0.0972469

>  <r_i_glide_metal>  (231) 
-0

>  <r_i_glide_rewards>  (231) 
-2.25

>  <r_i_glide_evdw>  (231) 
-17.5149

>  <r_i_glide_ecoul>  (231) 
-1.56445

>  <r_i_glide_erotb>  (231) 
0

>  <r_i_glide_esite>  (231) 
-0.0504318

>  <r_i_glide_emodel>  (231) 
-23.8617

>  <r_i_glide_energy>  (231) 
-19.0794

>  <r_i_glide_einternal>  (231) 
0

>  <r_i_glide_intrahb_reward>  (231) 
-0

>  <i_i_glide_confnum>  (231) 
2

>  <i_i_glide_posenum>  (231) 
9

>  <r_i_glide_eff_state_penalty>  (231) 
0

>  <ligand_id>  (231) 
62

>  <original_smiles>  (231) 
CC12CC3CC(C)(C1)N(C2)C3=O

>  <smiles>  (231) 
[H]C([H])([H])C12N3C(=O)C([H])(C1([H])[H])C([H])([H])C(C([H])([H])[H])(C3([H])[H])C2([H])[H]

$$$$
63:0:0
     RDKit          3D

 34 37  0  0  1  0  0  0  0  0999 V2000
    4.1902   -1.0264   -4.5981 C   0  0  0  0  0  0  0  0  0  0  0  0
    4.0000   -1.5106   -3.1834 C   0  0  0  0  0  0  0  0  0  0  0  0
    3.5123   -0.3757   -2.3665 C   0  0  0  0  0  0  0  0  0  0  0  0
    3.5227   -2.9180   -2.9507 C   0  0  2  0  0  0  0  0  0  0  0  0
    2.8115   -3.3767   -1.6961 C   0  0  0  0  0  0  0  0  0  0  0  0
    3.8959   -3.5647   -0.6152 C   0  0  2  0  0  0  0  0  0  0  0  0
    4.1340   -5.0427   -0.3207 C   0  0  0  0  0  0  0  0  0  0  0  0
    3.4324   -5.8542    0.4886 C   0  0  0  0  0  0  0  0  0  0  0  0
    2.2088   -5.5214    1.3278 C   0  0  0  0  0  0  0  0  0  0  0  0
    1.0769   -6.2511    0.8847 O   0  0  0  0  0  0  0  0  0  0  0  0
    3.6446   -2.7987    0.5696 O   0  0  0  0  0  0  0  0  0  0  0  0
    4.5689   -1.8641    0.8793 C   0  0  0  0  0  0  0  0  0  0  0  0
    4.5848   -1.1336    1.8642 O   0  0  0  0  0  0  0  0  0  0  0  0
    5.5974   -1.8513   -0.1886 C   0  0  1  0  0  0  0  0  0  0  0  0
    6.4607   -3.0445   -0.4807 C   0  0  0  0  0  0  0  0  0  0  0  0
    7.5229   -3.6425   -0.3506 O   0  0  0  0  0  0  0  0  0  0  0  0
    5.1307   -2.8875   -1.1697 C   0  0  1  0  0  0  0  0  0  0  0  0
    4.9590   -2.5416   -2.6256 C   0  0  2  0  0  0  0  0  0  0  0  0
    3.2562   -0.6714   -5.0589 H   0  0  0  0  0  0  0  0  0  0  0  0
    4.5677   -1.8776   -5.1240 H   0  0  0  0  0  0  0  0  0  0  0  0
    4.9421   -0.2504   -4.6774 H   0  0  0  0  0  0  0  0  0  0  0  0
    3.3096   -0.6970   -1.3543 H   0  0  0  0  0  0  0  0  0  0  0  0
    2.5816   -0.0028   -2.7943 H   0  0  0  0  0  0  0  0  0  0  0  0
    4.2556    0.4207   -2.3584 H   0  0  0  0  0  0  0  0  0  0  0  0
    3.3461   -3.5147   -3.8377 H   0  0  0  0  0  0  0  0  0  0  0  0
    2.0944   -2.6294   -1.4052 H   0  0  0  0  0  0  0  0  0  0  0  0
    2.2059   -4.2606   -1.8868 H   0  0  0  0  0  0  0  0  0  0  0  0
    4.9656   -5.4847   -0.8586 H   0  0  0  0  0  0  0  0  0  0  0  0
    3.7590   -6.8819    0.5600 H   0  0  0  0  0  0  0  0  0  0  0  0
    2.4172   -5.7826    2.3655 H   0  0  0  0  0  0  0  0  0  0  0  0
    1.9759   -4.4604    1.3109 H   0  0  0  0  0  0  0  0  0  0  0  0
    1.2971   -7.1738    0.8961 H   0  0  0  0  0  0  0  0  0  0  0  0
    5.8439   -0.8725   -0.5833 H   0  0  0  0  0  0  0  0  0  0  0  0
    5.7188   -2.8976   -3.3157 H   0  0  0  0  0  0  0  0  0  0  0  0
  1  2  1  0
  1 19  1  0
  1 20  1  0
  1 21  1  0
  2 18  1  0
  2  3  1  0
  2  4  1  0
  3 22  1  0
  3 23  1  0
  3 24  1  0
  4 18  1  0
  4  5  1  0
  4 25  1  6
  5  6  1  0
  5 26  1  0
  5 27  1  0
  6 17  1  0
  6  7  1  0
  6 11  1  1
  7  8  2  3
  7 28  1  0
  8  9  1  0
  8 29  1  0
  9 10  1  0
  9 30  1  0
  9 31  1  0
 10 32  1  0
 11 12  1  0
 12 13  2  0
 12 14  1  0
 14 17  1  0
 14 15  1  0
 14 33  1  6
 15 16  2  0
 17 15  1  6
 17 18  1  0
 18 34  1  6
M  END
>  <i_m_ct_stereo_status>  (232) 
1

>  <s_m_source_file>  (232) 
/var/tmp/pbs.5076255.sched01/tmpz7l6rxva/92z_h6r8yo.sdf

>  <i_m_source_file_index>  (232) 
3

>  <i_lp_mmshare_version>  (232) 
48012

>  <i_f3d_flags>  (232) 
2

>  <s_epik_input>  (232) 
W0NIM11DMShbQ0gzXSlbQ0BIXTJbQ0BIXTFbQ0gyXVtDQF0oQzIzNCkoL1tDSF09W0NIXS9bQ0gyXVtPSF0pT0MoPU8pW0NIXTNDND1P

>  <s_epik_cmdline>  (232) 
J2VwaWtfcHl0aG9uJywgJy1waHQnLCAnMi4wJywgJy1waCcsICc3LjAnLCAnLXRuJywgJzgnLCAnLW1hJywgJzIwMCcsICctaW1hZScsICc8aW5maWxlLm1hZT4nLCAnLW9tYWUnLCAnPG91dGZpbGUubWFlPic=

>  <r_lp_tautomer_probability>  (232) 
1

>  <r_epik_Ionization_Penalty>  (232) 
2.86683e-06

>  <r_epik_Ionization_Penalty_Charging>  (232) 
0

>  <r_epik_Ionization_Penalty_Neutral>  (232) 
2.86683e-06

>  <r_epik_State_Penalty>  (232) 
-0

>  <r_epik_Charging_Adjusted_Penalty>  (232) 
0

>  <i_epik_Tot_Q>  (232) 
0

>  <i_epik_Tot_abs_Q>  (232) 
0

>  <s_epik_Chemistry_Notes>  (232) 
This compound has an ester and may undergo hydrolysis at high or low pH.

>  <s_lp_Force_Field>  (232) 
OPLS3e

>  <r_lp_Energy>  (232) 
13.5447

>  <b_lp_Chiralities_Consistent>  (232) 
0

>  <s_lp_Variant>  (232) 
63:0-1

>  <s_i_glide_gridfile>  (232) 
pfpi4k_grid

>  <i_i_glide_lignum>  (232) 
3

>  <i_i_glide_rotatable_bonds>  (232) 
3

>  <r_i_docking_score>  (232) 
-3.07547

>  <r_i_glide_ligand_efficiency>  (232) 
-0.170859

>  <r_i_glide_ligand_efficiency_sa>  (232) 
-0.447778

>  <r_i_glide_ligand_efficiency_ln>  (232) 
-0.790533

>  <r_i_glide_gscore>  (232) 
-3.07547

>  <r_i_glide_lipo>  (232) 
-0.427861

>  <r_i_glide_hbond>  (232) 
-0.16

>  <r_i_glide_metal>  (232) 
-0

>  <r_i_glide_rewards>  (232) 
-1.79789

>  <r_i_glide_evdw>  (232) 
-14.19

>  <r_i_glide_ecoul>  (232) 
-3.64601

>  <r_i_glide_erotb>  (232) 
0.566686

>  <r_i_glide_esite>  (232) 
0

>  <r_i_glide_emodel>  (232) 
-19.362

>  <r_i_glide_energy>  (232) 
-17.836

>  <r_i_glide_einternal>  (232) 
1.60202

>  <r_i_glide_intrahb_reward>  (232) 
-0

>  <i_i_glide_confnum>  (232) 
5

>  <i_i_glide_posenum>  (232) 
39

>  <r_i_glide_eff_state_penalty>  (232) 
0

>  <ligand_id>  (232) 
63

>  <original_smiles>  (232) 
CC1(C)C2CC3(C=CCO)OC(=O)C4C(=O)C43C21

>  <smiles>  (232) 
[H]OC([H])([H])C([H])=C([H])C12OC(=O)C3([H])C(=O)C31C1([H])C([H])(C2([H])[H])C1(C([H])([H])[H])C([H])([H])[H]

$$$$
63:0:1
     RDKit          3D

 34 37  0  0  1  0  0  0  0  0999 V2000
    3.6423   -0.2731   -5.6568 C   0  0  0  0  0  0  0  0  0  0  0  0
    3.4504   -0.8630   -4.2904 C   0  0  0  0  0  0  0  0  0  0  0  0
    2.8023    0.1346   -3.4680 C   0  0  0  0  0  0  0  0  0  0  0  0
    3.2202   -2.3167   -4.0401 C   0  0  2  0  0  0  0  0  0  0  0  0
    2.5577   -2.8491   -2.7862 C   0  0  0  0  0  0  0  0  0  0  0  0
    3.6327   -2.8319   -1.6697 C   0  0  2  0  0  0  0  0  0  0  0  0
    4.0990   -4.2554   -1.3479 C   0  0  0  0  0  0  0  0  0  0  0  0
    3.7564   -5.0475   -0.3216 C   0  0  0  0  0  0  0  0  0  0  0  0
    2.7940   -4.7954    0.8201 C   0  0  0  0  0  0  0  0  0  0  0  0
    1.6934   -5.6640    0.6834 O   0  0  0  0  0  0  0  0  0  0  0  0
    3.2432   -2.1093   -0.5053 O   0  0  0  0  0  0  0  0  0  0  0  0
    4.0228   -1.0720   -0.1711 C   0  0  0  0  0  0  0  0  0  0  0  0
    3.9069   -0.3630    0.8220 O   0  0  0  0  0  0  0  0  0  0  0  0
    5.0652   -0.8941   -1.2215 C   0  0  1  0  0  0  0  0  0  0  0  0
    6.0774   -1.9582   -1.5050 C   0  0  0  0  0  0  0  0  0  0  0  0
    7.2115   -2.4306   -1.3553 O   0  0  0  0  0  0  0  0  0  0  0  0
    4.7509   -1.9784   -2.2084 C   0  0  1  0  0  0  0  0  0  0  0  0
    4.5489   -1.6879   -3.6745 C   0  0  2  0  0  0  0  0  0  0  0  0
    2.7013   -0.0362   -6.1433 H   0  0  0  0  0  0  0  0  0  0  0  0
    4.1395   -1.0193   -6.2334 H   0  0  0  0  0  0  0  0  0  0  0  0
    4.2204    0.6508   -5.6158 H   0  0  0  0  0  0  0  0  0  0  0  0
    2.5995   -0.2755   -2.4782 H   0  0  0  0  0  0  0  0  0  0  0  0
    1.8936    0.5148   -3.9427 H   0  0  0  0  0  0  0  0  0  0  0  0
    3.5553    0.9185   -3.4278 H   0  0  0  0  0  0  0  0  0  0  0  0
    3.1546   -2.9330   -4.9161 H   0  0  0  0  0  0  0  0  0  0  0  0
    1.7196   -2.2108   -2.5180 H   0  0  0  0  0  0  0  0  0  0  0  0
    2.1425   -3.8395   -2.9916 H   0  0  0  0  0  0  0  0  0  0  0  0
    4.7850   -4.6475   -2.0909 H   0  0  0  0  0  0  0  0  0  0  0  0
    4.2027   -6.0316   -0.3160 H   0  0  0  0  0  0  0  0  0  0  0  0
    3.3086   -4.9793    1.7623 H   0  0  0  0  0  0  0  0  0  0  0  0
    2.4183   -3.7788    0.8620 H   0  0  0  0  0  0  0  0  0  0  0  0
    1.5869   -5.8378   -0.2409 H   0  0  0  0  0  0  0  0  0  0  0  0
    5.1683    0.1052   -1.6277 H   0  0  0  0  0  0  0  0  0  0  0  0
    5.3857   -1.8363   -4.3014 H   0  0  0  0  0  0  0  0  0  0  0  0
  1  2  1  0
  1 19  1  0
  1 20  1  0
  1 21  1  0
  2 18  1  0
  2  3  1  0
  2  4  1  0
  3 22  1  0
  3 23  1  0
  3 24  1  0
  4 18  1  0
  4  5  1  0
  4 25  1  6
  5  6  1  0
  5 26  1  0
  5 27  1  0
  6 17  1  0
  6  7  1  0
  6 11  1  1
  7  8  2  3
  7 28  1  0
  8  9  1  0
  8 29  1  0
  9 10  1  0
  9 30  1  0
  9 31  1  0
 10 32  1  0
 11 12  1  0
 12 13  2  0
 12 14  1  0
 14 17  1  0
 14 15  1  0
 14 33  1  6
 15 16  2  0
 17 15  1  6
 17 18  1  0
 18 34  1  6
M  END
>  <i_m_ct_stereo_status>  (233) 
1

>  <s_m_source_file>  (233) 
/var/tmp/pbs.5076255.sched01/tmpz7l6rxva/92z_h6r8yo.sdf

>  <i_m_source_file_index>  (233) 
3

>  <i_lp_mmshare_version>  (233) 
48012

>  <i_f3d_flags>  (233) 
2

>  <s_epik_input>  (233) 
W0NIM11DMShbQ0gzXSlbQ0BIXTJbQ0BIXTFbQ0gyXVtDQF0oQzIzNCkoL1tDSF09W0NIXS9bQ0gyXVtPSF0pT0MoPU8pW0NIXTNDND1P

>  <s_epik_cmdline>  (233) 
J2VwaWtfcHl0aG9uJywgJy1waHQnLCAnMi4wJywgJy1waCcsICc3LjAnLCAnLXRuJywgJzgnLCAnLW1hJywgJzIwMCcsICctaW1hZScsICc8aW5maWxlLm1hZT4nLCAnLW9tYWUnLCAnPG91dGZpbGUubWFlPic=

>  <r_lp_tautomer_probability>  (233) 
1

>  <r_epik_Ionization_Penalty>  (233) 
2.86683e-06

>  <r_epik_Ionization_Penalty_Charging>  (233) 
0

>  <r_epik_Ionization_Penalty_Neutral>  (233) 
2.86683e-06

>  <r_epik_State_Penalty>  (233) 
-0

>  <r_epik_Charging_Adjusted_Penalty>  (233) 
0

>  <i_epik_Tot_Q>  (233) 
0

>  <i_epik_Tot_abs_Q>  (233) 
0

>  <s_epik_Chemistry_Notes>  (233) 
This compound has an ester and may undergo hydrolysis at high or low pH.

>  <s_lp_Force_Field>  (233) 
OPLS3e

>  <r_lp_Energy>  (233) 
13.5447

>  <b_lp_Chiralities_Consistent>  (233) 
0

>  <s_lp_Variant>  (233) 
63:0-1

>  <s_i_glide_gridfile>  (233) 
pfpi4k_grid

>  <i_i_glide_lignum>  (233) 
3

>  <i_i_glide_rotatable_bonds>  (233) 
3

>  <r_i_docking_score>  (233) 
-2.25408

>  <r_i_glide_ligand_efficiency>  (233) 
-0.125226

>  <r_i_glide_ligand_efficiency_sa>  (233) 
-0.328186

>  <r_i_glide_ligand_efficiency_ln>  (233) 
-0.579399

>  <r_i_glide_gscore>  (233) 
-2.25408

>  <r_i_glide_lipo>  (233) 
-0.26627

>  <r_i_glide_hbond>  (233) 
-0.288096

>  <r_i_glide_metal>  (233) 
-0

>  <r_i_glide_rewards>  (233) 
-1.71631

>  <r_i_glide_evdw>  (233) 
-5.19487

>  <r_i_glide_ecoul>  (233) 
-1.27633

>  <r_i_glide_erotb>  (233) 
0.566686

>  <r_i_glide_esite>  (233) 
-0.0988935

>  <r_i_glide_emodel>  (233) 
-6.07796

>  <r_i_glide_energy>  (233) 
-6.4712

>  <r_i_glide_einternal>  (233) 
1.2761

>  <r_i_glide_intrahb_reward>  (233) 
-0

>  <i_i_glide_confnum>  (233) 
4

>  <i_i_glide_posenum>  (233) 
1

>  <r_i_glide_eff_state_penalty>  (233) 
0

>  <ligand_id>  (233) 
63

>  <original_smiles>  (233) 
CC1(C)C2CC3(C=CCO)OC(=O)C4C(=O)C43C21

>  <smiles>  (233) 
[H]OC([H])([H])C([H])=C([H])C12OC(=O)C3([H])C(=O)C31C1([H])C([H])(C2([H])[H])C1(C([H])([H])[H])C([H])([H])[H]

$$$$
63:0:2
     RDKit          3D

 34 37  0  0  1  0  0  0  0  0999 V2000
    4.3153   -0.2812   -4.6046 C   0  0  0  0  0  0  0  0  0  0  0  0
    4.0096   -1.1602   -3.4149 C   0  0  0  0  0  0  0  0  0  0  0  0
    2.6117   -0.8766   -3.0538 C   0  0  0  0  0  0  0  0  0  0  0  0
    4.5021   -2.5612   -3.4084 C   0  0  2  0  0  0  0  0  0  0  0  0
    3.8293   -3.6987   -2.6664 C   0  0  0  0  0  0  0  0  0  0  0  0
    4.1562   -3.5498   -1.1595 C   0  0  2  0  0  0  0  0  0  0  0  0
    5.1696   -4.6118   -0.7390 C   0  0  0  0  0  0  0  0  0  0  0  0
    5.0048   -5.6434    0.1232 C   0  0  0  0  0  0  0  0  0  0  0  0
    3.7799   -6.0314    0.9080 C   0  0  0  0  0  0  0  0  0  0  0  0
    4.0457   -5.8361    2.2778 O   0  0  0  0  0  0  0  0  0  0  0  0
    3.0205   -3.4626   -0.3193 O   0  0  0  0  0  0  0  0  0  0  0  0
    2.9788   -2.3501    0.4567 C   0  0  0  0  0  0  0  0  0  0  0  0
    2.2319   -2.1303    1.3633 O   0  0  0  0  0  0  0  0  0  0  0  0
    4.0140   -1.3712   -0.0136 C   0  0  1  0  0  0  0  0  0  0  0  0
    5.4682   -1.6962    0.1903 C   0  0  0  0  0  0  0  0  0  0  0  0
    6.5006   -1.5937    0.8194 O   0  0  0  0  0  0  0  0  0  0  0  0
    4.7362   -2.1475   -1.0552 C   0  0  1  0  0  0  0  0  0  0  0  0
    5.0416   -1.5671   -2.4114 C   0  0  2  0  0  0  0  0  0  0  0  0
    3.6045   -0.3788   -5.4236 H   0  0  0  0  0  0  0  0  0  0  0  0
    5.2611   -0.6612   -4.9530 H   0  0  0  0  0  0  0  0  0  0  0  0
    4.3515    0.7634   -4.2997 H   0  0  0  0  0  0  0  0  0  0  0  0
    2.2416   -1.5854   -2.3032 H   0  0  0  0  0  0  0  0  0  0  0  0
    2.1106   -1.1257   -3.9870 H   0  0  0  0  0  0  0  0  0  0  0  0
    2.4675    0.1627   -2.8089 H   0  0  0  0  0  0  0  0  0  0  0  0
    5.0179   -2.8857   -4.3259 H   0  0  0  0  0  0  0  0  0  0  0  0
    2.7559   -3.7064   -2.8487 H   0  0  0  0  0  0  0  0  0  0  0  0
    4.2443   -4.6025   -3.0818 H   0  0  0  0  0  0  0  0  0  0  0  0
    6.1337   -4.4983   -1.1986 H   0  0  0  0  0  0  0  0  0  0  0  0
    5.8640   -6.2718    0.2723 H   0  0  0  0  0  0  0  0  0  0  0  0
    2.8908   -5.4746    0.6370 H   0  0  0  0  0  0  0  0  0  0  0  0
    3.5570   -7.0838    0.7320 H   0  0  0  0  0  0  0  0  0  0  0  0
    4.2572   -4.9268    2.4226 H   0  0  0  0  0  0  0  0  0  0  0  0
    3.6912   -0.3524   -0.2561 H   0  0  0  0  0  0  0  0  0  0  0  0
    6.0260   -1.1104   -2.4824 H   0  0  0  0  0  0  0  0  0  0  0  0
  1  2  1  0
  1 19  1  0
  1 20  1  0
  1 21  1  0
  2 18  1  0
  2  3  1  0
  2  4  1  0
  3 22  1  0
  3 23  1  0
  3 24  1  0
  4 18  1  0
  4  5  1  0
  4 25  1  6
  5  6  1  0
  5 26  1  0
  5 27  1  0
  6 17  1  0
  6  7  1  0
  6 11  1  1
  7  8  2  3
  7 28  1  0
  8  9  1  0
  8 29  1  0
  9 10  1  0
  9 30  1  0
  9 31  1  0
 10 32  1  0
 11 12  1  0
 12 13  2  0
 12 14  1  0
 14 17  1  0
 14 15  1  0
 14 33  1  6
 15 16  2  0
 17 15  1  1
 17 18  1  0
 18 34  1  6
M  END
>  <i_m_ct_stereo_status>  (234) 
1

>  <s_m_source_file>  (234) 
/var/tmp/pbs.5076255.sched01/tmpz7l6rxva/92z_h6r8yo.sdf

>  <i_m_source_file_index>  (234) 
3

>  <i_lp_mmshare_version>  (234) 
48012

>  <i_f3d_flags>  (234) 
2

>  <s_epik_input>  (234) 
W0NIM11DMShbQ0gzXSlbQ0BIXTJbQ0BIXTFbQ0gyXVtDQF0oQzIzNCkoL1tDSF09W0NIXS9bQ0gyXVtPSF0pT0MoPU8pW0NIXTNDND1P

>  <s_epik_cmdline>  (234) 
J2VwaWtfcHl0aG9uJywgJy1waHQnLCAnMi4wJywgJy1waCcsICc3LjAnLCAnLXRuJywgJzgnLCAnLW1hJywgJzIwMCcsICctaW1hZScsICc8aW5maWxlLm1hZT4nLCAnLW9tYWUnLCAnPG91dGZpbGUubWFlPic=

>  <r_lp_tautomer_probability>  (234) 
1

>  <r_epik_Ionization_Penalty>  (234) 
2.86683e-06

>  <r_epik_Ionization_Penalty_Charging>  (234) 
0

>  <r_epik_Ionization_Penalty_Neutral>  (234) 
2.86683e-06

>  <r_epik_State_Penalty>  (234) 
-0

>  <r_epik_Charging_Adjusted_Penalty>  (234) 
0

>  <i_epik_Tot_Q>  (234) 
0

>  <i_epik_Tot_abs_Q>  (234) 
0

>  <s_epik_Chemistry_Notes>  (234) 
This compound has an ester and may undergo hydrolysis at high or low pH.

>  <s_lp_Force_Field>  (234) 
OPLS3e

>  <r_lp_Energy>  (234) 
13.5447

>  <b_lp_Chiralities_Consistent>  (234) 
0

>  <s_lp_Variant>  (234) 
63:0-1

>  <s_i_glide_gridfile>  (234) 
pfpi4k_grid

>  <i_i_glide_lignum>  (234) 
3

>  <i_i_glide_rotatable_bonds>  (234) 
3

>  <r_i_docking_score>  (234) 
-1.87685

>  <r_i_glide_ligand_efficiency>  (234) 
-0.104269

>  <r_i_glide_ligand_efficiency_sa>  (234) 
-0.273263

>  <r_i_glide_ligand_efficiency_ln>  (234) 
-0.482434

>  <r_i_glide_gscore>  (234) 
-1.87685

>  <r_i_glide_lipo>  (234) 
-0.681152

>  <r_i_glide_hbond>  (234) 
0

>  <r_i_glide_metal>  (234) 
-0

>  <r_i_glide_rewards>  (234) 
-1.75757

>  <r_i_glide_evdw>  (234) 
-1.24883

>  <r_i_glide_ecoul>  (234) 
0.758202

>  <r_i_glide_erotb>  (234) 
0.566686

>  <r_i_glide_esite>  (234) 
-0.0561008

>  <r_i_glide_emodel>  (234) 
-0.423854

>  <r_i_glide_energy>  (234) 
-0.49063

>  <r_i_glide_einternal>  (234) 
0.33104

>  <r_i_glide_intrahb_reward>  (234) 
-0

>  <i_i_glide_confnum>  (234) 
4

>  <i_i_glide_posenum>  (234) 
26

>  <r_i_glide_eff_state_penalty>  (234) 
0

>  <ligand_id>  (234) 
63

>  <original_smiles>  (234) 
CC1(C)C2CC3(C=CCO)OC(=O)C4C(=O)C43C21

>  <smiles>  (234) 
[H]OC([H])([H])C([H])=C([H])C12OC(=O)C3([H])C(=O)C31C1([H])C([H])(C2([H])[H])C1(C([H])([H])[H])C([H])([H])[H]

$$$$
64:0:0
     RDKit          3D

 36 40  0  0  1  0  0  0  0  0999 V2000
    2.0491   -5.9037    0.5216 O   0  0  0  0  0  0  0  0  0  0  0  0
    3.0193   -5.9186    1.2900 C   0  0  0  0  0  0  0  0  0  0  0  0
    2.8355   -6.4886    2.6899 C   0  0  0  0  0  0  0  0  0  0  0  0
    3.7551   -6.6272    3.5641 N   0  0  0  0  0  0  0  0  0  0  0  0
    5.0462   -6.3225    3.1464 C   0  0  0  0  0  0  0  0  0  0  0  0
    6.1376   -6.5064    3.8282 N   0  0  0  0  0  0  0  0  0  0  0  0
    7.1663   -6.1293    2.9486 O   0  0  0  0  0  0  0  0  0  0  0  0
    6.6351   -5.6838    1.7350 N   0  0  0  0  0  0  0  0  0  0  0  0
    5.3302   -5.7641    1.8756 C   0  0  0  0  0  0  0  0  0  0  0  0
    4.2440   -5.4165    0.9948 N   0  0  0  0  0  0  0  0  0  0  0  0
    4.4097   -4.5503   -0.2111 C   0  0  2  0  0  0  0  0  0  0  0  0
    5.8093   -3.8833   -0.3669 C   0  0  2  0  0  0  0  0  0  0  0  0
    6.0613   -2.8713    0.7885 C   0  0  0  0  0  0  0  0  0  0  0  0
    4.9951   -1.7654    0.7290 C   0  0  1  0  0  0  0  0  0  0  0  0
    5.1172   -1.0363   -0.6263 C   0  0  0  0  0  0  0  0  0  0  0  0
    4.8701   -2.0287   -1.7889 C   0  0  1  0  0  0  0  0  0  0  0  0
    5.9113   -3.1600   -1.7229 C   0  0  0  0  0  0  0  0  0  0  0  0
    3.4645   -2.6447   -1.6419 C   0  0  0  0  0  0  0  0  0  0  0  0
    3.3501   -3.3874   -0.2894 C   0  0  2  0  0  0  0  0  0  0  0  0
    3.5901   -2.3936    0.8692 C   0  0  0  0  0  0  0  0  0  0  0  0
    1.8276   -6.7720    2.9685 H   0  0  0  0  0  0  0  0  0  0  0  0
    4.2509   -5.2029   -1.0725 H   0  0  0  0  0  0  0  0  0  0  0  0
    6.5864   -4.6456   -0.3905 H   0  0  0  0  0  0  0  0  0  0  0  0
    6.0018   -3.3463    1.7702 H   0  0  0  0  0  0  0  0  0  0  0  0
    7.0627   -2.4432    0.6963 H   0  0  0  0  0  0  0  0  0  0  0  0
    5.1592   -1.0581    1.5464 H   0  0  0  0  0  0  0  0  0  0  0  0
    4.4059   -0.2106   -0.6718 H   0  0  0  0  0  0  0  0  0  0  0  0
    6.1173   -0.6078   -0.7055 H   0  0  0  0  0  0  0  0  0  0  0  0
    4.9532   -1.5033   -2.7470 H   0  0  0  0  0  0  0  0  0  0  0  0
    6.9156   -2.7610   -1.8553 H   0  0  0  0  0  0  0  0  0  0  0  0
    5.7621   -3.8590   -2.5475 H   0  0  0  0  0  0  0  0  0  0  0  0
    2.7094   -1.8601   -1.7095 H   0  0  0  0  0  0  0  0  0  0  0  0
    3.2628   -3.3308   -2.4646 H   0  0  0  0  0  0  0  0  0  0  0  0
    2.3203   -3.7539   -0.2358 H   0  0  0  0  0  0  0  0  0  0  0  0
    3.5088   -2.9173    1.8222 H   0  0  0  0  0  0  0  0  0  0  0  0
    2.8148   -1.6255    0.8797 H   0  0  0  0  0  0  0  0  0  0  0  0
  1  2  2  0
  2 10  1  0
  2  3  1  0
  3  4  2  0
  3 21  1  0
  4  5  1  0
  5  9  1  0
  5  6  2  0
  6  7  1  0
  7  8  1  0
  8  9  2  0
  9 10  1  0
 10 11  1  0
 11 19  1  0
 11 12  1  0
 11 22  1  6
 12 17  1  0
 12 13  1  0
 12 23  1  6
 13 14  1  0
 13 24  1  0
 13 25  1  0
 14 20  1  0
 14 15  1  0
 14 26  1  1
 15 16  1  0
 15 27  1  0
 15 28  1  0
 16 17  1  0
 16 18  1  0
 16 29  1  6
 17 30  1  0
 17 31  1  0
 18 19  1  0
 18 32  1  0
 18 33  1  0
 19 20  1  0
 19 34  1  1
 20 35  1  0
 20 36  1  0
M  END
>  <i_m_ct_stereo_status>  (235) 
1

>  <s_m_source_file>  (235) 
/var/tmp/pbs.5076255.sched01/tmpz7l6rxva/92z_h6r8yo.sdf

>  <i_m_source_file_index>  (235) 
4

>  <i_lp_mmshare_version>  (235) 
48012

>  <i_f3d_flags>  (235) 
0

>  <s_epik_input>  (235) 
bjFvbmMoYzEyKW4oYyg9TylbY0hdbjIpW0NASF0oW0NASF0zNClbQ0BASF01W0NIMl1bQ0BIXShbQ0gyXTQpW0NIMl1bQ0BIXShbQ0gyXTMpW0NIMl01

>  <s_epik_cmdline>  (235) 
J2VwaWtfcHl0aG9uJywgJy1waHQnLCAnMi4wJywgJy1waCcsICc3LjAnLCAnLXRuJywgJzgnLCAnLW1hJywgJzIwMCcsICctaW1hZScsICc8aW5maWxlLm1hZT4nLCAnLW9tYWUnLCAnPG91dGZpbGUubWFlPic=

>  <r_lp_tautomer_probability>  (235) 
1

>  <r_epik_Ionization_Penalty>  (235) 
1.39698e-11

>  <r_epik_Ionization_Penalty_Charging>  (235) 
1.39664e-11

>  <r_epik_Ionization_Penalty_Neutral>  (235) 
3.42051e-15

>  <r_epik_State_Penalty>  (235) 
-0

>  <r_epik_Charging_Adjusted_Penalty>  (235) 
1.39664e-11

>  <i_epik_Tot_Q>  (235) 
0

>  <i_epik_Tot_abs_Q>  (235) 
0

>  <s_lp_Force_Field>  (235) 
OPLS3e

>  <r_lp_Energy>  (235) 
40.3068

>  <b_lp_Chiralities_Consistent>  (235) 
1

>  <s_lp_Variant>  (235) 
64:0-1

>  <s_i_glide_gridfile>  (235) 
pfpi4k_grid

>  <i_i_glide_lignum>  (235) 
4

>  <i_i_glide_rotatable_bonds>  (235) 
1

>  <r_i_docking_score>  (235) 
-3.12969

>  <r_i_glide_ligand_efficiency>  (235) 
-0.156485

>  <r_i_glide_ligand_efficiency_sa>  (235) 
-0.424764

>  <r_i_glide_ligand_efficiency_ln>  (235) 
-0.783259

>  <r_i_glide_gscore>  (235) 
-3.12969

>  <r_i_glide_lipo>  (235) 
-0.343129

>  <r_i_glide_hbond>  (235) 
0

>  <r_i_glide_metal>  (235) 
-0

>  <r_i_glide_rewards>  (235) 
-1.65875

>  <r_i_glide_evdw>  (235) 
-22.9059

>  <r_i_glide_ecoul>  (235) 
-1.49457

>  <r_i_glide_erotb>  (235) 
0.241668

>  <r_i_glide_esite>  (235) 
0

>  <r_i_glide_emodel>  (235) 
-28.5139

>  <r_i_glide_energy>  (235) 
-24.4005

>  <r_i_glide_einternal>  (235) 
0.0429176

>  <r_i_glide_intrahb_reward>  (235) 
-0

>  <i_i_glide_confnum>  (235) 
4

>  <i_i_glide_posenum>  (235) 
10

>  <r_i_glide_eff_state_penalty>  (235) 
0

>  <ligand_id>  (235) 
64

>  <original_smiles>  (235) 
O=c1cnc2nonc2n1C1C2CC3CC(C2)CC1C3

>  <smiles>  (235) 
[H]c1nc2nonc2n(C2([H])C3([H])C([H])([H])C4([H])C([H])([H])C([H])(C3([H])[H])C([H])([H])C2([H])C4([H])[H])c1=O

$$$$
64:0:1
     RDKit          3D

 36 40  0  0  1  0  0  0  0  0999 V2000
    3.5135    0.5738    1.0441 O   0  0  0  0  0  0  0  0  0  0  0  0
    3.1257   -0.4472    1.5876 C   0  0  0  0  0  0  0  0  0  0  0  0
    2.0726   -0.2682    2.6383 C   0  0  0  0  0  0  0  0  0  0  0  0
    1.4707   -1.1922    3.2668 N   0  0  0  0  0  0  0  0  0  0  0  0
    1.7922   -2.5001    2.9210 C   0  0  0  0  0  0  0  0  0  0  0  0
    1.1756   -3.5595    3.3308 N   0  0  0  0  0  0  0  0  0  0  0  0
    1.8100   -4.6128    2.6861 O   0  0  0  0  0  0  0  0  0  0  0  0
    2.9671   -4.1265    2.0216 N   0  0  0  0  0  0  0  0  0  0  0  0
    2.8432   -2.8091    2.0512 C   0  0  0  0  0  0  0  0  0  0  0  0
    3.5469   -1.7333    1.3666 N   0  0  0  0  0  0  0  0  0  0  0  0
    4.6808   -1.9303    0.4178 C   0  0  2  0  0  0  0  0  0  0  0  0
    4.4462   -1.2255   -0.9537 C   0  0  2  0  0  0  0  0  0  0  0  0
    3.2309   -1.8196   -1.6528 C   0  0  0  0  0  0  0  0  0  0  0  0
    3.4468   -3.2920   -1.9549 C   0  0  1  0  0  0  0  0  0  0  0  0
    4.6455   -3.4287   -2.8670 C   0  0  0  0  0  0  0  0  0  0  0  0
    5.8818   -2.8481   -2.1598 C   0  0  1  0  0  0  0  0  0  0  0  0
    5.6294   -1.3772   -1.8606 C   0  0  0  0  0  0  0  0  0  0  0  0
    6.1601   -3.5642   -0.8241 C   0  0  0  0  0  0  0  0  0  0  0  0
    4.9418   -3.4158    0.0942 C   0  0  2  0  0  0  0  0  0  0  0  0
    3.7230   -4.0235   -0.6656 C   0  0  0  0  0  0  0  0  0  0  0  0
    1.8261    0.7687    2.8563 H   0  0  0  0  0  0  0  0  0  0  0  0
    5.5687   -1.4994    0.8930 H   0  0  0  0  0  0  0  0  0  0  0  0
    4.3272   -0.1569   -0.8841 H   0  0  0  0  0  0  0  0  0  0  0  0
    2.4290   -1.8272   -0.9544 H   0  0  0  0  0  0  0  0  0  0  0  0
    2.9366   -1.2424   -2.5283 H   0  0  0  0  0  0  0  0  0  0  0  0
    2.5267   -3.7033   -2.3764 H   0  0  0  0  0  0  0  0  0  0  0  0
    4.7807   -4.4745   -3.1082 H   0  0  0  0  0  0  0  0  0  0  0  0
    4.4278   -2.8919   -3.7862 H   0  0  0  0  0  0  0  0  0  0  0  0
    6.7412   -2.9302   -2.8118 H   0  0  0  0  0  0  0  0  0  0  0  0
    5.4210   -0.7929   -2.7570 H   0  0  0  0  0  0  0  0  0  0  0  0
    6.4857   -0.9673   -1.3522 H   0  0  0  0  0  0  0  0  0  0  0  0
    6.3026   -4.6238   -0.9892 H   0  0  0  0  0  0  0  0  0  0  0  0
    7.0630   -3.1793   -0.3439 H   0  0  0  0  0  0  0  0  0  0  0  0
    5.1704   -3.9442    1.0246 H   0  0  0  0  0  0  0  0  0  0  0  0
    2.7450   -3.8635   -0.2253 H   0  0  0  0  0  0  0  0  0  0  0  0
    3.8009   -5.1028   -0.7259 H   0  0  0  0  0  0  0  0  0  0  0  0
  1  2  2  0
  2 10  1  0
  2  3  1  0
  3  4  2  0
  3 21  1  0
  4  5  1  0
  5  9  1  0
  5  6  2  0
  6  7  1  0
  7  8  1  0
  8  9  2  0
  9 10  1  0
 10 11  1  0
 11 19  1  0
 11 12  1  0
 11 22  1  1
 12 17  1  0
 12 13  1  0
 12 23  1  1
 13 14  1  0
 13 24  1  0
 13 25  1  0
 14 20  1  0
 14 15  1  0
 14 26  1  6
 15 16  1  0
 15 27  1  0
 15 28  1  0
 16 17  1  0
 16 18  1  0
 16 29  1  6
 17 30  1  0
 17 31  1  0
 18 19  1  0
 18 32  1  0
 18 33  1  0
 19 20  1  0
 19 34  1  1
 20 35  1  0
 20 36  1  0
M  END
>  <i_m_ct_stereo_status>  (236) 
1

>  <s_m_source_file>  (236) 
/var/tmp/pbs.5076255.sched01/tmpz7l6rxva/92z_h6r8yo.sdf

>  <i_m_source_file_index>  (236) 
4

>  <i_lp_mmshare_version>  (236) 
48012

>  <i_f3d_flags>  (236) 
0

>  <s_epik_input>  (236) 
bjFvbmMoYzEyKW4oYyg9TylbY0hdbjIpW0NASF0oW0NASF0zNClbQ0BASF01W0NIMl1bQ0BIXShbQ0gyXTQpW0NIMl1bQ0BIXShbQ0gyXTMpW0NIMl01

>  <s_epik_cmdline>  (236) 
J2VwaWtfcHl0aG9uJywgJy1waHQnLCAnMi4wJywgJy1waCcsICc3LjAnLCAnLXRuJywgJzgnLCAnLW1hJywgJzIwMCcsICctaW1hZScsICc8aW5maWxlLm1hZT4nLCAnLW9tYWUnLCAnPG91dGZpbGUubWFlPic=

>  <r_lp_tautomer_probability>  (236) 
1

>  <r_epik_Ionization_Penalty>  (236) 
1.39698e-11

>  <r_epik_Ionization_Penalty_Charging>  (236) 
1.39664e-11

>  <r_epik_Ionization_Penalty_Neutral>  (236) 
3.42051e-15

>  <r_epik_State_Penalty>  (236) 
-0

>  <r_epik_Charging_Adjusted_Penalty>  (236) 
1.39664e-11

>  <i_epik_Tot_Q>  (236) 
0

>  <i_epik_Tot_abs_Q>  (236) 
0

>  <s_lp_Force_Field>  (236) 
OPLS3e

>  <r_lp_Energy>  (236) 
40.3068

>  <b_lp_Chiralities_Consistent>  (236) 
1

>  <s_lp_Variant>  (236) 
64:0-1

>  <s_i_glide_gridfile>  (236) 
pfpi4k_grid

>  <i_i_glide_lignum>  (236) 
4

>  <i_i_glide_rotatable_bonds>  (236) 
1

>  <r_i_docking_score>  (236) 
-2.1352

>  <r_i_glide_ligand_efficiency>  (236) 
-0.10676

>  <r_i_glide_ligand_efficiency_sa>  (236) 
-0.289791

>  <r_i_glide_ligand_efficiency_ln>  (236) 
-0.534369

>  <r_i_glide_gscore>  (236) 
-2.1352

>  <r_i_glide_lipo>  (236) 
-0.290515

>  <r_i_glide_hbond>  (236) 
0

>  <r_i_glide_metal>  (236) 
-0

>  <r_i_glide_rewards>  (236) 
-1.55248

>  <r_i_glide_evdw>  (236) 
-9.71259

>  <r_i_glide_ecoul>  (236) 
-0.358342

>  <r_i_glide_erotb>  (236) 
0.241668

>  <r_i_glide_esite>  (236) 
-0.0404749

>  <r_i_glide_emodel>  (236) 
5.55907

>  <r_i_glide_energy>  (236) 
-10.0709

>  <r_i_glide_einternal>  (236) 
29.4954

>  <r_i_glide_intrahb_reward>  (236) 
-0

>  <i_i_glide_confnum>  (236) 
3

>  <i_i_glide_posenum>  (236) 
3

>  <r_i_glide_eff_state_penalty>  (236) 
0

>  <ligand_id>  (236) 
64

>  <original_smiles>  (236) 
O=c1cnc2nonc2n1C1C2CC3CC(C2)CC1C3

>  <smiles>  (236) 
[H]c1nc2nonc2n(C2([H])C3([H])C([H])([H])C4([H])C([H])([H])C([H])(C3([H])[H])C([H])([H])C2([H])C4([H])[H])c1=O

$$$$
64:0:2
     RDKit          3D

 36 40  0  0  1  0  0  0  0  0999 V2000
    2.5143   -2.3585    2.0077 O   0  0  0  0  0  0  0  0  0  0  0  0
    2.9602   -3.5030    1.8317 C   0  0  0  0  0  0  0  0  0  0  0  0
    2.3002   -4.5911    2.6620 C   0  0  0  0  0  0  0  0  0  0  0  0
    2.5029   -5.8630    2.5689 N   0  0  0  0  0  0  0  0  0  0  0  0
    3.4364   -6.2386    1.6390 C   0  0  0  0  0  0  0  0  0  0  0  0
    3.6714   -7.4776    1.2666 N   0  0  0  0  0  0  0  0  0  0  0  0
    4.6664   -7.3727    0.2999 O   0  0  0  0  0  0  0  0  0  0  0  0
    5.0938   -6.0307    0.2032 N   0  0  0  0  0  0  0  0  0  0  0  0
    4.2468   -5.3506    0.9219 C   0  0  0  0  0  0  0  0  0  0  0  0
    3.9557   -3.9064    0.9951 N   0  0  0  0  0  0  0  0  0  0  0  0
    4.6615   -2.8475    0.1995 C   0  0  2  0  0  0  0  0  0  0  0  0
    3.6985   -1.8826   -0.5777 C   0  0  2  0  0  0  0  0  0  0  0  0
    2.9052   -2.6900   -1.6130 C   0  0  0  0  0  0  0  0  0  0  0  0
    3.8635   -3.2456   -2.6607 C   0  0  1  0  0  0  0  0  0  0  0  0
    4.6014   -2.1017   -3.3246 C   0  0  0  0  0  0  0  0  0  0  0  0
    5.4085   -1.3778   -2.2486 C   0  0  1  0  0  0  0  0  0  0  0  0
    4.4854   -0.7707   -1.2491 C   0  0  0  0  0  0  0  0  0  0  0  0
    6.4493   -2.2588   -1.5523 C   0  0  0  0  0  0  0  0  0  0  0  0
    5.6618   -3.3770   -0.8719 C   0  0  2  0  0  0  0  0  0  0  0  0
    4.9143   -4.0880   -2.0019 C   0  0  0  0  0  0  0  0  0  0  0  0
    1.5595   -4.2164    3.3697 H   0  0  0  0  0  0  0  0  0  0  0  0
    5.2367   -2.2408    0.9091 H   0  0  0  0  0  0  0  0  0  0  0  0
    3.0134   -1.2959    0.0083 H   0  0  0  0  0  0  0  0  0  0  0  0
    2.3418   -3.4835   -1.1334 H   0  0  0  0  0  0  0  0  0  0  0  0
    2.1837   -2.0612   -2.1188 H   0  0  0  0  0  0  0  0  0  0  0  0
    3.2993   -3.8355   -3.4008 H   0  0  0  0  0  0  0  0  0  0  0  0
    5.2542   -2.5765   -4.0170 H   0  0  0  0  0  0  0  0  0  0  0  0
    3.8860   -1.4576   -3.8559 H   0  0  0  0  0  0  0  0  0  0  0  0
    5.7596   -0.4633   -2.7196 H   0  0  0  0  0  0  0  0  0  0  0  0
    3.8302   -0.1410   -1.8500 H   0  0  0  0  0  0  0  0  0  0  0  0
    5.0143   -0.1677   -0.4875 H   0  0  0  0  0  0  0  0  0  0  0  0
    7.1496   -2.6738   -2.2818 H   0  0  0  0  0  0  0  0  0  0  0  0
    7.0308   -1.6899   -0.8057 H   0  0  0  0  0  0  0  0  0  0  0  0
    6.4224   -3.9972   -0.3853 H   0  0  0  0  0  0  0  0  0  0  0  0
    4.2690   -4.8611   -1.5970 H   0  0  0  0  0  0  0  0  0  0  0  0
    5.5441   -4.6038   -2.7006 H   0  0  0  0  0  0  0  0  0  0  0  0
  1  2  2  0
  2 10  1  0
  2  3  1  0
  3  4  2  0
  3 21  1  0
  4  5  1  0
  5  9  1  0
  5  6  2  0
  6  7  1  0
  7  8  1  0
  8  9  2  0
  9 10  1  0
 10 11  1  0
 11 19  1  0
 11 12  1  0
 11 22  1  1
 12 17  1  0
 12 13  1  0
 12 23  1  1
 13 14  1  0
 13 24  1  0
 13 25  1  0
 14 20  1  0
 14 15  1  0
 14 26  1  6
 15 16  1  0
 15 27  1  0
 15 28  1  0
 16 17  1  0
 16 18  1  0
 16 29  1  6
 17 30  1  0
 17 31  1  0
 18 19  1  0
 18 32  1  0
 18 33  1  0
 19 20  1  0
 19 34  1  1
 20 35  1  0
 20 36  1  0
M  END
>  <i_m_ct_stereo_status>  (237) 
1

>  <s_m_source_file>  (237) 
/var/tmp/pbs.5076255.sched01/tmpz7l6rxva/92z_h6r8yo.sdf

>  <i_m_source_file_index>  (237) 
4

>  <i_lp_mmshare_version>  (237) 
48012

>  <i_f3d_flags>  (237) 
0

>  <s_epik_input>  (237) 
bjFvbmMoYzEyKW4oYyg9TylbY0hdbjIpW0NASF0oW0NASF0zNClbQ0BASF01W0NIMl1bQ0BIXShbQ0gyXTQpW0NIMl1bQ0BIXShbQ0gyXTMpW0NIMl01

>  <s_epik_cmdline>  (237) 
J2VwaWtfcHl0aG9uJywgJy1waHQnLCAnMi4wJywgJy1waCcsICc3LjAnLCAnLXRuJywgJzgnLCAnLW1hJywgJzIwMCcsICctaW1hZScsICc8aW5maWxlLm1hZT4nLCAnLW9tYWUnLCAnPG91dGZpbGUubWFlPic=

>  <r_lp_tautomer_probability>  (237) 
1

>  <r_epik_Ionization_Penalty>  (237) 
1.39698e-11

>  <r_epik_Ionization_Penalty_Charging>  (237) 
1.39664e-11

>  <r_epik_Ionization_Penalty_Neutral>  (237) 
3.42051e-15

>  <r_epik_State_Penalty>  (237) 
-0

>  <r_epik_Charging_Adjusted_Penalty>  (237) 
1.39664e-11

>  <i_epik_Tot_Q>  (237) 
0

>  <i_epik_Tot_abs_Q>  (237) 
0

>  <s_lp_Force_Field>  (237) 
OPLS3e

>  <r_lp_Energy>  (237) 
40.3068

>  <b_lp_Chiralities_Consistent>  (237) 
1

>  <s_lp_Variant>  (237) 
64:0-1

>  <s_i_glide_gridfile>  (237) 
pfpi4k_grid

>  <i_i_glide_lignum>  (237) 
4

>  <i_i_glide_rotatable_bonds>  (237) 
1

>  <r_i_docking_score>  (237) 
-1.81117

>  <r_i_glide_ligand_efficiency>  (237) 
-0.0905586

>  <r_i_glide_ligand_efficiency_sa>  (237) 
-0.245814

>  <r_i_glide_ligand_efficiency_ln>  (237) 
-0.453277

>  <r_i_glide_gscore>  (237) 
-1.81117

>  <r_i_glide_lipo>  (237) 
-0.173557

>  <r_i_glide_hbond>  (237) 
0

>  <r_i_glide_metal>  (237) 
-0

>  <r_i_glide_rewards>  (237) 
-1.67599

>  <r_i_glide_evdw>  (237) 
-10.7844

>  <r_i_glide_ecoul>  (237) 
-0.320396

>  <r_i_glide_erotb>  (237) 
0.241668

>  <r_i_glide_esite>  (237) 
0

>  <r_i_glide_emodel>  (237) 
6.87334

>  <r_i_glide_energy>  (237) 
-11.1047

>  <r_i_glide_einternal>  (237) 
31.5299

>  <r_i_glide_intrahb_reward>  (237) 
-0

>  <i_i_glide_confnum>  (237) 
6

>  <i_i_glide_posenum>  (237) 
15

>  <r_i_glide_eff_state_penalty>  (237) 
0

>  <ligand_id>  (237) 
64

>  <original_smiles>  (237) 
O=c1cnc2nonc2n1C1C2CC3CC(C2)CC1C3

>  <smiles>  (237) 
[H]c1nc2nonc2n(C2([H])C3([H])C([H])([H])C4([H])C([H])([H])C([H])(C3([H])[H])C([H])([H])C2([H])C4([H])[H])c1=O

$$$$
65:0:0
     RDKit          3D

 50 55  0  0  1  0  0  0  0  0999 V2000
    4.4461   -3.3448   -3.9238 C   0  0  0  0  0  0  0  0  0  0  0  0
    3.8354   -3.4793   -2.5889 N   0  0  2  0  0  0  0  0  0  0  0  0
    3.1946   -2.2209   -2.0758 C   0  0  0  0  0  0  0  0  0  0  0  0
    4.2490   -1.3587   -1.3200 C   0  0  1  0  0  0  0  0  0  0  0  0
    4.6363   -0.3159   -2.2245 O   0  0  0  0  0  0  0  0  0  0  0  0
    4.2453   -0.8164    0.1904 C   0  0  2  0  0  0  0  0  0  0  0  0
    5.7333   -0.6760    0.9443 C   0  0  0  0  0  0  0  0  0  0  0  0
    6.9083   -1.4823    0.8354 C   0  0  0  0  0  0  0  0  0  0  0  0
    7.1992   -2.8629   -0.0917 C   0  0  1  0  0  0  0  0  0  0  0  0
    7.5112   -3.9809    0.7153 O   0  0  0  0  0  0  0  0  0  0  0  0
    6.0979   -3.3077   -1.3381 C   0  0  1  0  0  0  0  0  0  0  0  0
    4.7145   -4.1616   -1.5599 C   0  0  1  0  0  0  0  0  0  0  0  0
    3.7256   -4.4262   -0.3249 C   0  0  0  0  0  0  0  0  0  0  0  0
    3.7392   -3.3277    0.7988 C   0  0  2  0  0  0  0  0  0  0  0  0
    5.0008   -3.0317    0.4669 O   0  0  0  0  0  0  0  0  0  0  0  0
    5.2779   -2.3064   -0.8611 C   0  0  2  0  0  0  0  0  0  0  0  0
    3.6660   -3.7723    2.2385 C   0  0  0  0  0  0  0  0  0  0  0  0
    4.0608   -5.0004    2.7886 C   0  0  0  0  0  0  0  0  0  0  0  0
    4.0020   -5.1606    4.1855 C   0  0  0  0  0  0  0  0  0  0  0  0
    3.5603   -4.0841    5.0059 C   0  0  0  0  0  0  0  0  0  0  0  0
    3.1900   -2.8475    4.4405 C   0  0  0  0  0  0  0  0  0  0  0  0
    3.2543   -2.6937    3.0420 C   0  0  0  0  0  0  0  0  0  0  0  0
    3.0156   -1.5414    2.2832 N   0  0  0  0  0  0  0  0  0  0  0  0
    2.8305   -0.2017    2.8181 C   0  0  0  0  0  0  0  0  0  0  0  0
    3.2359   -1.8367    0.8719 C   0  0  1  0  0  0  0  0  0  0  0  0
    5.1690   -2.5393   -3.9304 H   0  0  0  0  0  0  0  0  0  0  0  0
    3.6819   -3.1141   -4.6569 H   0  0  0  0  0  0  0  0  0  0  0  0
    4.9399   -4.2613   -4.2400 H   0  0  0  0  0  0  0  0  0  0  0  0
    2.7541   -1.6720   -2.9022 H   0  0  0  0  0  0  0  0  0  0  0  0
    2.3455   -2.5135   -1.4765 H   0  0  0  0  0  0  0  0  0  0  0  0
    4.8744    0.4472   -1.7105 H   0  0  0  0  0  0  0  0  0  0  0  0
    3.8227    0.1796    0.2172 H   0  0  0  0  0  0  0  0  0  0  0  0
    5.7864    0.1398    1.6355 H   0  0  0  0  0  0  0  0  0  0  0  0
    7.7473   -1.1411    1.4055 H   0  0  0  0  0  0  0  0  0  0  0  0
    8.1368   -2.6442   -0.5900 H   0  0  0  0  0  0  0  0  0  0  0  0
    6.7051   -4.2548    1.1326 H   0  0  0  0  0  0  0  0  0  0  0  0
    6.5741   -3.1117   -2.2974 H   0  0  0  0  0  0  0  0  0  0  0  0
    5.0125   -5.1240   -1.9474 H   0  0  0  0  0  0  0  0  0  0  0  0
    2.7051   -4.6450   -0.6332 H   0  0  0  0  0  0  0  0  0  0  0  0
    4.0612   -5.3649    0.1003 H   0  0  0  0  0  0  0  0  0  0  0  0
    6.0257   -1.5714   -1.2186 H   0  0  0  0  0  0  0  0  0  0  0  0
    4.4321   -5.8129    2.1711 H   0  0  0  0  0  0  0  0  0  0  0  0
    4.2935   -6.0938    4.6359 H   0  0  0  0  0  0  0  0  0  0  0  0
    3.5251   -4.2313    6.0791 H   0  0  0  0  0  0  0  0  0  0  0  0
    2.8722   -2.0290    5.0813 H   0  0  0  0  0  0  0  0  0  0  0  0
    2.4095   -0.1763    3.8238 H   0  0  0  0  0  0  0  0  0  0  0  0
    2.1725    0.3558    2.1540 H   0  0  0  0  0  0  0  0  0  0  0  0
    3.7913    0.3051    2.8153 H   0  0  0  0  0  0  0  0  0  0  0  0
    2.2376   -1.7614    0.4526 H   0  0  0  0  0  0  0  0  0  0  0  0
    3.0909   -4.1408   -2.7173 H   0  0  0  0  0  0  0  0  0  0  0  0
  1  2  1  0
  1 26  1  0
  1 27  1  0
  1 28  1  0
  2 12  1  0
  2  3  1  0
  2 50  1  6
  3  4  1  0
  3 29  1  0
  3 30  1  0
  4 16  1  0
  4  5  1  6
  4  6  1  0
  5 31  1  0
  6 25  1  0
  6  7  1  0
  6 32  1  6
  7  8  2  0
  7 33  1  0
  8  9  1  0
  8 34  1  0
  9 10  1  0
  9 11  1  0
  9 35  1  6
 10 36  1  0
 11 16  1  0
 11 12  1  0
 11 37  1  6
 12 13  1  0
 12 38  1  6
 14 13  1  6
 13 39  1  0
 13 40  1  0
 14 25  1  0
 14 15  1  0
 14 17  1  0
 15 16  1  0
 16 41  1  1
 17 22  2  0
 17 18  1  0
 18 19  2  0
 18 42  1  0
 19 20  1  0
 19 43  1  0
 20 21  2  0
 20 44  1  0
 21 22  1  0
 21 45  1  0
 22 23  1  0
 23 24  1  0
 23 25  1  0
 24 46  1  0
 24 47  1  0
 24 48  1  0
 25 49  1  6
M  CHG  1   2   1
M  END
>  <i_m_ct_stereo_status>  (238) 
1

>  <s_m_source_file>  (238) 
/var/tmp/pbs.5076255.sched01/tmpz7l6rxva/92z_h6r8yo.sdf

>  <i_m_source_file_index>  (238) 
5

>  <i_lp_mmshare_version>  (238) 
48012

>  <i_f3d_flags>  (238) 
0

>  <s_epik_input>  (238) 
W0NIM11OKFtDSDJdMSlbQ0BIXShbQ0gyXTIpW0NASF0oW0NASF0oW09IXSlbQ0hdPVtDSF0zKVtDQEhdKE80KVtDQF0xKFtPSF0pW0NASF0zW0NAQEhdNU4oW0NIM10pYyhjNltDQF0yNDUpW2NIXVtjSF1bY0hdW2NIXTY=

>  <s_epik_cmdline>  (238) 
J2VwaWtfcHl0aG9uJywgJy1waHQnLCAnMi4wJywgJy1waCcsICc3LjAnLCAnLXRuJywgJzgnLCAnLW1hJywgJzIwMCcsICctaW1hZScsICc8aW5maWxlLm1hZT4nLCAnLW9tYWUnLCAnPG91dGZpbGUubWFlPic=

>  <r_epik_Ionization_Penalty>  (238) 
0.0986544

>  <r_epik_Ionization_Penalty_Charging>  (238) 
0.098623

>  <r_epik_Ionization_Penalty_Neutral>  (238) 
3.13945e-05

>  <r_epik_State_Penalty>  (238) 
0.0887019

>  <r_epik_Charging_Adjusted_Penalty>  (238) 
0.187325

>  <i_epik_Tot_Q>  (238) 
1

>  <i_epik_Tot_abs_Q>  (238) 
1

>  <s_lp_Force_Field>  (238) 
OPLS3e

>  <r_lp_Energy>  (238) 
332.278

>  <b_lp_Chiralities_Consistent>  (238) 
1

>  <s_lp_Variant>  (238) 
65:0-1

>  <s_i_glide_gridfile>  (238) 
pfpi4k_grid

>  <i_i_glide_lignum>  (238) 
5

>  <i_i_glide_rotatable_bonds>  (238) 
2

>  <r_i_docking_score>  (238) 
-4.02044

>  <r_i_glide_ligand_efficiency>  (238) 
-0.160817

>  <r_i_glide_ligand_efficiency_sa>  (238) 
-0.470233

>  <r_i_glide_ligand_efficiency_ln>  (238) 
-0.952964

>  <r_i_glide_gscore>  (238) 
-4.02044

>  <r_i_glide_lipo>  (238) 
-0.462092

>  <r_i_glide_hbond>  (238) 
-0.32

>  <r_i_glide_metal>  (238) 
-0

>  <r_i_glide_rewards>  (238) 
-1.0812

>  <r_i_glide_evdw>  (238) 
-20.7928

>  <r_i_glide_ecoul>  (238) 
-7.12388

>  <r_i_glide_erotb>  (238) 
0

>  <r_i_glide_esite>  (238) 
-0.0489229

>  <r_i_glide_emodel>  (238) 
-34.6031

>  <r_i_glide_energy>  (238) 
-27.9167

>  <r_i_glide_einternal>  (238) 
0.816174

>  <r_i_glide_intrahb_reward>  (238) 
-0

>  <i_i_glide_confnum>  (238) 
2

>  <i_i_glide_posenum>  (238) 
7

>  <r_i_glide_eff_state_penalty>  (238) 
0

>  <ligand_id>  (238) 
65

>  <original_smiles>  (238) 
CN1CC2(O)C3C=CC(O)C4C1CC1(OC42)c2ccccc2N(C)C31

>  <smiles>  (238) 
[H]OC1([H])C([H])=C([H])C2([H])C3([H])N(C([H])([H])[H])c4c([H])c([H])c([H])c([H])c4C34OC3([H])C1([H])C([H])(C4([H])[H])[N+]([H])(C([H])([H])[H])C([H])([H])C32O[H]

$$$$
65:0:1
     RDKit          3D

 50 55  0  0  1  0  0  0  0  0999 V2000
    4.2438   -3.3273   -4.0544 C   0  0  0  0  0  0  0  0  0  0  0  0
    3.7782   -3.4687   -2.6622 N   0  0  2  0  0  0  0  0  0  0  0  0
    3.1847   -2.2230   -2.0730 C   0  0  0  0  0  0  0  0  0  0  0  0
    4.3137   -1.3626   -1.4214 C   0  0  1  0  0  0  0  0  0  0  0  0
    4.6205   -0.3311   -2.3623 O   0  0  0  0  0  0  0  0  0  0  0  0
    4.4614   -0.8247    0.0837 C   0  0  2  0  0  0  0  0  0  0  0  0
    6.0205   -0.6970    0.6906 C   0  0  0  0  0  0  0  0  0  0  0  0
    7.1767   -1.5086    0.4738 C   0  0  0  0  0  0  0  0  0  0  0  0
    7.3770   -2.8700   -0.5049 C   0  0  1  0  0  0  0  0  0  0  0  0
    7.7736   -3.9902    0.2593 O   0  0  0  0  0  0  0  0  0  0  0  0
    6.1561   -3.3063   -1.6423 C   0  0  1  0  0  0  0  0  0  0  0  0
    4.7574   -4.1611   -1.7327 C   0  0  1  0  0  0  0  0  0  0  0  0
    3.9015   -4.4383   -0.4041 C   0  0  0  0  0  0  0  0  0  0  0  0
    4.0219   -3.3465    0.7211 C   0  0  2  0  0  0  0  0  0  0  0  0
    5.2428   -3.0445    0.2650 O   0  0  0  0  0  0  0  0  0  0  0  0
    5.3865   -2.3099   -1.0757 C   0  0  2  0  0  0  0  0  0  0  0  0
    4.1029   -3.7994    2.1559 C   0  0  0  0  0  0  0  0  0  0  0  0
    4.5562   -5.0333    2.6544 C   0  0  0  0  0  0  0  0  0  0  0  0
    4.6419   -5.2047    4.0488 C   0  0  0  0  0  0  0  0  0  0  0  0
    4.2856   -4.1391    4.9190 C   0  0  0  0  0  0  0  0  0  0  0  0
    3.8561   -2.8961    4.4015 C   0  0  0  0  0  0  0  0  0  0  0  0
    3.7743   -2.7326    3.0057 C   0  0  0  0  0  0  0  0  0  0  0  0
    3.4397   -1.5768    2.2820 N   0  0  0  0  0  0  0  0  0  0  0  0
    3.3211   -0.2434    2.8438 C   0  0  0  0  0  0  0  0  0  0  0  0
    3.5220   -1.8538    0.8505 C   0  0  1  0  0  0  0  0  0  0  0  0
    4.9632   -2.5203   -4.1260 H   0  0  0  0  0  0  0  0  0  0  0  0
    3.4058   -3.0928   -4.7029 H   0  0  0  0  0  0  0  0  0  0  0  0
    4.7024   -4.2443   -4.4206 H   0  0  0  0  0  0  0  0  0  0  0  0
    2.6554   -1.6756   -2.8490 H   0  0  0  0  0  0  0  0  0  0  0  0
    2.4014   -2.5277   -1.3932 H   0  0  0  0  0  0  0  0  0  0  0  0
    3.8831    0.2642   -2.3892 H   0  0  0  0  0  0  0  0  0  0  0  0
    4.0283    0.1690    0.1497 H   0  0  0  0  0  0  0  0  0  0  0  0
    6.1408    0.1299    1.3660 H   0  0  0  0  0  0  0  0  0  0  0  0
    8.0768   -1.2147    0.9824 H   0  0  0  0  0  0  0  0  0  0  0  0
    8.2591   -2.6420   -1.0983 H   0  0  0  0  0  0  0  0  0  0  0  0
    7.0234   -4.2431    0.7794 H   0  0  0  0  0  0  0  0  0  0  0  0
    6.5313   -3.0994   -2.6444 H   0  0  0  0  0  0  0  0  0  0  0  0
    5.0111   -5.1203   -2.1584 H   0  0  0  0  0  0  0  0  0  0  0  0
    2.8559   -4.6567   -0.6077 H   0  0  0  0  0  0  0  0  0  0  0  0
    4.2792   -5.3780   -0.0195 H   0  0  0  0  0  0  0  0  0  0  0  0
    6.0976   -1.5674   -1.4905 H   0  0  0  0  0  0  0  0  0  0  0  0
    4.8591   -5.8420    1.9987 H   0  0  0  0  0  0  0  0  0  0  0  0
    4.9767   -6.1431    4.4597 H   0  0  0  0  0  0  0  0  0  0  0  0
    4.3570   -4.2936    5.9870 H   0  0  0  0  0  0  0  0  0  0  0  0
    3.6019   -2.0891    5.0801 H   0  0  0  0  0  0  0  0  0  0  0  0
    3.0067   -0.2255    3.8875 H   0  0  0  0  0  0  0  0  0  0  0  0
    2.5971    0.3207    2.2568 H   0  0  0  0  0  0  0  0  0  0  0  0
    4.2764    0.2667    2.7473 H   0  0  0  0  0  0  0  0  0  0  0  0
    2.4964   -1.7648    0.4988 H   0  0  0  0  0  0  0  0  0  0  0  0
    3.0258   -4.1391   -2.7198 H   0  0  0  0  0  0  0  0  0  0  0  0
  1  2  1  0
  1 26  1  0
  1 27  1  0
  1 28  1  0
  2 12  1  0
  2  3  1  0
  2 50  1  6
  3  4  1  0
  3 29  1  0
  3 30  1  0
  4 16  1  0
  4  5  1  6
  4  6  1  0
  5 31  1  0
  6 25  1  0
  6  7  1  0
  6 32  1  6
  7  8  2  0
  7 33  1  0
  8  9  1  0
  8 34  1  0
  9 10  1  0
  9 11  1  0
  9 35  1  6
 10 36  1  0
 11 16  1  0
 11 12  1  0
 11 37  1  6
 12 13  1  0
 12 38  1  6
 14 13  1  6
 13 39  1  0
 13 40  1  0
 14 25  1  0
 14 15  1  0
 14 17  1  0
 15 16  1  0
 16 41  1  1
 17 22  2  0
 17 18  1  0
 18 19  2  0
 18 42  1  0
 19 20  1  0
 19 43  1  0
 20 21  2  0
 20 44  1  0
 21 22  1  0
 21 45  1  0
 22 23  1  0
 23 24  1  0
 23 25  1  0
 24 46  1  0
 24 47  1  0
 24 48  1  0
 25 49  1  6
M  CHG  1   2   1
M  END
>  <i_m_ct_stereo_status>  (239) 
1

>  <s_m_source_file>  (239) 
/var/tmp/pbs.5076255.sched01/tmpz7l6rxva/92z_h6r8yo.sdf

>  <i_m_source_file_index>  (239) 
5

>  <i_lp_mmshare_version>  (239) 
48012

>  <i_f3d_flags>  (239) 
0

>  <s_epik_input>  (239) 
W0NIM11OKFtDSDJdMSlbQ0BIXShbQ0gyXTIpW0NASF0oW0NASF0oW09IXSlbQ0hdPVtDSF0zKVtDQEhdKE80KVtDQF0xKFtPSF0pW0NASF0zW0NAQEhdNU4oW0NIM10pYyhjNltDQF0yNDUpW2NIXVtjSF1bY0hdW2NIXTY=

>  <s_epik_cmdline>  (239) 
J2VwaWtfcHl0aG9uJywgJy1waHQnLCAnMi4wJywgJy1waCcsICc3LjAnLCAnLXRuJywgJzgnLCAnLW1hJywgJzIwMCcsICctaW1hZScsICc8aW5maWxlLm1hZT4nLCAnLW9tYWUnLCAnPG91dGZpbGUubWFlPic=

>  <r_epik_Ionization_Penalty>  (239) 
0.0986544

>  <r_epik_Ionization_Penalty_Charging>  (239) 
0.098623

>  <r_epik_Ionization_Penalty_Neutral>  (239) 
3.13945e-05

>  <r_epik_State_Penalty>  (239) 
0.0887019

>  <r_epik_Charging_Adjusted_Penalty>  (239) 
0.187325

>  <i_epik_Tot_Q>  (239) 
1

>  <i_epik_Tot_abs_Q>  (239) 
1

>  <s_lp_Force_Field>  (239) 
OPLS3e

>  <r_lp_Energy>  (239) 
332.278

>  <b_lp_Chiralities_Consistent>  (239) 
1

>  <s_lp_Variant>  (239) 
65:0-1

>  <s_i_glide_gridfile>  (239) 
pfpi4k_grid

>  <i_i_glide_lignum>  (239) 
5

>  <i_i_glide_rotatable_bonds>  (239) 
2

>  <r_i_docking_score>  (239) 
-3.42119

>  <r_i_glide_ligand_efficiency>  (239) 
-0.136847

>  <r_i_glide_ligand_efficiency_sa>  (239) 
-0.400144

>  <r_i_glide_ligand_efficiency_ln>  (239) 
-0.810924

>  <r_i_glide_gscore>  (239) 
-3.42119

>  <r_i_glide_lipo>  (239) 
-0.359114

>  <r_i_glide_hbond>  (239) 
0

>  <r_i_glide_metal>  (239) 
-0

>  <r_i_glide_rewards>  (239) 
-1.0812

>  <r_i_glide_evdw>  (239) 
-22.1169

>  <r_i_glide_ecoul>  (239) 
-5.5576

>  <r_i_glide_erotb>  (239) 
0

>  <r_i_glide_esite>  (239) 
-0.0413884

>  <r_i_glide_emodel>  (239) 
-33.7731

>  <r_i_glide_energy>  (239) 
-27.6745

>  <r_i_glide_einternal>  (239) 
0.0145789

>  <r_i_glide_intrahb_reward>  (239) 
-0

>  <i_i_glide_confnum>  (239) 
1

>  <i_i_glide_posenum>  (239) 
31

>  <r_i_glide_eff_state_penalty>  (239) 
0

>  <ligand_id>  (239) 
65

>  <original_smiles>  (239) 
CN1CC2(O)C3C=CC(O)C4C1CC1(OC42)c2ccccc2N(C)C31

>  <smiles>  (239) 
[H]OC1([H])C([H])=C([H])C2([H])C3([H])N(C([H])([H])[H])c4c([H])c([H])c([H])c([H])c4C34OC3([H])C1([H])C([H])(C4([H])[H])[N+]([H])(C([H])([H])[H])C([H])([H])C32O[H]

$$$$
65:0:2
     RDKit          3D

 50 55  0  0  1  0  0  0  0  0999 V2000
    4.2986   -3.3250   -4.0188 C   0  0  0  0  0  0  0  0  0  0  0  0
    3.7771   -3.4801   -2.6473 N   0  0  2  0  0  0  0  0  0  0  0  0
    3.1429   -2.2446   -2.0801 C   0  0  0  0  0  0  0  0  0  0  0  0
    4.2326   -1.3714   -1.3893 C   0  0  1  0  0  0  0  0  0  0  0  0
    4.5616   -0.3487   -2.3341 O   0  0  0  0  0  0  0  0  0  0  0  0
    4.3133   -0.8313    0.1232 C   0  0  2  0  0  0  0  0  0  0  0  0
    5.8467   -0.6821    0.7901 C   0  0  0  0  0  0  0  0  0  0  0  0
    7.0212   -1.4780    0.6136 C   0  0  0  0  0  0  0  0  0  0  0  0
    7.2792   -2.8427   -0.3443 C   0  0  1  0  0  0  0  0  0  0  0  0
    7.6958   -3.9416    0.4523 O   0  0  0  0  0  0  0  0  0  0  0  0
    6.1096   -3.2933   -1.5328 C   0  0  1  0  0  0  0  0  0  0  0  0
    4.7267   -4.1637   -1.6814 C   0  0  1  0  0  0  0  0  0  0  0  0
    3.8222   -4.4523   -0.3901 C   0  0  0  0  0  0  0  0  0  0  0  0
    3.8848   -3.3626    0.7422 C   0  0  2  0  0  0  0  0  0  0  0  0
    5.1154   -3.0374    0.3313 O   0  0  0  0  0  0  0  0  0  0  0  0
    5.3049   -2.3043   -1.0018 C   0  0  2  0  0  0  0  0  0  0  0  0
    3.9143   -3.8199    2.1783 C   0  0  0  0  0  0  0  0  0  0  0  0
    4.3602   -5.0519    2.6906 C   0  0  0  0  0  0  0  0  0  0  0  0
    4.3901   -5.2275    4.0867 C   0  0  0  0  0  0  0  0  0  0  0  0
    3.9860   -4.1704    4.9456 C   0  0  0  0  0  0  0  0  0  0  0  0
    3.5636   -2.9298    4.4152 C   0  0  0  0  0  0  0  0  0  0  0  0
    3.5391   -2.7620    3.0180 C   0  0  0  0  0  0  0  0  0  0  0  0
    3.2229   -1.6058    2.2860 N   0  0  0  0  0  0  0  0  0  0  0  0
    3.0623   -0.2773    2.8462 C   0  0  0  0  0  0  0  0  0  0  0  0
    3.3621   -1.8770    0.8581 C   0  0  1  0  0  0  0  0  0  0  0  0
    5.0157   -2.5087   -4.0575 H   0  0  0  0  0  0  0  0  0  0  0  0
    3.4842   -3.1001   -4.7031 H   0  0  0  0  0  0  0  0  0  0  0  0
    4.7842   -4.2355   -4.3705 H   0  0  0  0  0  0  0  0  0  0  0  0
    2.6377   -1.7011   -2.8750 H   0  0  0  0  0  0  0  0  0  0  0  0
    2.3394   -2.5578   -1.4291 H   0  0  0  0  0  0  0  0  0  0  0  0
    3.8268    0.2482   -2.3827 H   0  0  0  0  0  0  0  0  0  0  0  0
    3.8634    0.1553    0.1821 H   0  0  0  0  0  0  0  0  0  0  0  0
    5.9286    0.1369    1.4841 H   0  0  0  0  0  0  0  0  0  0  0  0
    7.8899   -1.1811    1.1745 H   0  0  0  0  0  0  0  0  0  0  0  0
    8.1731   -2.6003   -0.9135 H   0  0  0  0  0  0  0  0  0  0  0  0
    7.7388   -4.7156   -0.0866 H   0  0  0  0  0  0  0  0  0  0  0  0
    6.5215   -3.0779   -2.5183 H   0  0  0  0  0  0  0  0  0  0  0  0
    5.0083   -5.1184   -2.1005 H   0  0  0  0  0  0  0  0  0  0  0  0
    2.7868   -4.6766   -0.6348 H   0  0  0  0  0  0  0  0  0  0  0  0
    4.1952   -5.3885    0.0073 H   0  0  0  0  0  0  0  0  0  0  0  0
    6.0228   -1.5515   -1.3855 H   0  0  0  0  0  0  0  0  0  0  0  0
    4.7027   -5.8514    2.0444 H   0  0  0  0  0  0  0  0  0  0  0  0
    4.7217   -6.1626    4.5077 H   0  0  0  0  0  0  0  0  0  0  0  0
    4.0183   -4.3263    6.0152 H   0  0  0  0  0  0  0  0  0  0  0  0
    3.2737   -2.1278    5.0846 H   0  0  0  0  0  0  0  0  0  0  0  0
    2.7053   -0.2671    3.8758 H   0  0  0  0  0  0  0  0  0  0  0  0
    2.3551    0.2793    2.2321 H   0  0  0  0  0  0  0  0  0  0  0  0
    4.0138    0.2455    2.7899 H   0  0  0  0  0  0  0  0  0  0  0  0
    2.3437   -1.8071    0.4843 H   0  0  0  0  0  0  0  0  0  0  0  0
    3.0357   -4.1577   -2.7375 H   0  0  0  0  0  0  0  0  0  0  0  0
  1  2  1  0
  1 26  1  0
  1 27  1  0
  1 28  1  0
  2 12  1  0
  2  3  1  0
  2 50  1  6
  3  4  1  0
  3 29  1  0
  3 30  1  0
  4 16  1  0
  4  5  1  6
  4  6  1  0
  5 31  1  0
  6 25  1  0
  6  7  1  0
  6 32  1  6
  7  8  2  0
  7 33  1  0
  8  9  1  0
  8 34  1  0
  9 10  1  0
  9 11  1  0
  9 35  1  6
 10 36  1  0
 11 16  1  0
 11 12  1  0
 11 37  1  6
 12 13  1  0
 12 38  1  6
 14 13  1  6
 13 39  1  0
 13 40  1  0
 14 25  1  0
 14 15  1  0
 14 17  1  0
 15 16  1  0
 16 41  1  1
 17 22  2  0
 17 18  1  0
 18 19  2  0
 18 42  1  0
 19 20  1  0
 19 43  1  0
 20 21  2  0
 20 44  1  0
 21 22  1  0
 21 45  1  0
 22 23  1  0
 23 24  1  0
 23 25  1  0
 24 46  1  0
 24 47  1  0
 24 48  1  0
 25 49  1  6
M  CHG  1   2   1
M  END
>  <i_m_ct_stereo_status>  (240) 
1

>  <s_m_source_file>  (240) 
/var/tmp/pbs.5076255.sched01/tmpz7l6rxva/92z_h6r8yo.sdf

>  <i_m_source_file_index>  (240) 
5

>  <i_lp_mmshare_version>  (240) 
48012

>  <i_f3d_flags>  (240) 
0

>  <s_epik_input>  (240) 
W0NIM11OKFtDSDJdMSlbQ0BIXShbQ0gyXTIpW0NASF0oW0NASF0oW09IXSlbQ0hdPVtDSF0zKVtDQEhdKE80KVtDQF0xKFtPSF0pW0NASF0zW0NAQEhdNU4oW0NIM10pYyhjNltDQF0yNDUpW2NIXVtjSF1bY0hdW2NIXTY=

>  <s_epik_cmdline>  (240) 
J2VwaWtfcHl0aG9uJywgJy1waHQnLCAnMi4wJywgJy1waCcsICc3LjAnLCAnLXRuJywgJzgnLCAnLW1hJywgJzIwMCcsICctaW1hZScsICc8aW5maWxlLm1hZT4nLCAnLW9tYWUnLCAnPG91dGZpbGUubWFlPic=

>  <r_epik_Ionization_Penalty>  (240) 
0.0986544

>  <r_epik_Ionization_Penalty_Charging>  (240) 
0.098623

>  <r_epik_Ionization_Penalty_Neutral>  (240) 
3.13945e-05

>  <r_epik_State_Penalty>  (240) 
0.0887019

>  <r_epik_Charging_Adjusted_Penalty>  (240) 
0.187325

>  <i_epik_Tot_Q>  (240) 
1

>  <i_epik_Tot_abs_Q>  (240) 
1

>  <s_lp_Force_Field>  (240) 
OPLS3e

>  <r_lp_Energy>  (240) 
332.278

>  <b_lp_Chiralities_Consistent>  (240) 
1

>  <s_lp_Variant>  (240) 
65:0-1

>  <s_i_glide_gridfile>  (240) 
pfpi4k_grid

>  <i_i_glide_lignum>  (240) 
5

>  <i_i_glide_rotatable_bonds>  (240) 
2

>  <r_i_docking_score>  (240) 
-3.29337

>  <r_i_glide_ligand_efficiency>  (240) 
-0.131735

>  <r_i_glide_ligand_efficiency_sa>  (240) 
-0.385195

>  <r_i_glide_ligand_efficiency_ln>  (240) 
-0.780628

>  <r_i_glide_gscore>  (240) 
-3.29337

>  <r_i_glide_lipo>  (240) 
-0.371341

>  <r_i_glide_hbond>  (240) 
0

>  <r_i_glide_metal>  (240) 
-0

>  <r_i_glide_rewards>  (240) 
-1.0812

>  <r_i_glide_evdw>  (240) 
-22.2785

>  <r_i_glide_ecoul>  (240) 
-4.55384

>  <r_i_glide_erotb>  (240) 
0

>  <r_i_glide_esite>  (240) 
-0.0438327

>  <r_i_glide_emodel>  (240) 
-32.3086

>  <r_i_glide_energy>  (240) 
-26.8323

>  <r_i_glide_einternal>  (240) 
0.699787

>  <r_i_glide_intrahb_reward>  (240) 
-0

>  <i_i_glide_confnum>  (240) 
1

>  <i_i_glide_posenum>  (240) 
20

>  <r_i_glide_eff_state_penalty>  (240) 
0

>  <ligand_id>  (240) 
65

>  <original_smiles>  (240) 
CN1CC2(O)C3C=CC(O)C4C1CC1(OC42)c2ccccc2N(C)C31

>  <smiles>  (240) 
[H]OC1([H])C([H])=C([H])C2([H])C3([H])N(C([H])([H])[H])c4c([H])c([H])c([H])c([H])c4C34OC3([H])C1([H])C([H])(C4([H])[H])[N+]([H])(C([H])([H])[H])C([H])([H])C32O[H]

$$$$
65:1:0
     RDKit          3D

 49 54  0  0  1  0  0  0  0  0999 V2000
   -3.2903    2.9761    2.8309 C   0  0  0  0  0  0  0  0  0  0  0  0
   -1.8433    2.8027    2.7514 N   0  0  0  0  0  0  0  0  0  0  0  0
   -1.0929    3.4553    3.8666 C   0  0  0  0  0  0  0  0  0  0  0  0
    0.4582    3.2225    3.7550 C   0  0  1  0  0  0  0  0  0  0  0  0
    1.0369    4.4257    3.2745 O   0  0  0  0  0  0  0  0  0  0  0  0
    1.4986    2.5399    4.7727 C   0  0  2  0  0  0  0  0  0  0  0  0
    2.7674    1.6741    4.0860 C   0  0  0  0  0  0  0  0  0  0  0  0
    2.8026    0.8653    2.9027 C   0  0  0  0  0  0  0  0  0  0  0  0
    1.5882    0.5326    1.7852 C   0  0  1  0  0  0  0  0  0  0  0  0
    1.3679   -0.8604    1.6818 O   0  0  0  0  0  0  0  0  0  0  0  0
    0.1012    1.4117    1.8001 C   0  0  1  0  0  0  0  0  0  0  0  0
   -1.3819    1.3997    2.5206 C   0  0  1  0  0  0  0  0  0  0  0  0
   -1.5498    0.6420    3.9274 C   0  0  0  0  0  0  0  0  0  0  0  0
   -0.2861    0.5950    4.8435 C   0  0  2  0  0  0  0  0  0  0  0  0
    0.4864    0.6811    3.7589 O   0  0  0  0  0  0  0  0  0  0  0  0
    0.5783    1.9902    2.9658 C   0  0  2  0  0  0  0  0  0  0  0  0
    0.0008   -0.6667    5.5921 C   0  0  0  0  0  0  0  0  0  0  0  0
   -0.3736   -1.9846    5.2485 C   0  0  0  0  0  0  0  0  0  0  0  0
    0.0926   -3.0386    6.0477 C   0  0  0  0  0  0  0  0  0  0  0  0
    0.9292   -2.7787    7.1598 C   0  0  0  0  0  0  0  0  0  0  0  0
    1.3214   -1.4517    7.4747 C   0  0  0  0  0  0  0  0  0  0  0  0
    0.8523   -0.3975    6.6638 C   0  0  0  0  0  0  0  0  0  0  0  0
    1.1482    0.9664    6.7603 N   0  0  0  0  0  0  0  0  0  0  0  0
    2.2282    1.5368    7.5539 C   0  0  0  0  0  0  0  0  0  0  0  0
    0.4910    1.6873    5.6711 C   0  0  1  0  0  0  0  0  0  0  0  0
   -3.5382    4.0343    2.8256 H   0  0  0  0  0  0  0  0  0  0  0  0
   -3.7114    2.5424    3.7379 H   0  0  0  0  0  0  0  0  0  0  0  0
   -3.7936    2.5364    1.9656 H   0  0  0  0  0  0  0  0  0  0  0  0
   -1.2989    4.5249    3.8326 H   0  0  0  0  0  0  0  0  0  0  0  0
   -1.4985    3.1206    4.8167 H   0  0  0  0  0  0  0  0  0  0  0  0
    0.7458    4.5260    2.3649 H   0  0  0  0  0  0  0  0  0  0  0  0
    1.9469    3.3240    5.3866 H   0  0  0  0  0  0  0  0  0  0  0  0
    3.6794    1.7262    4.6597 H   0  0  0  0  0  0  0  0  0  0  0  0
    3.7448    0.3875    2.6670 H   0  0  0  0  0  0  0  0  0  0  0  0
    2.0642    0.7954    0.8462 H   0  0  0  0  0  0  0  0  0  0  0  0
    1.1005   -0.9864    0.7465 H   0  0  0  0  0  0  0  0  0  0  0  0
    0.0751    2.1032    0.9592 H   0  0  0  0  0  0  0  0  0  0  0  0
   -2.0473    0.9434    1.7918 H   0  0  0  0  0  0  0  0  0  0  0  0
   -2.3972    1.0006    4.5065 H   0  0  0  0  0  0  0  0  0  0  0  0
   -1.8101   -0.3777    3.6634 H   0  0  0  0  0  0  0  0  0  0  0  0
    1.3645    2.5129    2.3784 H   0  0  0  0  0  0  0  0  0  0  0  0
   -0.9669   -2.1958    4.3777 H   0  0  0  0  0  0  0  0  0  0  0  0
   -0.1736   -4.0589    5.8135 H   0  0  0  0  0  0  0  0  0  0  0  0
    1.2888   -3.5981    7.7599 H   0  0  0  0  0  0  0  0  0  0  0  0
    1.9831   -1.2642    8.3092 H   0  0  0  0  0  0  0  0  0  0  0  0
    2.4383    0.9845    8.4625 H   0  0  0  0  0  0  0  0  0  0  0  0
    1.9557    2.5518    7.8304 H   0  0  0  0  0  0  0  0  0  0  0  0
    3.1288    1.5978    6.9525 H   0  0  0  0  0  0  0  0  0  0  0  0
   -0.2205    2.3480    6.1634 H   0  0  0  0  0  0  0  0  0  0  0  0
  1  2  1  0
  1 26  1  0
  1 27  1  0
  1 28  1  0
  2 12  1  0
  2  3  1  0
  3  4  1  0
  3 29  1  0
  3 30  1  0
  4 16  1  0
  4  5  1  6
  4  6  1  0
  5 31  1  0
  6 25  1  0
  6  7  1  0
  6 32  1  1
  7  8  2  0
  7 33  1  0
  8  9  1  0
  8 34  1  0
  9 10  1  0
  9 11  1  0
  9 35  1  6
 10 36  1  0
 11 16  1  0
 11 12  1  0
 11 37  1  6
 12 13  1  0
 12 38  1  6
 14 13  1  6
 13 39  1  0
 13 40  1  0
 14 25  1  0
 14 15  1  0
 14 17  1  0
 15 16  1  0
 16 41  1  6
 17 22  2  0
 17 18  1  0
 18 19  2  0
 18 42  1  0
 19 20  1  0
 19 43  1  0
 20 21  2  0
 20 44  1  0
 21 22  1  0
 21 45  1  0
 22 23  1  0
 23 24  1  0
 23 25  1  0
 24 46  1  0
 24 47  1  0
 24 48  1  0
 25 49  1  1
M  END
>  <i_m_ct_stereo_status>  (241) 
1

>  <s_m_source_file>  (241) 
/var/tmp/pbs.5076255.sched01/tmpz7l6rxva/92z_h6r8yo.sdf

>  <i_m_source_file_index>  (241) 
6

>  <i_lp_mmshare_version>  (241) 
48012

>  <i_f3d_flags>  (241) 
0

>  <s_epik_input>  (241) 
W0NIM11OKFtDSDJdMSlbQ0BIXShbQ0gyXTIpW0NASF0oW0NASF0oW09IXSlbQ0hdPVtDSF0zKVtDQEhdKE80KVtDQF0xKFtPSF0pW0NASF0zW0NAQEhdNU4oW0NIM10pYyhjNltDQF0yNDUpW2NIXVtjSF1bY0hdW2NIXTY=

>  <s_epik_cmdline>  (241) 
J2VwaWtfcHl0aG9uJywgJy1waHQnLCAnMi4wJywgJy1waCcsICc3LjAnLCAnLXRuJywgJzgnLCAnLW1hJywgJzIwMCcsICctaW1hZScsICc8aW5maWxlLm1hZT4nLCAnLW9tYWUnLCAnPG91dGZpbGUubWFlPic=

>  <r_epik_Ionization_Penalty>  (241) 
1.1126

>  <r_epik_Ionization_Penalty_Charging>  (241) 
0

>  <r_epik_Ionization_Penalty_Neutral>  (241) 
1.1126

>  <r_epik_State_Penalty>  (241) 
1.16896

>  <r_epik_Charging_Adjusted_Penalty>  (241) 
1.16896

>  <i_epik_Tot_Q>  (241) 
0

>  <i_epik_Tot_abs_Q>  (241) 
0

>  <s_lp_Force_Field>  (241) 
OPLS3e

>  <r_lp_Energy>  (241) 
333.174

>  <b_lp_Chiralities_Consistent>  (241) 
1

>  <s_lp_Variant>  (241) 
65:0-2

>  <s_i_glide_gridfile>  (241) 
pfpi4k_grid

>  <i_i_glide_lignum>  (241) 
6

>  <i_i_glide_rotatable_bonds>  (241) 
2

>  <r_i_docking_score>  (241) 
-3.34258

>  <r_i_glide_ligand_efficiency>  (241) 
-0.133703

>  <r_i_glide_ligand_efficiency_sa>  (241) 
-0.390951

>  <r_i_glide_ligand_efficiency_ln>  (241) 
-0.792293

>  <r_i_glide_gscore>  (241) 
-3.34258

>  <r_i_glide_lipo>  (241) 
-0.00680643

>  <r_i_glide_hbond>  (241) 
-0.152

>  <r_i_glide_metal>  (241) 
-0

>  <r_i_glide_rewards>  (241) 
-1.08807

>  <r_i_glide_evdw>  (241) 
-17.7109

>  <r_i_glide_ecoul>  (241) 
-8.06773

>  <r_i_glide_erotb>  (241) 
0

>  <r_i_glide_esite>  (241) 
0

>  <r_i_glide_emodel>  (241) 
-31.5299

>  <r_i_glide_energy>  (241) 
-25.7787

>  <r_i_glide_einternal>  (241) 
0.744294

>  <r_i_glide_intrahb_reward>  (241) 
-0

>  <i_i_glide_confnum>  (241) 
2

>  <i_i_glide_posenum>  (241) 
36

>  <r_i_glide_eff_state_penalty>  (241) 
0

>  <ligand_id>  (241) 
65

>  <original_smiles>  (241) 
CN1CC2(O)C3C=CC(O)C4C1CC1(OC42)c2ccccc2N(C)C31

>  <smiles>  (241) 
[H]OC1([H])C([H])=C([H])C2([H])C3([H])N(C([H])([H])[H])c4c([H])c([H])c([H])c([H])c4C34OC3([H])C1([H])C([H])(N(C([H])([H])[H])C([H])([H])C32O[H])C4([H])[H]

$$$$
65:1:1
     RDKit          3D

 49 54  0  0  1  0  0  0  0  0999 V2000
    2.6999   -3.8278   -3.8070 C   0  0  0  0  0  0  0  0  0  0  0  0
    3.7368   -3.0666   -3.1244 N   0  0  0  0  0  0  0  0  0  0  0  0
    3.1751   -1.8940   -2.4047 C   0  0  0  0  0  0  0  0  0  0  0  0
    4.3063   -1.1341   -1.6506 C   0  0  1  0  0  0  0  0  0  0  0  0
    4.6173   -0.1160   -2.5837 O   0  0  0  0  0  0  0  0  0  0  0  0
    4.4594   -0.7097   -0.0988 C   0  0  2  0  0  0  0  0  0  0  0  0
    6.0079   -0.7153    0.5583 C   0  0  0  0  0  0  0  0  0  0  0  0
    7.1295   -1.5570    0.2812 C   0  0  0  0  0  0  0  0  0  0  0  0
    7.2840   -2.8231   -0.8267 C   0  0  1  0  0  0  0  0  0  0  0  0
    7.6325   -4.0005   -0.1360 O   0  0  0  0  0  0  0  0  0  0  0  0
    6.0568   -3.1187   -2.0093 C   0  0  1  0  0  0  0  0  0  0  0  0
    4.6035   -3.8767   -2.2032 C   0  0  1  0  0  0  0  0  0  0  0  0
    3.7244   -4.2220   -0.8923 C   0  0  0  0  0  0  0  0  0  0  0  0
    3.8937   -3.2504    0.3211 C   0  0  2  0  0  0  0  0  0  0  0  0
    5.1300   -2.9793   -0.0909 O   0  0  0  0  0  0  0  0  0  0  0  0
    5.3354   -2.1366   -1.3627 C   0  0  2  0  0  0  0  0  0  0  0  0
    3.9243   -3.8286    1.7046 C   0  0  0  0  0  0  0  0  0  0  0  0
    4.3342   -5.1209    2.0948 C   0  0  0  0  0  0  0  0  0  0  0  0
    4.3834   -5.4092    3.4675 C   0  0  0  0  0  0  0  0  0  0  0  0
    4.0376   -4.4296    4.4194 C   0  0  0  0  0  0  0  0  0  0  0  0
    3.6465   -3.1307    4.0196 C   0  0  0  0  0  0  0  0  0  0  0  0
    3.6136   -2.8409    2.6403 C   0  0  0  0  0  0  0  0  0  0  0  0
    3.3294   -1.6172    2.0239 N   0  0  0  0  0  0  0  0  0  0  0  0
    3.2404   -0.3280    2.6936 C   0  0  0  0  0  0  0  0  0  0  0  0
    3.4637   -1.7594    0.5742 C   0  0  1  0  0  0  0  0  0  0  0  0
    2.2046   -3.2054   -4.5559 H   0  0  0  0  0  0  0  0  0  0  0  0
    1.9330   -4.1732   -3.1096 H   0  0  0  0  0  0  0  0  0  0  0  0
    3.1398   -4.6785   -4.3035 H   0  0  0  0  0  0  0  0  0  0  0  0
    2.7155   -1.2357   -3.1431 H   0  0  0  0  0  0  0  0  0  0  0  0
    2.3565   -2.2122   -1.7648 H   0  0  0  0  0  0  0  0  0  0  0  0
    3.9489    0.5551   -2.4956 H   0  0  0  0  0  0  0  0  0  0  0  0
    4.0720    0.2917    0.0761 H   0  0  0  0  0  0  0  0  0  0  0  0
    6.1425    0.0168    1.3358 H   0  0  0  0  0  0  0  0  0  0  0  0
    8.0246   -1.3785    0.8547 H   0  0  0  0  0  0  0  0  0  0  0  0
    8.1760   -2.5720   -1.3978 H   0  0  0  0  0  0  0  0  0  0  0  0
    6.8394   -4.3005    0.2924 H   0  0  0  0  0  0  0  0  0  0  0  0
    6.4134   -2.8121   -2.9941 H   0  0  0  0  0  0  0  0  0  0  0  0
    4.8482   -4.8150   -2.6938 H   0  0  0  0  0  0  0  0  0  0  0  0
    2.6641   -4.3364   -1.0968 H   0  0  0  0  0  0  0  0  0  0  0  0
    4.0551   -5.2110   -0.5858 H   0  0  0  0  0  0  0  0  0  0  0  0
    6.0712   -1.3739   -1.6901 H   0  0  0  0  0  0  0  0  0  0  0  0
    4.6347   -5.8609    1.3724 H   0  0  0  0  0  0  0  0  0  0  0  0
    4.6883   -6.3962    3.7967 H   0  0  0  0  0  0  0  0  0  0  0  0
    4.0798   -4.6715    5.4701 H   0  0  0  0  0  0  0  0  0  0  0  0
    3.4078   -2.3743    4.7528 H   0  0  0  0  0  0  0  0  0  0  0  0
    2.8905   -0.3883    3.7209 H   0  0  0  0  0  0  0  0  0  0  0  0
    2.5543    0.3155    2.1410 H   0  0  0  0  0  0  0  0  0  0  0  0
    4.2150    0.1544    2.6744 H   0  0  0  0  0  0  0  0  0  0  0  0
    2.4628   -1.6251    0.1928 H   0  0  0  0  0  0  0  0  0  0  0  0
  1  2  1  0
  1 26  1  0
  1 27  1  0
  1 28  1  0
  2 12  1  0
  2  3  1  0
  3  4  1  0
  3 29  1  0
  3 30  1  0
  4 16  1  0
  4  5  1  6
  4  6  1  0
  5 31  1  0
  6 25  1  0
  6  7  1  0
  6 32  1  6
  7  8  2  0
  7 33  1  0
  8  9  1  0
  8 34  1  0
  9 10  1  0
  9 11  1  0
  9 35  1  6
 10 36  1  0
 11 16  1  0
 11 12  1  0
 11 37  1  6
 12 13  1  0
 12 38  1  6
 14 13  1  6
 13 39  1  0
 13 40  1  0
 14 25  1  0
 14 15  1  0
 14 17  1  0
 15 16  1  0
 16 41  1  1
 17 22  2  0
 17 18  1  0
 18 19  2  0
 18 42  1  0
 19 20  1  0
 19 43  1  0
 20 21  2  0
 20 44  1  0
 21 22  1  0
 21 45  1  0
 22 23  1  0
 23 24  1  0
 23 25  1  0
 24 46  1  0
 24 47  1  0
 24 48  1  0
 25 49  1  6
M  END
>  <i_m_ct_stereo_status>  (242) 
1

>  <s_m_source_file>  (242) 
/var/tmp/pbs.5076255.sched01/tmpz7l6rxva/92z_h6r8yo.sdf

>  <i_m_source_file_index>  (242) 
6

>  <i_lp_mmshare_version>  (242) 
48012

>  <i_f3d_flags>  (242) 
0

>  <s_epik_input>  (242) 
W0NIM11OKFtDSDJdMSlbQ0BIXShbQ0gyXTIpW0NASF0oW0NASF0oW09IXSlbQ0hdPVtDSF0zKVtDQEhdKE80KVtDQF0xKFtPSF0pW0NASF0zW0NAQEhdNU4oW0NIM10pYyhjNltDQF0yNDUpW2NIXVtjSF1bY0hdW2NIXTY=

>  <s_epik_cmdline>  (242) 
J2VwaWtfcHl0aG9uJywgJy1waHQnLCAnMi4wJywgJy1waCcsICc3LjAnLCAnLXRuJywgJzgnLCAnLW1hJywgJzIwMCcsICctaW1hZScsICc8aW5maWxlLm1hZT4nLCAnLW9tYWUnLCAnPG91dGZpbGUubWFlPic=

>  <r_epik_Ionization_Penalty>  (242) 
1.1126

>  <r_epik_Ionization_Penalty_Charging>  (242) 
0

>  <r_epik_Ionization_Penalty_Neutral>  (242) 
1.1126

>  <r_epik_State_Penalty>  (242) 
1.16896

>  <r_epik_Charging_Adjusted_Penalty>  (242) 
1.16896

>  <i_epik_Tot_Q>  (242) 
0

>  <i_epik_Tot_abs_Q>  (242) 
0

>  <s_lp_Force_Field>  (242) 
OPLS3e

>  <r_lp_Energy>  (242) 
333.174

>  <b_lp_Chiralities_Consistent>  (242) 
1

>  <s_lp_Variant>  (242) 
65:0-2

>  <s_i_glide_gridfile>  (242) 
pfpi4k_grid

>  <i_i_glide_lignum>  (242) 
6

>  <i_i_glide_rotatable_bonds>  (242) 
2

>  <r_i_docking_score>  (242) 
-3.01379

>  <r_i_glide_ligand_efficiency>  (242) 
-0.120552

>  <r_i_glide_ligand_efficiency_sa>  (242) 
-0.352495

>  <r_i_glide_ligand_efficiency_ln>  (242) 
-0.71436

>  <r_i_glide_gscore>  (242) 
-3.01379

>  <r_i_glide_lipo>  (242) 
-0.349799

>  <r_i_glide_hbond>  (242) 
0

>  <r_i_glide_metal>  (242) 
-0

>  <r_i_glide_rewards>  (242) 
-1.08807

>  <r_i_glide_evdw>  (242) 
-18.7564

>  <r_i_glide_ecoul>  (242) 
-4.18566

>  <r_i_glide_erotb>  (242) 
0

>  <r_i_glide_esite>  (242) 
-0.0102558

>  <r_i_glide_emodel>  (242) 
-27.6232

>  <r_i_glide_energy>  (242) 
-22.942

>  <r_i_glide_einternal>  (242) 
0.042573

>  <r_i_glide_intrahb_reward>  (242) 
-0

>  <i_i_glide_confnum>  (242) 
2

>  <i_i_glide_posenum>  (242) 
7

>  <r_i_glide_eff_state_penalty>  (242) 
0

>  <ligand_id>  (242) 
65

>  <original_smiles>  (242) 
CN1CC2(O)C3C=CC(O)C4C1CC1(OC42)c2ccccc2N(C)C31

>  <smiles>  (242) 
[H]OC1([H])C([H])=C([H])C2([H])C3([H])N(C([H])([H])[H])c4c([H])c([H])c([H])c([H])c4C34OC3([H])C1([H])C([H])(N(C([H])([H])[H])C([H])([H])C32O[H])C4([H])[H]

$$$$
65:1:2
     RDKit          3D

 49 54  0  0  1  0  0  0  0  0999 V2000
    4.5462   -3.4459    0.1903 C   0  0  0  0  0  0  0  0  0  0  0  0
    4.8309   -4.6356    0.9885 N   0  0  0  0  0  0  0  0  0  0  0  0
    4.7165   -4.3962    2.4641 C   0  0  0  0  0  0  0  0  0  0  0  0
    4.9704   -5.7075    3.3022 C   0  0  1  0  0  0  0  0  0  0  0  0
    6.2796   -5.6296    3.8586 O   0  0  0  0  0  0  0  0  0  0  0  0
    4.0467   -6.4802    4.3600 C   0  0  2  0  0  0  0  0  0  0  0  0
    4.1655   -8.1605    4.3760 C   0  0  0  0  0  0  0  0  0  0  0  0
    4.3817   -9.0881    3.3037 C   0  0  0  0  0  0  0  0  0  0  0  0
    4.6270   -8.8006    1.6530 C   0  0  1  0  0  0  0  0  0  0  0  0
    3.6541   -9.4567    0.8633 O   0  0  0  0  0  0  0  0  0  0  0  0
    4.8915   -7.1962    1.0714 C   0  0  1  0  0  0  0  0  0  0  0  0
    4.0616   -5.8523    0.5837 C   0  0  1  0  0  0  0  0  0  0  0  0
    2.5493   -5.6374    1.0899 C   0  0  0  0  0  0  0  0  0  0  0  0
    2.2055   -6.2576    2.4878 C   0  0  2  0  0  0  0  0  0  0  0  0
    3.1485   -7.1864    2.3007 O   0  0  0  0  0  0  0  0  0  0  0  0
    4.6299   -6.7879    2.3670 C   0  0  2  0  0  0  0  0  0  0  0  0
    0.8624   -6.9067    2.6635 C   0  0  0  0  0  0  0  0  0  0  0  0
    0.0599   -7.5058    1.6801 C   0  0  0  0  0  0  0  0  0  0  0  0
   -1.1087   -8.1764    2.0904 C   0  0  0  0  0  0  0  0  0  0  0  0
   -1.4625   -8.2288    3.4563 C   0  0  0  0  0  0  0  0  0  0  0  0
   -0.6372   -7.6348    4.4353 C   0  0  0  0  0  0  0  0  0  0  0  0
    0.5456   -6.9814    4.0221 C   0  0  0  0  0  0  0  0  0  0  0  0
    1.5278   -6.3853    4.8166 N   0  0  0  0  0  0  0  0  0  0  0  0
    1.6574   -6.5636    6.2553 C   0  0  0  0  0  0  0  0  0  0  0  0
    2.6154   -5.8961    3.9649 C   0  0  1  0  0  0  0  0  0  0  0  0
    5.2456   -2.6525    0.4462 H   0  0  0  0  0  0  0  0  0  0  0  0
    3.5399   -3.0633    0.3611 H   0  0  0  0  0  0  0  0  0  0  0  0
    4.6561   -3.6465   -0.8794 H   0  0  0  0  0  0  0  0  0  0  0  0
    5.4432   -3.6348    2.7471 H   0  0  0  0  0  0  0  0  0  0  0  0
    3.7519   -3.9409    2.6810 H   0  0  0  0  0  0  0  0  0  0  0  0
    6.8876   -5.5076    3.1481 H   0  0  0  0  0  0  0  0  0  0  0  0
    4.2977   -6.1342    5.3624 H   0  0  0  0  0  0  0  0  0  0  0  0
    4.0199   -8.5832    5.3597 H   0  0  0  0  0  0  0  0  0  0  0  0
    4.3987  -10.1339    3.5677 H   0  0  0  0  0  0  0  0  0  0  0  0
    5.5525   -9.3328    1.4386 H   0  0  0  0  0  0  0  0  0  0  0  0
    3.8141  -10.4051    0.8690 H   0  0  0  0  0  0  0  0  0  0  0  0
    5.9390   -7.0733    0.7965 H   0  0  0  0  0  0  0  0  0  0  0  0
    4.0428   -5.8950   -0.5018 H   0  0  0  0  0  0  0  0  0  0  0  0
    2.2279   -4.6002    1.0760 H   0  0  0  0  0  0  0  0  0  0  0  0
    1.9354   -6.1234    0.3367 H   0  0  0  0  0  0  0  0  0  0  0  0
    5.5685   -7.2774    2.7042 H   0  0  0  0  0  0  0  0  0  0  0  0
    0.3431   -7.5257    0.6439 H   0  0  0  0  0  0  0  0  0  0  0  0
   -1.7318   -8.6704    1.3600 H   0  0  0  0  0  0  0  0  0  0  0  0
   -2.3594   -8.7522    3.7522 H   0  0  0  0  0  0  0  0  0  0  0  0
   -0.8928   -7.7140    5.4813 H   0  0  0  0  0  0  0  0  0  0  0  0
    0.7083   -6.7005    6.7689 H   0  0  0  0  0  0  0  0  0  0  0  0
    2.1417   -5.6811    6.6719 H   0  0  0  0  0  0  0  0  0  0  0  0
    2.3037   -7.4124    6.4654 H   0  0  0  0  0  0  0  0  0  0  0  0
    2.5970   -4.8156    4.0932 H   0  0  0  0  0  0  0  0  0  0  0  0
  1  2  1  0
  1 26  1  0
  1 27  1  0
  1 28  1  0
  2 12  1  0
  2  3  1  0
  3  4  1  0
  3 29  1  0
  3 30  1  0
  4 16  1  0
  4  5  1  1
  4  6  1  0
  5 31  1  0
  6 25  1  0
  6  7  1  0
  6 32  1  1
  7  8  2  0
  7 33  1  0
  8  9  1  0
  8 34  1  0
  9 10  1  0
  9 11  1  0
  9 35  1  6
 10 36  1  0
 11 16  1  0
 11 12  1  0
 11 37  1  1
 12 13  1  0
 12 38  1  6
 14 13  1  6
 13 39  1  0
 13 40  1  0
 14 25  1  0
 14 15  1  0
 14 17  1  0
 15 16  1  0
 16 41  1  1
 17 22  2  0
 17 18  1  0
 18 19  2  0
 18 42  1  0
 19 20  1  0
 19 43  1  0
 20 21  2  0
 20 44  1  0
 21 22  1  0
 21 45  1  0
 22 23  1  0
 23 24  1  0
 23 25  1  0
 24 46  1  0
 24 47  1  0
 24 48  1  0
 25 49  1  6
M  END
>  <i_m_ct_stereo_status>  (243) 
1

>  <s_m_source_file>  (243) 
/var/tmp/pbs.5076255.sched01/tmpz7l6rxva/92z_h6r8yo.sdf

>  <i_m_source_file_index>  (243) 
6

>  <i_lp_mmshare_version>  (243) 
48012

>  <i_f3d_flags>  (243) 
0

>  <s_epik_input>  (243) 
W0NIM11OKFtDSDJdMSlbQ0BIXShbQ0gyXTIpW0NASF0oW0NASF0oW09IXSlbQ0hdPVtDSF0zKVtDQEhdKE80KVtDQF0xKFtPSF0pW0NASF0zW0NAQEhdNU4oW0NIM10pYyhjNltDQF0yNDUpW2NIXVtjSF1bY0hdW2NIXTY=

>  <s_epik_cmdline>  (243) 
J2VwaWtfcHl0aG9uJywgJy1waHQnLCAnMi4wJywgJy1waCcsICc3LjAnLCAnLXRuJywgJzgnLCAnLW1hJywgJzIwMCcsICctaW1hZScsICc8aW5maWxlLm1hZT4nLCAnLW9tYWUnLCAnPG91dGZpbGUubWFlPic=

>  <r_epik_Ionization_Penalty>  (243) 
1.1126

>  <r_epik_Ionization_Penalty_Charging>  (243) 
0

>  <r_epik_Ionization_Penalty_Neutral>  (243) 
1.1126

>  <r_epik_State_Penalty>  (243) 
1.16896

>  <r_epik_Charging_Adjusted_Penalty>  (243) 
1.16896

>  <i_epik_Tot_Q>  (243) 
0

>  <i_epik_Tot_abs_Q>  (243) 
0

>  <s_lp_Force_Field>  (243) 
OPLS3e

>  <r_lp_Energy>  (243) 
333.174

>  <b_lp_Chiralities_Consistent>  (243) 
1

>  <s_lp_Variant>  (243) 
65:0-2

>  <s_i_glide_gridfile>  (243) 
pfpi4k_grid

>  <i_i_glide_lignum>  (243) 
6

>  <i_i_glide_rotatable_bonds>  (243) 
2

>  <r_i_docking_score>  (243) 
-2.88279

>  <r_i_glide_ligand_efficiency>  (243) 
-0.115312

>  <r_i_glide_ligand_efficiency_sa>  (243) 
-0.337173

>  <r_i_glide_ligand_efficiency_ln>  (243) 
-0.683308

>  <r_i_glide_gscore>  (243) 
-2.88279

>  <r_i_glide_lipo>  (243) 
-0.207782

>  <r_i_glide_hbond>  (243) 
0

>  <r_i_glide_metal>  (243) 
-0

>  <r_i_glide_rewards>  (243) 
-1.08807

>  <r_i_glide_evdw>  (243) 
-19.8165

>  <r_i_glide_ecoul>  (243) 
-3.95665

>  <r_i_glide_erotb>  (243) 
0

>  <r_i_glide_esite>  (243) 
-0.00261342

>  <r_i_glide_emodel>  (243) 
-28.7549

>  <r_i_glide_energy>  (243) 
-23.7732

>  <r_i_glide_einternal>  (243) 
0.657212

>  <r_i_glide_intrahb_reward>  (243) 
-0

>  <i_i_glide_confnum>  (243) 
2

>  <i_i_glide_posenum>  (243) 
2

>  <r_i_glide_eff_state_penalty>  (243) 
0

>  <ligand_id>  (243) 
65

>  <original_smiles>  (243) 
CN1CC2(O)C3C=CC(O)C4C1CC1(OC42)c2ccccc2N(C)C31

>  <smiles>  (243) 
[H]OC1([H])C([H])=C([H])C2([H])C3([H])N(C([H])([H])[H])c4c([H])c([H])c([H])c([H])c4C34OC3([H])C1([H])C([H])(N(C([H])([H])[H])C([H])([H])C32O[H])C4([H])[H]

$$$$
67:0:0
     RDKit          3D

 27 29  0  0  1  0  0  0  0  0999 V2000
   -3.9044  -10.6219   -5.5119 O   0  0  0  0  0  0  0  0  0  0  0  0
   -4.8408   -9.7547   -5.9468 C   0  0  0  0  0  0  0  0  0  0  0  0
   -5.0645   -8.5553   -5.3388 N   0  0  0  0  0  0  0  0  0  0  0  0
   -6.0726   -8.0634   -6.0904 C   0  0  0  0  0  0  0  0  0  0  0  0
   -6.6867   -6.7601   -5.7066 C   0  0  0  0  0  0  0  0  0  0  0  0
   -6.1189   -5.9315   -4.7018 C   0  0  0  0  0  0  0  0  0  0  0  0
   -6.7474   -4.6940   -4.4058 C   0  0  0  0  0  0  0  0  0  0  0  0
   -7.7933   -4.1742   -5.0869 N   0  0  0  0  0  0  0  0  0  0  0  0
   -8.3346   -4.9671   -6.0315 C   0  0  0  0  0  0  0  0  0  0  0  0
   -7.8846   -6.2680   -6.2630 C   0  0  0  0  0  0  0  0  0  0  0  0
   -6.3305   -8.9283   -7.1205 N   0  0  0  0  0  0  0  0  0  0  0  0
   -7.2420   -8.8044   -8.2279 C   0  0  0  0  0  0  0  0  0  0  0  0
   -7.5405   -7.5504   -8.8164 C   0  0  0  0  0  0  0  0  0  0  0  0
   -8.5775   -7.4287   -9.7551 C   0  0  0  0  0  0  0  0  0  0  0  0
   -9.1005   -8.6031  -10.2826 C   0  0  0  0  0  0  0  0  0  0  0  0
   -8.6202   -9.8365   -9.7854 C   0  0  0  0  0  0  0  0  0  0  0  0
   -7.7815   -9.9265   -8.7341 N   0  0  0  0  0  0  0  0  0  0  0  0
   -5.5660  -10.0379   -7.0023 N   0  0  0  0  0  0  0  0  0  0  0  0
   -5.2774   -6.2714   -4.1097 H   0  0  0  0  0  0  0  0  0  0  0  0
   -6.3892   -4.0812   -3.6152 H   0  0  0  0  0  0  0  0  0  0  0  0
   -9.1829   -4.6256   -6.6223 H   0  0  0  0  0  0  0  0  0  0  0  0
   -8.5444   -6.8428   -6.8813 H   0  0  0  0  0  0  0  0  0  0  0  0
   -7.0847   -6.6305   -8.4974 H   0  0  0  0  0  0  0  0  0  0  0  0
   -8.9420   -6.4458  -10.0267 H   0  0  0  0  0  0  0  0  0  0  0  0
   -9.8098   -8.5526  -11.1017 H   0  0  0  0  0  0  0  0  0  0  0  0
   -8.9500  -10.7582  -10.2284 H   0  0  0  0  0  0  0  0  0  0  0  0
   -3.7851  -10.5577   -4.5760 H   0  0  0  0  0  0  0  0  0  0  0  0
  1  2  1  0
  1 27  1  0
  2 18  2  0
  2  3  1  0
  3  4  2  0
  4  5  1  0
  4 11  1  0
  5 10  1  0
  5  6  2  0
  6  7  1  0
  6 19  1  0
  7  8  2  0
  7 20  1  0
  8  9  1  0
  9 10  2  0
  9 21  1  0
 10 22  1  0
 11 12  1  0
 11 18  1  0
 12 17  1  0
 12 13  2  0
 13 14  1  0
 13 23  1  0
 14 15  2  0
 14 24  1  0
 15 16  1  0
 15 25  1  0
 16 17  2  0
 16 26  1  0
M  END
>  <i_m_ct_stereo_status>  (244) 
1

>  <s_m_source_file>  (244) 
/var/tmp/pbs.5076255.sched01/tmpz7l6rxva/92z_h6r8yo.sdf

>  <i_m_source_file_index>  (244) 
8

>  <i_lp_mmshare_version>  (244) 
48012

>  <i_f3d_flags>  (244) 
0

>  <s_epik_input>  (244) 
W2NIXTFbY0hdbltjSF1bY0hdYzEtYyhuYzI9TyluKFtuSF0yKS1jM1tjSF1bY0hdW2NIXVtjSF1uMw==

>  <s_epik_cmdline>  (244) 
J2VwaWtfcHl0aG9uJywgJy1waHQnLCAnMi4wJywgJy1waCcsICc3LjAnLCAnLXRuJywgJzgnLCAnLW1hJywgJzIwMCcsICctaW1hZScsICc8aW5maWxlLm1hZT4nLCAnLW9tYWUnLCAnPG91dGZpbGUubWFlPic=

>  <r_lp_tautomer_probability>  (244) 
1

>  <r_epik_Ionization_Penalty>  (244) 
9.90917

>  <r_epik_Ionization_Penalty_Charging>  (244) 
0

>  <r_epik_Ionization_Penalty_Neutral>  (244) 
9.90917

>  <r_epik_State_Penalty>  (244) 
-0

>  <r_epik_Charging_Adjusted_Penalty>  (244) 
0

>  <i_epik_Tot_Q>  (244) 
0

>  <i_epik_Tot_abs_Q>  (244) 
0

>  <s_lp_Force_Field>  (244) 
OPLS3e

>  <r_lp_Energy>  (244) 
33.0005

>  <b_lp_Chiralities_Consistent>  (244) 
1

>  <s_lp_Variant>  (244) 
67:0-1

>  <s_i_glide_gridfile>  (244) 
pfpi4k_grid

>  <i_i_glide_lignum>  (244) 
8

>  <i_i_glide_rotatable_bonds>  (244) 
3

>  <r_i_docking_score>  (244) 
-6.56715

>  <r_i_glide_ligand_efficiency>  (244) 
-0.364841

>  <r_i_glide_ligand_efficiency_sa>  (244) 
-0.956155

>  <r_i_glide_ligand_efficiency_ln>  (244) 
-1.68805

>  <r_i_glide_gscore>  (244) 
-6.56715

>  <r_i_glide_lipo>  (244) 
-1.97111

>  <r_i_glide_hbond>  (244) 
-0.299949

>  <r_i_glide_metal>  (244) 
-0

>  <r_i_glide_rewards>  (244) 
-3.12378

>  <r_i_glide_evdw>  (244) 
-30.2075

>  <r_i_glide_ecoul>  (244) 
-2.36164

>  <r_i_glide_erotb>  (244) 
0.603778

>  <r_i_glide_esite>  (244) 
0

>  <r_i_glide_emodel>  (244) 
-41.1325

>  <r_i_glide_energy>  (244) 
-32.5692

>  <r_i_glide_einternal>  (244) 
1.775

>  <r_i_glide_intrahb_reward>  (244) 
-0

>  <i_i_glide_confnum>  (244) 
1

>  <i_i_glide_posenum>  (244) 
38

>  <r_i_glide_eff_state_penalty>  (244) 
0

>  <ligand_id>  (244) 
67

>  <original_smiles>  (244) 
O=c1nc(-c2ccncc2)n(-c2ccccn2)[nH]1

>  <smiles>  (244) 
[H]Oc1nc(-c2c([H])c([H])nc([H])c2[H])n(-c2nc([H])c([H])c([H])c2[H])n1

$$$$
67:0:1
     RDKit          3D

 27 29  0  0  1  0  0  0  0  0999 V2000
   -3.8227  -10.6446   -5.5120 O   0  0  0  0  0  0  0  0  0  0  0  0
   -4.9292   -9.8843   -5.8041 C   0  0  0  0  0  0  0  0  0  0  0  0
   -4.9892   -8.5686   -5.4856 N   0  0  0  0  0  0  0  0  0  0  0  0
   -6.2372   -8.2732   -5.9559 C   0  0  0  0  0  0  0  0  0  0  0  0
   -6.7300   -6.8701   -5.7565 C   0  0  0  0  0  0  0  0  0  0  0  0
   -7.6540   -6.2495   -6.6370 C   0  0  0  0  0  0  0  0  0  0  0  0
   -8.1845   -4.9918   -6.4428 C   0  0  0  0  0  0  0  0  0  0  0  0
   -7.7670   -4.1964   -5.4555 N   0  0  0  0  0  0  0  0  0  0  0  0
   -6.8153   -4.7050   -4.6470 C   0  0  0  0  0  0  0  0  0  0  0  0
   -6.2835   -6.0172   -4.7342 C   0  0  0  0  0  0  0  0  0  0  0  0
   -6.7862   -9.3723   -6.5019 N   0  0  0  0  0  0  0  0  0  0  0  0
   -8.0721   -9.5296   -7.1735 C   0  0  0  0  0  0  0  0  0  0  0  0
   -8.8245  -10.6938   -7.0277 C   0  0  0  0  0  0  0  0  0  0  0  0
  -10.0655  -10.7879   -7.7307 C   0  0  0  0  0  0  0  0  0  0  0  0
  -10.5439   -9.6769   -8.4729 C   0  0  0  0  0  0  0  0  0  0  0  0
   -9.6988   -8.5788   -8.5718 C   0  0  0  0  0  0  0  0  0  0  0  0
   -8.4357   -8.5933   -8.0843 N   0  0  0  0  0  0  0  0  0  0  0  0
   -5.9568  -10.4441   -6.3959 N   0  0  0  0  0  0  0  0  0  0  0  0
   -7.9549   -6.5768   -7.5845 H   0  0  0  0  0  0  0  0  0  0  0  0
   -8.9110   -4.6670   -7.1829 H   0  0  0  0  0  0  0  0  0  0  0  0
   -6.4922   -4.0217   -3.8866 H   0  0  0  0  0  0  0  0  0  0  0  0
   -5.5207   -6.3380   -4.0226 H   0  0  0  0  0  0  0  0  0  0  0  0
   -8.4475  -11.5383   -6.4561 H   0  0  0  0  0  0  0  0  0  0  0  0
  -10.6537  -11.6875   -7.6906 H   0  0  0  0  0  0  0  0  0  0  0  0
  -11.4884   -9.6772   -9.0075 H   0  0  0  0  0  0  0  0  0  0  0  0
   -9.9779   -7.6572   -9.0703 H   0  0  0  0  0  0  0  0  0  0  0  0
   -3.7246  -10.7345   -4.5793 H   0  0  0  0  0  0  0  0  0  0  0  0
  1  2  1  0
  1 27  1  0
  2 18  2  0
  2  3  1  0
  3  4  2  0
  4  5  1  0
  4 11  1  0
  5 10  1  0
  5  6  2  0
  6  7  1  0
  6 19  1  0
  7  8  2  0
  7 20  1  0
  8  9  1  0
  9 10  2  0
  9 21  1  0
 10 22  1  0
 11 12  1  0
 11 18  1  0
 12 17  1  0
 12 13  2  0
 13 14  1  0
 13 23  1  0
 14 15  2  0
 14 24  1  0
 15 16  1  0
 15 25  1  0
 16 17  2  0
 16 26  1  0
M  END
>  <i_m_ct_stereo_status>  (245) 
1

>  <s_m_source_file>  (245) 
/var/tmp/pbs.5076255.sched01/tmpz7l6rxva/92z_h6r8yo.sdf

>  <i_m_source_file_index>  (245) 
8

>  <i_lp_mmshare_version>  (245) 
48012

>  <i_f3d_flags>  (245) 
0

>  <s_epik_input>  (245) 
W2NIXTFbY0hdbltjSF1bY0hdYzEtYyhuYzI9TyluKFtuSF0yKS1jM1tjSF1bY0hdW2NIXVtjSF1uMw==

>  <s_epik_cmdline>  (245) 
J2VwaWtfcHl0aG9uJywgJy1waHQnLCAnMi4wJywgJy1waCcsICc3LjAnLCAnLXRuJywgJzgnLCAnLW1hJywgJzIwMCcsICctaW1hZScsICc8aW5maWxlLm1hZT4nLCAnLW9tYWUnLCAnPG91dGZpbGUubWFlPic=

>  <r_lp_tautomer_probability>  (245) 
1

>  <r_epik_Ionization_Penalty>  (245) 
9.90917

>  <r_epik_Ionization_Penalty_Charging>  (245) 
0

>  <r_epik_Ionization_Penalty_Neutral>  (245) 
9.90917

>  <r_epik_State_Penalty>  (245) 
-0

>  <r_epik_Charging_Adjusted_Penalty>  (245) 
0

>  <i_epik_Tot_Q>  (245) 
0

>  <i_epik_Tot_abs_Q>  (245) 
0

>  <s_lp_Force_Field>  (245) 
OPLS3e

>  <r_lp_Energy>  (245) 
33.0005

>  <b_lp_Chiralities_Consistent>  (245) 
1

>  <s_lp_Variant>  (245) 
67:0-1

>  <s_i_glide_gridfile>  (245) 
pfpi4k_grid

>  <i_i_glide_lignum>  (245) 
8

>  <i_i_glide_rotatable_bonds>  (245) 
3

>  <r_i_docking_score>  (245) 
-6.454

>  <r_i_glide_ligand_efficiency>  (245) 
-0.358556

>  <r_i_glide_ligand_efficiency_sa>  (245) 
-0.939682

>  <r_i_glide_ligand_efficiency_ln>  (245) 
-1.65897

>  <r_i_glide_gscore>  (245) 
-6.454

>  <r_i_glide_lipo>  (245) 
-1.61809

>  <r_i_glide_hbond>  (245) 
-0.311327

>  <r_i_glide_metal>  (245) 
-0

>  <r_i_glide_rewards>  (245) 
-3.09906

>  <r_i_glide_evdw>  (245) 
-30.7797

>  <r_i_glide_ecoul>  (245) 
-3.26882

>  <r_i_glide_erotb>  (245) 
0.603778

>  <r_i_glide_esite>  (245) 
0

>  <r_i_glide_emodel>  (245) 
-42.3601

>  <r_i_glide_energy>  (245) 
-34.0485

>  <r_i_glide_einternal>  (245) 
2.20734

>  <r_i_glide_intrahb_reward>  (245) 
-0

>  <i_i_glide_confnum>  (245) 
4

>  <i_i_glide_posenum>  (245) 
37

>  <r_i_glide_eff_state_penalty>  (245) 
0

>  <ligand_id>  (245) 
67

>  <original_smiles>  (245) 
O=c1nc(-c2ccncc2)n(-c2ccccn2)[nH]1

>  <smiles>  (245) 
[H]Oc1nc(-c2c([H])c([H])nc([H])c2[H])n(-c2nc([H])c([H])c([H])c2[H])n1

$$$$
67:0:2
     RDKit          3D

 27 29  0  0  1  0  0  0  0  0999 V2000
   -3.5305  -10.5195   -5.1521 O   0  0  0  0  0  0  0  0  0  0  0  0
   -4.5371   -9.7364   -5.5502 C   0  0  0  0  0  0  0  0  0  0  0  0
   -4.7538   -8.4845   -5.0693 N   0  0  0  0  0  0  0  0  0  0  0  0
   -5.8309   -8.1076   -5.7596 C   0  0  0  0  0  0  0  0  0  0  0  0
   -6.4277   -6.7771   -5.4943 C   0  0  0  0  0  0  0  0  0  0  0  0
   -7.3888   -6.1795   -6.2853 C   0  0  0  0  0  0  0  0  0  0  0  0
   -7.9894   -4.9618   -6.1236 C   0  0  0  0  0  0  0  0  0  0  0  0
   -7.6525   -4.2144   -5.0928 N   0  0  0  0  0  0  0  0  0  0  0  0
   -6.7091   -4.7056   -4.2569 C   0  0  0  0  0  0  0  0  0  0  0  0
   -6.0756   -5.9626   -4.4095 C   0  0  0  0  0  0  0  0  0  0  0  0
   -6.1978   -9.1146   -6.6316 N   0  0  0  0  0  0  0  0  0  0  0  0
   -7.2373   -9.1632   -7.6149 C   0  0  0  0  0  0  0  0  0  0  0  0
   -7.7424  -10.3651   -8.1060 C   0  0  0  0  0  0  0  0  0  0  0  0
   -8.7479  -10.3096   -9.0952 C   0  0  0  0  0  0  0  0  0  0  0  0
   -9.2765   -9.0783   -9.5265 C   0  0  0  0  0  0  0  0  0  0  0  0
   -8.7161   -7.9367   -9.0068 C   0  0  0  0  0  0  0  0  0  0  0  0
   -7.5924   -8.0888   -8.3043 N   0  0  0  0  0  0  0  0  0  0  0  0
   -5.3751  -10.1664   -6.4858 N   0  0  0  0  0  0  0  0  0  0  0  0
   -7.8086   -6.4935   -7.1100 H   0  0  0  0  0  0  0  0  0  0  0  0
   -8.7301   -4.6353   -6.8507 H   0  0  0  0  0  0  0  0  0  0  0  0
   -6.4569   -4.0735   -3.4351 H   0  0  0  0  0  0  0  0  0  0  0  0
   -5.3388   -6.2853   -3.7068 H   0  0  0  0  0  0  0  0  0  0  0  0
   -7.3285  -11.2906   -7.7662 H   0  0  0  0  0  0  0  0  0  0  0  0
   -9.1325  -11.2088   -9.5049 H   0  0  0  0  0  0  0  0  0  0  0  0
  -10.0424   -8.9842  -10.2647 H   0  0  0  0  0  0  0  0  0  0  0  0
   -9.0376   -6.9179   -9.2450 H   0  0  0  0  0  0  0  0  0  0  0  0
   -3.5455  -10.6053   -4.1763 H   0  0  0  0  0  0  0  0  0  0  0  0
  1  2  1  0
  1 27  1  0
  2 18  2  0
  2  3  1  0
  3  4  2  0
  4  5  1  0
  4 11  1  0
  5 10  1  0
  5  6  2  0
  6  7  1  0
  6 19  1  0
  7  8  2  0
  7 20  1  0
  8  9  1  0
  9 10  2  0
  9 21  1  0
 10 22  1  0
 11 12  1  0
 11 18  1  0
 12 17  1  0
 12 13  2  0
 13 14  1  0
 13 23  1  0
 14 15  2  0
 14 24  1  0
 15 16  1  0
 15 25  1  0
 16 17  2  0
 16 26  1  0
M  END
>  <i_m_ct_stereo_status>  (246) 
1

>  <s_m_source_file>  (246) 
/var/tmp/pbs.5076255.sched01/tmpz7l6rxva/92z_h6r8yo.sdf

>  <i_m_source_file_index>  (246) 
8

>  <i_lp_mmshare_version>  (246) 
48012

>  <i_f3d_flags>  (246) 
0

>  <s_epik_input>  (246) 
W2NIXTFbY0hdbltjSF1bY0hdYzEtYyhuYzI9TyluKFtuSF0yKS1jM1tjSF1bY0hdW2NIXVtjSF1uMw==

>  <s_epik_cmdline>  (246) 
J2VwaWtfcHl0aG9uJywgJy1waHQnLCAnMi4wJywgJy1waCcsICc3LjAnLCAnLXRuJywgJzgnLCAnLW1hJywgJzIwMCcsICctaW1hZScsICc8aW5maWxlLm1hZT4nLCAnLW9tYWUnLCAnPG91dGZpbGUubWFlPic=

>  <r_lp_tautomer_probability>  (246) 
1

>  <r_epik_Ionization_Penalty>  (246) 
9.90917

>  <r_epik_Ionization_Penalty_Charging>  (246) 
0

>  <r_epik_Ionization_Penalty_Neutral>  (246) 
9.90917

>  <r_epik_State_Penalty>  (246) 
-0

>  <r_epik_Charging_Adjusted_Penalty>  (246) 
0

>  <i_epik_Tot_Q>  (246) 
0

>  <i_epik_Tot_abs_Q>  (246) 
0

>  <s_lp_Force_Field>  (246) 
OPLS3e

>  <r_lp_Energy>  (246) 
33.0005

>  <b_lp_Chiralities_Consistent>  (246) 
1

>  <s_lp_Variant>  (246) 
67:0-1

>  <s_i_glide_gridfile>  (246) 
pfpi4k_grid

>  <i_i_glide_lignum>  (246) 
8

>  <i_i_glide_rotatable_bonds>  (246) 
3

>  <r_i_docking_score>  (246) 
-5.33728

>  <r_i_glide_ligand_efficiency>  (246) 
-0.296516

>  <r_i_glide_ligand_efficiency_sa>  (246) 
-0.77709

>  <r_i_glide_ligand_efficiency_ln>  (246) 
-1.37192

>  <r_i_glide_gscore>  (246) 
-5.33728

>  <r_i_glide_lipo>  (246) 
-1.72141

>  <r_i_glide_hbond>  (246) 
-0.32

>  <r_i_glide_metal>  (246) 
-0

>  <r_i_glide_rewards>  (246) 
-3.1071

>  <r_i_glide_evdw>  (246) 
-29.5149

>  <r_i_glide_ecoul>  (246) 
-4.20309

>  <r_i_glide_erotb>  (246) 
0.603778

>  <r_i_glide_esite>  (246) 
0

>  <r_i_glide_emodel>  (246) 
-37.2029

>  <r_i_glide_energy>  (246) 
-33.718

>  <r_i_glide_einternal>  (246) 
2.11123

>  <r_i_glide_intrahb_reward>  (246) 
-0

>  <i_i_glide_confnum>  (246) 
5

>  <i_i_glide_posenum>  (246) 
34

>  <r_i_glide_eff_state_penalty>  (246) 
0

>  <ligand_id>  (246) 
67

>  <original_smiles>  (246) 
O=c1nc(-c2ccncc2)n(-c2ccccn2)[nH]1

>  <smiles>  (246) 
[H]Oc1nc(-c2c([H])c([H])nc([H])c2[H])n(-c2nc([H])c([H])c([H])c2[H])n1

$$$$
68:0:0
     RDKit          3D

 39 43  0  0  1  0  0  0  0  0999 V2000
    0.9334   -6.9674    0.8940 O   0  0  0  0  0  0  0  0  0  0  0  0
    0.4449   -7.2749    2.2497 S   0  0  0  0  0  0  0  0  0  0  0  0
   -0.9704   -7.6264    2.4444 O   0  0  0  0  0  0  0  0  0  0  0  0
    1.5356   -8.5476    3.0566 C   0  0  0  0  0  0  0  0  0  0  0  0
    2.2720   -9.4544    2.1029 C   0  0  0  0  0  0  0  0  0  0  0  0
    1.0795   -9.9748    2.8854 C   0  0  0  0  0  0  0  0  0  0  0  0
    0.7440   -5.8647    3.2064 N   0  0  0  0  0  0  0  0  0  0  0  0
    2.0398   -5.2127    3.1309 C   0  0  0  0  0  0  0  0  0  0  0  0
    1.9470   -4.0876    4.1464 C   0  0  1  0  0  0  0  0  0  0  0  0
    1.3143   -2.7758    3.6058 C   0  0  0  0  0  0  0  0  0  0  0  0
    0.4589   -2.4055    4.6813 N   0  0  0  0  0  0  0  0  0  0  0  0
   -0.2287   -1.3309    5.1385 C   0  0  0  0  0  0  0  0  0  0  0  0
   -0.2892    0.0003    4.5221 C   0  0  0  0  0  0  0  0  0  0  0  0
   -1.0184    1.0704    5.1154 C   0  0  0  0  0  0  0  0  0  0  0  0
   -1.1128    2.2930    4.5452 N   0  0  0  0  0  0  0  0  0  0  0  0
   -0.4639    2.4615    3.3730 C   0  0  0  0  0  0  0  0  0  0  0  0
    0.2830    1.4196    2.7850 C   0  0  0  0  0  0  0  0  0  0  0  0
    0.3764    0.1984    3.3556 N   0  0  0  0  0  0  0  0  0  0  0  0
   -0.8671   -1.6568    6.2760 N   0  0  0  0  0  0  0  0  0  0  0  0
   -0.5851   -2.9854    6.5640 N   0  0  0  0  0  0  0  0  0  0  0  0
    0.1970   -3.3560    5.5538 C   0  0  0  0  0  0  0  0  0  0  0  0
    0.9829   -4.5895    5.2494 C   0  0  1  0  0  0  0  0  0  0  0  0
    0.2327   -5.7675    4.5811 C   0  0  0  0  0  0  0  0  0  0  0  0
    1.9966   -8.2313    3.9882 H   0  0  0  0  0  0  0  0  0  0  0  0
    2.1307   -9.3247    1.0354 H   0  0  0  0  0  0  0  0  0  0  0  0
    3.2651   -9.8011    2.3915 H   0  0  0  0  0  0  0  0  0  0  0  0
    1.2639  -10.6715    3.7040 H   0  0  0  0  0  0  0  0  0  0  0  0
    0.1709  -10.1669    2.3215 H   0  0  0  0  0  0  0  0  0  0  0  0
    2.8047   -5.9319    3.4386 H   0  0  0  0  0  0  0  0  0  0  0  0
    2.2374   -4.8696    2.1171 H   0  0  0  0  0  0  0  0  0  0  0  0
    2.9274   -3.8685    4.5739 H   0  0  0  0  0  0  0  0  0  0  0  0
    2.0311   -1.9933    3.3697 H   0  0  0  0  0  0  0  0  0  0  0  0
    0.6576   -2.9621    2.7620 H   0  0  0  0  0  0  0  0  0  0  0  0
   -1.5512    0.9576    6.0491 H   0  0  0  0  0  0  0  0  0  0  0  0
   -0.5321    3.4297    2.9084 H   0  0  0  0  0  0  0  0  0  0  0  0
    0.8005    1.5740    1.8488 H   0  0  0  0  0  0  0  0  0  0  0  0
    1.5171   -4.9120    6.1443 H   0  0  0  0  0  0  0  0  0  0  0  0
   -0.8499   -5.6544    4.5800 H   0  0  0  0  0  0  0  0  0  0  0  0
    0.4811   -6.7011    5.0937 H   0  0  0  0  0  0  0  0  0  0  0  0
  1  2  2  0
  2  3  2  0
  2  4  1  0
  2  7  1  0
  4  6  1  0
  4  5  1  0
  4 24  1  0
  5  6  1  0
  5 25  1  0
  5 26  1  0
  6 27  1  0
  6 28  1  0
  7 23  1  0
  7  8  1  0
  8  9  1  0
  8 29  1  0
  8 30  1  0
  9 22  1  0
  9 10  1  0
  9 31  1  1
 10 11  1  0
 10 32  1  0
 10 33  1  0
 11 21  1  0
 11 12  1  0
 12 13  1  0
 12 19  2  0
 13 18  1  0
 13 14  2  0
 14 15  1  0
 14 34  1  0
 15 16  2  0
 16 17  1  0
 16 35  1  0
 17 18  2  0
 17 36  1  0
 19 20  1  0
 20 21  2  0
 21 22  1  0
 22 23  1  0
 22 37  1  1
 23 38  1  0
 23 39  1  0
M  END
>  <i_m_ct_stereo_status>  (247) 
1

>  <s_m_source_file>  (247) 
/var/tmp/pbs.5076255.sched01/tmpz7l6rxva/92z_h6r8yo.sdf

>  <i_m_source_file_index>  (247) 
9

>  <i_lp_mmshare_version>  (247) 
48012

>  <i_f3d_flags>  (247) 
0

>  <s_epik_input>  (247) 
W0NIMl0xW0NIMl1bQ0hdMVMoPU8pKD1PKU4oW0NIMl0yKVtDSDJdW0NAQEhdKFtDQEBIXTIzKWM0bihbQ0gyXTMpYyhubjQpLWM1W2NIXW5bY0hdW2NIXW41

>  <s_epik_cmdline>  (247) 
J2VwaWtfcHl0aG9uJywgJy1waHQnLCAnMi4wJywgJy1waCcsICc3LjAnLCAnLXRuJywgJzgnLCAnLW1hJywgJzIwMCcsICctaW1hZScsICc8aW5maWxlLm1hZT4nLCAnLW9tYWUnLCAnPG91dGZpbGUubWFlPic=

>  <r_lp_tautomer_probability>  (247) 
1

>  <r_epik_Ionization_Penalty>  (247) 
6.2634e-06

>  <r_epik_Ionization_Penalty_Charging>  (247) 
0

>  <r_epik_Ionization_Penalty_Neutral>  (247) 
6.2634e-06

>  <r_epik_State_Penalty>  (247) 
-0

>  <r_epik_Charging_Adjusted_Penalty>  (247) 
0

>  <i_epik_Tot_Q>  (247) 
0

>  <i_epik_Tot_abs_Q>  (247) 
0

>  <s_lp_Force_Field>  (247) 
OPLS3e

>  <r_lp_Energy>  (247) 
31.7903

>  <b_lp_Chiralities_Consistent>  (247) 
1

>  <s_lp_Variant>  (247) 
68:0-1

>  <s_i_glide_gridfile>  (247) 
pfpi4k_grid

>  <i_i_glide_lignum>  (247) 
9

>  <i_i_glide_rotatable_bonds>  (247) 
3

>  <r_i_docking_score>  (247) 
-3.47368

>  <r_i_glide_ligand_efficiency>  (247) 
-0.151029

>  <r_i_glide_ligand_efficiency_sa>  (247) 
-0.429508

>  <r_i_glide_ligand_efficiency_ln>  (247) 
-0.839967

>  <r_i_glide_gscore>  (247) 
-3.47368

>  <r_i_glide_lipo>  (247) 
-0.208428

>  <r_i_glide_hbond>  (247) 
0

>  <r_i_glide_metal>  (247) 
-0

>  <r_i_glide_rewards>  (247) 
-1.18832

>  <r_i_glide_evdw>  (247) 
-26.607

>  <r_i_glide_ecoul>  (247) 
-5.8147

>  <r_i_glide_erotb>  (247) 
0.511426

>  <r_i_glide_esite>  (247) 
-0.385802

>  <r_i_glide_emodel>  (247) 
-39.4722

>  <r_i_glide_energy>  (247) 
-32.4217

>  <r_i_glide_einternal>  (247) 
0.626848

>  <r_i_glide_intrahb_reward>  (247) 
-0

>  <i_i_glide_confnum>  (247) 
1

>  <i_i_glide_posenum>  (247) 
38

>  <r_i_glide_eff_state_penalty>  (247) 
0

>  <ligand_id>  (247) 
68

>  <original_smiles>  (247) 
O=S(=O)(C1CC1)N1CC2Cn3c(-c4cnccn4)nnc3C2C1

>  <smiles>  (247) 
[H]c1nc([H])c(-c2nnc3n2C([H])([H])C2([H])C([H])([H])N(S(=O)(=O)C4([H])C([H])([H])C4([H])[H])C([H])([H])C32[H])nc1[H]

$$$$
68:0:1
     RDKit          3D

 39 43  0  0  1  0  0  0  0  0999 V2000
    0.9756   -7.1563    0.9931 O   0  0  0  0  0  0  0  0  0  0  0  0
    0.3811   -7.4470    2.3112 S   0  0  0  0  0  0  0  0  0  0  0  0
   -1.0551   -7.7487    2.4085 O   0  0  0  0  0  0  0  0  0  0  0  0
    1.3877   -8.7518    3.1736 C   0  0  0  0  0  0  0  0  0  0  0  0
    0.9726  -10.1716    2.8788 C   0  0  0  0  0  0  0  0  0  0  0  0
    0.6214   -9.5432    4.2100 C   0  0  0  0  0  0  0  0  0  0  0  0
    0.6715   -6.0467    3.2811 N   0  0  0  0  0  0  0  0  0  0  0  0
    1.9919   -5.4469    3.2999 C   0  0  0  0  0  0  0  0  0  0  0  0
    1.8659   -4.3121    4.2977 C   0  0  1  0  0  0  0  0  0  0  0  0
    1.3324   -2.9869    3.7005 C   0  0  0  0  0  0  0  0  0  0  0  0
    0.4276   -2.5490    4.7114 N   0  0  0  0  0  0  0  0  0  0  0  0
   -0.2638   -1.4542    5.1001 C   0  0  0  0  0  0  0  0  0  0  0  0
   -0.2469   -0.1064    4.5018 C   0  0  0  0  0  0  0  0  0  0  0  0
    0.7717    0.3164    3.6042 C   0  0  0  0  0  0  0  0  0  0  0  0
    0.7797    1.5334    3.0340 N   0  0  0  0  0  0  0  0  0  0  0  0
   -0.2376    2.3624    3.3523 C   0  0  0  0  0  0  0  0  0  0  0  0
   -1.2438    1.9730    4.2594 C   0  0  0  0  0  0  0  0  0  0  0  0
   -1.2515    0.7477    4.8379 N   0  0  0  0  0  0  0  0  0  0  0  0
   -0.9903   -1.7525    6.1919 N   0  0  0  0  0  0  0  0  0  0  0  0
   -0.7842   -3.0877    6.5106 N   0  0  0  0  0  0  0  0  0  0  0  0
    0.0589   -3.4882    5.5672 C   0  0  0  0  0  0  0  0  0  0  0  0
    0.8068   -4.7595    5.3318 C   0  0  1  0  0  0  0  0  0  0  0  0
    0.0697   -5.9179    4.6136 C   0  0  0  0  0  0  0  0  0  0  0  0
    2.4335   -8.5057    3.3147 H   0  0  0  0  0  0  0  0  0  0  0  0
    0.1634  -10.3350    2.1758 H   0  0  0  0  0  0  0  0  0  0  0  0
    1.7561  -10.9331    2.8651 H   0  0  0  0  0  0  0  0  0  0  0  0
    1.1592   -9.8805    5.0959 H   0  0  0  0  0  0  0  0  0  0  0  0
   -0.4274   -9.3181    4.3786 H   0  0  0  0  0  0  0  0  0  0  0  0
    2.7031   -6.1865    3.6756 H   0  0  0  0  0  0  0  0  0  0  0  0
    2.2848   -5.1205    2.3035 H   0  0  0  0  0  0  0  0  0  0  0  0
    2.8175   -4.1227    4.7992 H   0  0  0  0  0  0  0  0  0  0  0  0
    2.1368   -2.2881    3.4989 H   0  0  0  0  0  0  0  0  0  0  0  0
    0.7272   -3.1589    2.8148 H   0  0  0  0  0  0  0  0  0  0  0  0
    1.6082   -0.3006    3.3258 H   0  0  0  0  0  0  0  0  0  0  0  0
   -0.2312    3.3361    2.8886 H   0  0  0  0  0  0  0  0  0  0  0  0
   -2.0442    2.6539    4.5126 H   0  0  0  0  0  0  0  0  0  0  0  0
    1.2583   -5.0979    6.2642 H   0  0  0  0  0  0  0  0  0  0  0  0
   -1.0001   -5.7824    4.5319 H   0  0  0  0  0  0  0  0  0  0  0  0
    0.2399   -6.8514    5.1513 H   0  0  0  0  0  0  0  0  0  0  0  0
  1  2  2  0
  2  3  2  0
  2  4  1  0
  2  7  1  0
  4  6  1  0
  4  5  1  0
  4 24  1  0
  5  6  1  0
  5 25  1  0
  5 26  1  0
  6 27  1  0
  6 28  1  0
  7 23  1  0
  7  8  1  0
  8  9  1  0
  8 29  1  0
  8 30  1  0
  9 22  1  0
  9 10  1  0
  9 31  1  1
 10 11  1  0
 10 32  1  0
 10 33  1  0
 11 21  1  0
 11 12  1  0
 12 13  1  0
 12 19  2  0
 13 18  1  0
 13 14  2  0
 14 15  1  0
 14 34  1  0
 15 16  2  0
 16 17  1  0
 16 35  1  0
 17 18  2  0
 17 36  1  0
 19 20  1  0
 20 21  2  0
 21 22  1  0
 22 23  1  0
 22 37  1  1
 23 38  1  0
 23 39  1  0
M  END
>  <i_m_ct_stereo_status>  (248) 
1

>  <s_m_source_file>  (248) 
/var/tmp/pbs.5076255.sched01/tmpz7l6rxva/92z_h6r8yo.sdf

>  <i_m_source_file_index>  (248) 
9

>  <i_lp_mmshare_version>  (248) 
48012

>  <i_f3d_flags>  (248) 
0

>  <s_epik_input>  (248) 
W0NIMl0xW0NIMl1bQ0hdMVMoPU8pKD1PKU4oW0NIMl0yKVtDSDJdW0NAQEhdKFtDQEBIXTIzKWM0bihbQ0gyXTMpYyhubjQpLWM1W2NIXW5bY0hdW2NIXW41

>  <s_epik_cmdline>  (248) 
J2VwaWtfcHl0aG9uJywgJy1waHQnLCAnMi4wJywgJy1waCcsICc3LjAnLCAnLXRuJywgJzgnLCAnLW1hJywgJzIwMCcsICctaW1hZScsICc8aW5maWxlLm1hZT4nLCAnLW9tYWUnLCAnPG91dGZpbGUubWFlPic=

>  <r_lp_tautomer_probability>  (248) 
1

>  <r_epik_Ionization_Penalty>  (248) 
6.2634e-06

>  <r_epik_Ionization_Penalty_Charging>  (248) 
0

>  <r_epik_Ionization_Penalty_Neutral>  (248) 
6.2634e-06

>  <r_epik_State_Penalty>  (248) 
-0

>  <r_epik_Charging_Adjusted_Penalty>  (248) 
0

>  <i_epik_Tot_Q>  (248) 
0

>  <i_epik_Tot_abs_Q>  (248) 
0

>  <s_lp_Force_Field>  (248) 
OPLS3e

>  <r_lp_Energy>  (248) 
31.7903

>  <b_lp_Chiralities_Consistent>  (248) 
1

>  <s_lp_Variant>  (248) 
68:0-1

>  <s_i_glide_gridfile>  (248) 
pfpi4k_grid

>  <i_i_glide_lignum>  (248) 
9

>  <i_i_glide_rotatable_bonds>  (248) 
3

>  <r_i_docking_score>  (248) 
-3.45385

>  <r_i_glide_ligand_efficiency>  (248) 
-0.150168

>  <r_i_glide_ligand_efficiency_sa>  (248) 
-0.427057

>  <r_i_glide_ligand_efficiency_ln>  (248) 
-0.835173

>  <r_i_glide_gscore>  (248) 
-3.45385

>  <r_i_glide_lipo>  (248) 
-0.168905

>  <r_i_glide_hbond>  (248) 
0

>  <r_i_glide_metal>  (248) 
-0

>  <r_i_glide_rewards>  (248) 
-1.18237

>  <r_i_glide_evdw>  (248) 
-26.4728

>  <r_i_glide_ecoul>  (248) 
-6.19367

>  <r_i_glide_erotb>  (248) 
0.511426

>  <r_i_glide_esite>  (248) 
-0.361312

>  <r_i_glide_emodel>  (248) 
-38.4512

>  <r_i_glide_energy>  (248) 
-32.6665

>  <r_i_glide_einternal>  (248) 
2.70033

>  <r_i_glide_intrahb_reward>  (248) 
-0

>  <i_i_glide_confnum>  (248) 
6

>  <i_i_glide_posenum>  (248) 
15

>  <r_i_glide_eff_state_penalty>  (248) 
0

>  <ligand_id>  (248) 
68

>  <original_smiles>  (248) 
O=S(=O)(C1CC1)N1CC2Cn3c(-c4cnccn4)nnc3C2C1

>  <smiles>  (248) 
[H]c1nc([H])c(-c2nnc3n2C([H])([H])C2([H])C([H])([H])N(S(=O)(=O)C4([H])C([H])([H])C4([H])[H])C([H])([H])C32[H])nc1[H]

$$$$
68:0:2
     RDKit          3D

 39 43  0  0  1  0  0  0  0  0999 V2000
    0.0839   -0.2882    6.5994 O   0  0  0  0  0  0  0  0  0  0  0  0
   -0.3073   -0.1926    5.1849 S   0  0  0  0  0  0  0  0  0  0  0  0
   -1.5568   -0.8419    4.7528 O   0  0  0  0  0  0  0  0  0  0  0  0
   -0.3240    1.5951    4.6795 C   0  0  0  0  0  0  0  0  0  0  0  0
   -1.6367    2.2987    4.9221 C   0  0  0  0  0  0  0  0  0  0  0  0
   -1.2286    1.9164    3.5116 C   0  0  0  0  0  0  0  0  0  0  0  0
    0.9840   -0.8477    4.2240 N   0  0  0  0  0  0  0  0  0  0  0  0
    1.0923   -2.2848    4.0617 C   0  0  0  0  0  0  0  0  0  0  0  0
    2.3735   -2.4773    3.2624 C   0  0  1  0  0  0  0  0  0  0  0  0
    2.2140   -2.3420    1.7247 C   0  0  0  0  0  0  0  0  0  0  0  0
    3.3645   -1.5796    1.3766 N   0  0  0  0  0  0  0  0  0  0  0  0
    4.1093   -1.2541    0.2947 C   0  0  0  0  0  0  0  0  0  0  0  0
    3.8860   -1.7009   -1.0929 C   0  0  0  0  0  0  0  0  0  0  0  0
    4.5302   -1.0719   -2.1911 C   0  0  0  0  0  0  0  0  0  0  0  0
    4.2906   -1.4255   -3.4771 N   0  0  0  0  0  0  0  0  0  0  0  0
    3.4041   -2.4208   -3.6737 C   0  0  0  0  0  0  0  0  0  0  0  0
    2.7641   -3.0598   -2.5952 C   0  0  0  0  0  0  0  0  0  0  0  0
    3.0156   -2.7152   -1.3079 N   0  0  0  0  0  0  0  0  0  0  0  0
    5.1290   -0.4558    0.6663 N   0  0  0  0  0  0  0  0  0  0  0  0
    5.0384   -0.2671    2.0427 N   0  0  0  0  0  0  0  0  0  0  0  0
    3.9482   -0.9560    2.3778 C   0  0  0  0  0  0  0  0  0  0  0  0
    3.3081   -1.3202    3.6800 C   0  0  1  0  0  0  0  0  0  0  0  0
    2.3457   -0.2902    4.3156 C   0  0  0  0  0  0  0  0  0  0  0  0
    0.6142    2.1215    4.8289 H   0  0  0  0  0  0  0  0  0  0  0  0
   -2.4482    1.7366    5.3720 H   0  0  0  0  0  0  0  0  0  0  0  0
   -1.6044    3.3529    5.1939 H   0  0  0  0  0  0  0  0  0  0  0  0
   -0.9145    2.7101    2.8325 H   0  0  0  0  0  0  0  0  0  0  0  0
   -1.7688    1.1015    3.0351 H   0  0  0  0  0  0  0  0  0  0  0  0
    1.1927   -2.7337    5.0538 H   0  0  0  0  0  0  0  0  0  0  0  0
    0.2123   -2.6828    3.5618 H   0  0  0  0  0  0  0  0  0  0  0  0
    2.8408   -3.4398    3.4937 H   0  0  0  0  0  0  0  0  0  0  0  0
    2.1867   -3.2903    1.1970 H   0  0  0  0  0  0  0  0  0  0  0  0
    1.3442   -1.7333    1.4620 H   0  0  0  0  0  0  0  0  0  0  0  0
    5.2326   -0.2587   -2.0570 H   0  0  0  0  0  0  0  0  0  0  0  0
    3.2092   -2.7104   -4.6918 H   0  0  0  0  0  0  0  0  0  0  0  0
    2.0545   -3.8529   -2.7722 H   0  0  0  0  0  0  0  0  0  0  0  0
    4.0753   -1.6452    4.3846 H   0  0  0  0  0  0  0  0  0  0  0  0
    2.4047    0.6879    3.8384 H   0  0  0  0  0  0  0  0  0  0  0  0
    2.5836   -0.1805    5.3769 H   0  0  0  0  0  0  0  0  0  0  0  0
  1  2  2  0
  2  3  2  0
  2  4  1  0
  2  7  1  0
  4  6  1  0
  4  5  1  0
  4 24  1  0
  5  6  1  0
  5 25  1  0
  5 26  1  0
  6 27  1  0
  6 28  1  0
  7 23  1  0
  7  8  1  0
  8  9  1  0
  8 29  1  0
  8 30  1  0
  9 22  1  0
  9 10  1  0
  9 31  1  6
 10 11  1  0
 10 32  1  0
 10 33  1  0
 11 21  1  0
 11 12  1  0
 12 13  1  0
 12 19  2  0
 13 18  1  0
 13 14  2  0
 14 15  1  0
 14 34  1  0
 15 16  2  0
 16 17  1  0
 16 35  1  0
 17 18  2  0
 17 36  1  0
 19 20  1  0
 20 21  2  0
 21 22  1  0
 22 23  1  0
 22 37  1  1
 23 38  1  0
 23 39  1  0
M  END
>  <i_m_ct_stereo_status>  (249) 
1

>  <s_m_source_file>  (249) 
/var/tmp/pbs.5076255.sched01/tmpz7l6rxva/92z_h6r8yo.sdf

>  <i_m_source_file_index>  (249) 
9

>  <i_lp_mmshare_version>  (249) 
48012

>  <i_f3d_flags>  (249) 
0

>  <s_epik_input>  (249) 
W0NIMl0xW0NIMl1bQ0hdMVMoPU8pKD1PKU4oW0NIMl0yKVtDSDJdW0NAQEhdKFtDQEBIXTIzKWM0bihbQ0gyXTMpYyhubjQpLWM1W2NIXW5bY0hdW2NIXW41

>  <s_epik_cmdline>  (249) 
J2VwaWtfcHl0aG9uJywgJy1waHQnLCAnMi4wJywgJy1waCcsICc3LjAnLCAnLXRuJywgJzgnLCAnLW1hJywgJzIwMCcsICctaW1hZScsICc8aW5maWxlLm1hZT4nLCAnLW9tYWUnLCAnPG91dGZpbGUubWFlPic=

>  <r_lp_tautomer_probability>  (249) 
1

>  <r_epik_Ionization_Penalty>  (249) 
6.2634e-06

>  <r_epik_Ionization_Penalty_Charging>  (249) 
0

>  <r_epik_Ionization_Penalty_Neutral>  (249) 
6.2634e-06

>  <r_epik_State_Penalty>  (249) 
-0

>  <r_epik_Charging_Adjusted_Penalty>  (249) 
0

>  <i_epik_Tot_Q>  (249) 
0

>  <i_epik_Tot_abs_Q>  (249) 
0

>  <s_lp_Force_Field>  (249) 
OPLS3e

>  <r_lp_Energy>  (249) 
31.7903

>  <b_lp_Chiralities_Consistent>  (249) 
1

>  <s_lp_Variant>  (249) 
68:0-1

>  <s_i_glide_gridfile>  (249) 
pfpi4k_grid

>  <i_i_glide_lignum>  (249) 
9

>  <i_i_glide_rotatable_bonds>  (249) 
3

>  <r_i_docking_score>  (249) 
-3.07681

>  <r_i_glide_ligand_efficiency>  (249) 
-0.133774

>  <r_i_glide_ligand_efficiency_sa>  (249) 
-0.380437

>  <r_i_glide_ligand_efficiency_ln>  (249) 
-0.744001

>  <r_i_glide_gscore>  (249) 
-3.07681

>  <r_i_glide_lipo>  (249) 
-0.23524

>  <r_i_glide_hbond>  (249) 
0

>  <r_i_glide_metal>  (249) 
-0

>  <r_i_glide_rewards>  (249) 
-1.16784

>  <r_i_glide_evdw>  (249) 
-30.1461

>  <r_i_glide_ecoul>  (249) 
-3.57789

>  <r_i_glide_erotb>  (249) 
0.511426

>  <r_i_glide_esite>  (249) 
-0.141167

>  <r_i_glide_emodel>  (249) 
-38.4632

>  <r_i_glide_energy>  (249) 
-33.724

>  <r_i_glide_einternal>  (249) 
2.75544

>  <r_i_glide_intrahb_reward>  (249) 
-0

>  <i_i_glide_confnum>  (249) 
5

>  <i_i_glide_posenum>  (249) 
40

>  <r_i_glide_eff_state_penalty>  (249) 
0

>  <ligand_id>  (249) 
68

>  <original_smiles>  (249) 
O=S(=O)(C1CC1)N1CC2Cn3c(-c4cnccn4)nnc3C2C1

>  <smiles>  (249) 
[H]c1nc([H])c(-c2nnc3n2C([H])([H])C2([H])C([H])([H])N(S(=O)(=O)C4([H])C([H])([H])C4([H])[H])C([H])([H])C32[H])nc1[H]

$$$$
69:0:0
     RDKit          3D

 37 40  0  0  1  0  0  0  0  0999 V2000
   -0.2253   -8.9337    3.0787 C   0  0  0  0  0  0  0  0  0  0  0  0
   -0.4986   -7.4264    3.0220 C   0  0  0  0  0  0  0  0  0  0  0  0
    0.5360   -6.7123    2.2910 N   0  0  0  0  0  0  0  0  0  0  0  0
    1.6463   -6.0637    2.7940 C   0  0  0  0  0  0  0  0  0  0  0  0
    2.3231   -5.5714    1.7089 C   0  0  0  0  0  0  0  0  0  0  0  0
    3.5581   -4.7941    1.7001 C   0  0  0  0  0  0  0  0  0  0  0  0
    4.0971   -4.3125    2.8915 N   0  0  0  0  0  0  0  0  0  0  0  0
    5.1961   -3.6669    2.6601 N   0  0  0  0  0  0  0  0  0  0  0  0
    5.4222   -3.7093    1.3218 N   0  0  0  0  0  0  0  0  0  0  0  0
    4.3852   -4.3821    0.6795 C   0  0  0  0  0  0  0  0  0  0  0  0
    4.3716   -4.5115   -0.7085 N   0  0  0  0  0  0  0  0  0  0  0  0
    5.3678   -3.8041   -1.5146 C   0  0  1  0  0  0  0  0  0  0  0  0
    4.6900   -2.7771   -2.3724 C   0  0  0  0  0  0  0  0  0  0  0  0
    3.8886   -2.8443   -3.4866 C   0  0  0  0  0  0  0  0  0  0  0  0
    3.5582   -1.4978   -3.8259 C   0  0  0  0  0  0  0  0  0  0  0  0
    4.1748   -0.7126   -2.8958 C   0  0  0  0  0  0  0  0  0  0  0  0
    4.8539   -1.4734   -2.0062 O   0  0  0  0  0  0  0  0  0  0  0  0
    6.5323   -3.2382   -0.6768 C   0  0  0  0  0  0  0  0  0  0  0  0
    7.7222   -2.6976   -1.4510 C   0  0  0  0  0  0  0  0  0  0  0  0
    6.5094   -3.1996    0.5980 N   0  0  0  0  0  0  0  0  0  0  0  0
    1.5693   -5.9793    0.5783 C   0  0  0  0  0  0  0  0  0  0  0  0
    0.4697   -6.6307    0.9384 N   0  0  0  0  0  0  0  0  0  0  0  0
   -0.9978   -9.4550    3.6495 H   0  0  0  0  0  0  0  0  0  0  0  0
    0.7326   -9.1431    3.5562 H   0  0  0  0  0  0  0  0  0  0  0  0
   -0.2007   -9.3677    2.0795 H   0  0  0  0  0  0  0  0  0  0  0  0
   -1.4652   -7.2462    2.5521 H   0  0  0  0  0  0  0  0  0  0  0  0
   -0.5581   -7.0261    4.0344 H   0  0  0  0  0  0  0  0  0  0  0  0
    1.8657   -6.0033    3.8488 H   0  0  0  0  0  0  0  0  0  0  0  0
    3.6325   -4.9766   -1.2379 H   0  0  0  0  0  0  0  0  0  0  0  0
    5.7843   -4.5420   -2.1946 H   0  0  0  0  0  0  0  0  0  0  0  0
    3.5672   -3.7555   -3.9799 H   0  0  0  0  0  0  0  0  0  0  0  0
    2.9371   -1.1301   -4.6308 H   0  0  0  0  0  0  0  0  0  0  0  0
    4.2259    0.3479   -2.7163 H   0  0  0  0  0  0  0  0  0  0  0  0
    8.2058   -3.4733   -2.0407 H   0  0  0  0  0  0  0  0  0  0  0  0
    8.4513   -2.3015   -0.7507 H   0  0  0  0  0  0  0  0  0  0  0  0
    7.4151   -1.8954   -2.1140 H   0  0  0  0  0  0  0  0  0  0  0  0
    1.7483   -5.7925   -0.4750 H   0  0  0  0  0  0  0  0  0  0  0  0
  1  2  1  0
  1 23  1  0
  1 24  1  0
  1 25  1  0
  2  3  1  0
  2 26  1  0
  2 27  1  0
  3 22  1  0
  3  4  1  0
  4  5  2  0
  4 28  1  0
  5  6  1  0
  5 21  1  0
  6 10  2  0
  6  7  1  0
  7  8  2  0
  8  9  1  0
  9 20  1  0
  9 10  1  0
 10 11  1  0
 11 12  1  0
 11 29  1  0
 12 13  1  0
 12 18  1  0
 12 30  1  6
 13 17  1  0
 13 14  2  0
 14 15  1  0
 14 31  1  0
 15 16  2  0
 15 32  1  0
 16 17  1  0
 16 33  1  0
 18 19  1  0
 18 20  2  0
 19 34  1  0
 19 35  1  0
 19 36  1  0
 21 22  2  0
 21 37  1  0
M  END
>  <i_m_ct_stereo_status>  (250) 
1

>  <s_m_source_file>  (250) 
/var/tmp/pbs.5076255.sched01/tmpz7l6rxva/92z_h6r8yo.sdf

>  <i_m_source_file_index>  (250) 
10

>  <i_lp_mmshare_version>  (250) 
48012

>  <i_f3d_flags>  (250) 
0

>  <s_epik_input>  (250) 
W0NIM11bQ0gyXW4xW2NIXWMoW2NIXW4xKS1jKG5uMiljKG4yMylbTkhdW0NASF0oQyg9TjMpW0NIM10pYzRbY0hdW2NIXVtjSF1vNA==

>  <s_epik_cmdline>  (250) 
J2VwaWtfcHl0aG9uJywgJy1waHQnLCAnMi4wJywgJy1waCcsICc3LjAnLCAnLXRuJywgJzgnLCAnLW1hJywgJzIwMCcsICctaW1hZScsICc8aW5maWxlLm1hZT4nLCAnLW9tYWUnLCAnPG91dGZpbGUubWFlPic=

>  <r_lp_tautomer_probability>  (250) 
1

>  <r_epik_Ionization_Penalty>  (250) 
0.0025716

>  <r_epik_Ionization_Penalty_Charging>  (250) 
0

>  <r_epik_Ionization_Penalty_Neutral>  (250) 
0.0025716

>  <r_epik_State_Penalty>  (250) 
0.00177955

>  <r_epik_Charging_Adjusted_Penalty>  (250) 
0.00177955

>  <i_epik_Tot_Q>  (250) 
0

>  <i_epik_Tot_abs_Q>  (250) 
0

>  <s_epik_Chemistry_Notes>  (250) 
This compound has an imine and may undergo hydrolysis.

>  <s_lp_Force_Field>  (250) 
OPLS3e

>  <r_lp_Energy>  (250) 
26.4434

>  <b_lp_Chiralities_Consistent>  (250) 
1

>  <s_lp_Variant>  (250) 
69:0-1

>  <s_i_glide_gridfile>  (250) 
pfpi4k_grid

>  <i_i_glide_lignum>  (250) 
10

>  <i_i_glide_rotatable_bonds>  (250) 
3

>  <r_i_docking_score>  (250) 
-4.53202

>  <r_i_glide_ligand_efficiency>  (250) 
-0.206001

>  <r_i_glide_ligand_efficiency_sa>  (250) 
-0.577223

>  <r_i_glide_ligand_efficiency_ln>  (250) 
-1.10779

>  <r_i_glide_gscore>  (250) 
-4.53202

>  <r_i_glide_lipo>  (250) 
-0.593612

>  <r_i_glide_hbond>  (250) 
-0.467802

>  <r_i_glide_metal>  (250) 
-0

>  <r_i_glide_rewards>  (250) 
-1.58652

>  <r_i_glide_evdw>  (250) 
-29.9078

>  <r_i_glide_ecoul>  (250) 
-4.67012

>  <r_i_glide_erotb>  (250) 
0.414805

>  <r_i_glide_esite>  (250) 
-0.102982

>  <r_i_glide_emodel>  (250) 
-43.4706

>  <r_i_glide_energy>  (250) 
-34.5779

>  <r_i_glide_einternal>  (250) 
1.37926

>  <r_i_glide_intrahb_reward>  (250) 
-0

>  <i_i_glide_confnum>  (250) 
4

>  <i_i_glide_posenum>  (250) 
14

>  <r_i_glide_eff_state_penalty>  (250) 
0

>  <ligand_id>  (250) 
69

>  <original_smiles>  (250) 
CCn1cc(-c2nnn3c2NC(c2ccco2)C(C)=N3)cn1

>  <smiles>  (250) 
[H]c1nn(C([H])([H])C([H])([H])[H])c([H])c1-c1nnn2c1N([H])C([H])(c1oc([H])c([H])c1[H])C(C([H])([H])[H])=N2

$$$$
69:0:1
     RDKit          3D

 37 40  0  0  1  0  0  0  0  0999 V2000
    0.3773    1.5398    5.6429 C   0  0  0  0  0  0  0  0  0  0  0  0
    0.8296    2.1823    4.3255 C   0  0  0  0  0  0  0  0  0  0  0  0
    1.4670    1.2173    3.4496 N   0  0  0  0  0  0  0  0  0  0  0  0
    2.8113    1.0600    3.1695 C   0  0  0  0  0  0  0  0  0  0  0  0
    2.8868    0.0361    2.2679 C   0  0  0  0  0  0  0  0  0  0  0  0
    4.0731   -0.5357    1.6562 C   0  0  0  0  0  0  0  0  0  0  0  0
    5.3165   -0.3939    2.2753 N   0  0  0  0  0  0  0  0  0  0  0  0
    6.2132   -1.0455    1.6095 N   0  0  0  0  0  0  0  0  0  0  0  0
    5.6246   -1.5673    0.5061 N   0  0  0  0  0  0  0  0  0  0  0  0
    4.2661   -1.2810    0.5189 C   0  0  0  0  0  0  0  0  0  0  0  0
    3.4295   -1.7493   -0.5033 N   0  0  0  0  0  0  0  0  0  0  0  0
    4.0348   -2.3869   -1.6811 C   0  0  1  0  0  0  0  0  0  0  0  0
    3.8261   -1.5375   -2.8940 C   0  0  0  0  0  0  0  0  0  0  0  0
    3.4179   -1.7986   -4.1721 C   0  0  0  0  0  0  0  0  0  0  0  0
    3.4126   -0.5435   -4.8496 C   0  0  0  0  0  0  0  0  0  0  0  0
    3.8182    0.3745   -3.9385 C   0  0  0  0  0  0  0  0  0  0  0  0
    4.1155   -0.2180   -2.7560 O   0  0  0  0  0  0  0  0  0  0  0  0
    5.5319   -2.7044   -1.5012 C   0  0  0  0  0  0  0  0  0  0  0  0
    6.1636   -3.5544   -2.5712 C   0  0  0  0  0  0  0  0  0  0  0  0
    6.2251   -2.3004   -0.5155 N   0  0  0  0  0  0  0  0  0  0  0  0
    1.5494   -0.3941    2.0699 C   0  0  0  0  0  0  0  0  0  0  0  0
    0.6974    0.3230    2.7879 N   0  0  0  0  0  0  0  0  0  0  0  0
   -0.0747    2.2769    6.3085 H   0  0  0  0  0  0  0  0  0  0  0  0
    1.2227    1.0922    6.1637 H   0  0  0  0  0  0  0  0  0  0  0  0
   -0.3567    0.7534    5.4578 H   0  0  0  0  0  0  0  0  0  0  0  0
   -0.0231    2.6272    3.8078 H   0  0  0  0  0  0  0  0  0  0  0  0
    1.5290    2.9943    4.5259 H   0  0  0  0  0  0  0  0  0  0  0  0
    3.5807    1.6714    3.6176 H   0  0  0  0  0  0  0  0  0  0  0  0
    2.4441   -1.4755   -0.5952 H   0  0  0  0  0  0  0  0  0  0  0  0
    3.5146   -3.3315   -1.8451 H   0  0  0  0  0  0  0  0  0  0  0  0
    3.1359   -2.7733   -4.5495 H   0  0  0  0  0  0  0  0  0  0  0  0
    3.1474   -0.3265   -5.8745 H   0  0  0  0  0  0  0  0  0  0  0  0
    3.9556    1.4434   -3.9705 H   0  0  0  0  0  0  0  0  0  0  0  0
    5.6364   -4.5078   -2.6470 H   0  0  0  0  0  0  0  0  0  0  0  0
    7.2093   -3.7309   -2.3190 H   0  0  0  0  0  0  0  0  0  0  0  0
    6.1542   -3.0489   -3.5228 H   0  0  0  0  0  0  0  0  0  0  0  0
    1.1743   -1.1869    1.4354 H   0  0  0  0  0  0  0  0  0  0  0  0
  1  2  1  0
  1 23  1  0
  1 24  1  0
  1 25  1  0
  2  3  1  0
  2 26  1  0
  2 27  1  0
  3 22  1  0
  3  4  1  0
  4  5  2  0
  4 28  1  0
  5  6  1  0
  5 21  1  0
  6 10  2  0
  6  7  1  0
  7  8  2  0
  8  9  1  0
  9 20  1  0
  9 10  1  0
 10 11  1  0
 11 12  1  0
 11 29  1  0
 12 13  1  0
 12 18  1  0
 12 30  1  6
 13 17  1  0
 13 14  2  0
 14 15  1  0
 14 31  1  0
 15 16  2  0
 15 32  1  0
 16 17  1  0
 16 33  1  0
 18 19  1  0
 18 20  2  0
 19 34  1  0
 19 35  1  0
 19 36  1  0
 21 22  2  0
 21 37  1  0
M  END
>  <i_m_ct_stereo_status>  (251) 
1

>  <s_m_source_file>  (251) 
/var/tmp/pbs.5076255.sched01/tmpz7l6rxva/92z_h6r8yo.sdf

>  <i_m_source_file_index>  (251) 
10

>  <i_lp_mmshare_version>  (251) 
48012

>  <i_f3d_flags>  (251) 
0

>  <s_epik_input>  (251) 
W0NIM11bQ0gyXW4xW2NIXWMoW2NIXW4xKS1jKG5uMiljKG4yMylbTkhdW0NASF0oQyg9TjMpW0NIM10pYzRbY0hdW2NIXVtjSF1vNA==

>  <s_epik_cmdline>  (251) 
J2VwaWtfcHl0aG9uJywgJy1waHQnLCAnMi4wJywgJy1waCcsICc3LjAnLCAnLXRuJywgJzgnLCAnLW1hJywgJzIwMCcsICctaW1hZScsICc8aW5maWxlLm1hZT4nLCAnLW9tYWUnLCAnPG91dGZpbGUubWFlPic=

>  <r_lp_tautomer_probability>  (251) 
1

>  <r_epik_Ionization_Penalty>  (251) 
0.0025716

>  <r_epik_Ionization_Penalty_Charging>  (251) 
0

>  <r_epik_Ionization_Penalty_Neutral>  (251) 
0.0025716

>  <r_epik_State_Penalty>  (251) 
0.00177955

>  <r_epik_Charging_Adjusted_Penalty>  (251) 
0.00177955

>  <i_epik_Tot_Q>  (251) 
0

>  <i_epik_Tot_abs_Q>  (251) 
0

>  <s_epik_Chemistry_Notes>  (251) 
This compound has an imine and may undergo hydrolysis.

>  <s_lp_Force_Field>  (251) 
OPLS3e

>  <r_lp_Energy>  (251) 
26.4434

>  <b_lp_Chiralities_Consistent>  (251) 
1

>  <s_lp_Variant>  (251) 
69:0-1

>  <s_i_glide_gridfile>  (251) 
pfpi4k_grid

>  <i_i_glide_lignum>  (251) 
10

>  <i_i_glide_rotatable_bonds>  (251) 
3

>  <r_i_docking_score>  (251) 
-4.05414

>  <r_i_glide_ligand_efficiency>  (251) 
-0.184279

>  <r_i_glide_ligand_efficiency_sa>  (251) 
-0.516357

>  <r_i_glide_ligand_efficiency_ln>  (251) 
-0.990979

>  <r_i_glide_gscore>  (251) 
-4.05414

>  <r_i_glide_lipo>  (251) 
-0.501575

>  <r_i_glide_hbond>  (251) 
-0.16

>  <r_i_glide_metal>  (251) 
-0

>  <r_i_glide_rewards>  (251) 
-1.49757

>  <r_i_glide_evdw>  (251) 
-27.8441

>  <r_i_glide_ecoul>  (251) 
-5.33744

>  <r_i_glide_erotb>  (251) 
0.414805

>  <r_i_glide_esite>  (251) 
-0.116972

>  <r_i_glide_emodel>  (251) 
-41.2888

>  <r_i_glide_energy>  (251) 
-33.1816

>  <r_i_glide_einternal>  (251) 
0.79868

>  <r_i_glide_intrahb_reward>  (251) 
-0

>  <i_i_glide_confnum>  (251) 
6

>  <i_i_glide_posenum>  (251) 
18

>  <r_i_glide_eff_state_penalty>  (251) 
0

>  <ligand_id>  (251) 
69

>  <original_smiles>  (251) 
CCn1cc(-c2nnn3c2NC(c2ccco2)C(C)=N3)cn1

>  <smiles>  (251) 
[H]c1nn(C([H])([H])C([H])([H])[H])c([H])c1-c1nnn2c1N([H])C([H])(c1oc([H])c([H])c1[H])C(C([H])([H])[H])=N2

$$$$
69:0:2
     RDKit          3D

 37 40  0  0  1  0  0  0  0  0999 V2000
   -0.7991    2.9477    4.9145 C   0  0  0  0  0  0  0  0  0  0  0  0
    0.0518    3.2716    3.6782 C   0  0  0  0  0  0  0  0  0  0  0  0
    0.7422    2.0987    3.1684 N   0  0  0  0  0  0  0  0  0  0  0  0
    2.0988    1.8413    3.1426 C   0  0  0  0  0  0  0  0  0  0  0  0
    2.2360    0.6243    2.5390 C   0  0  0  0  0  0  0  0  0  0  0  0
    3.4594   -0.1210    2.2909 C   0  0  0  0  0  0  0  0  0  0  0  0
    4.6098    0.1301    3.0390 N   0  0  0  0  0  0  0  0  0  0  0  0
    5.5698   -0.6443    2.6539 N   0  0  0  0  0  0  0  0  0  0  0  0
    5.0888   -1.4452    1.6791 N   0  0  0  0  0  0  0  0  0  0  0  0
    3.7549   -1.1391    1.4317 C   0  0  0  0  0  0  0  0  0  0  0  0
    3.0331   -1.8470    0.4625 N   0  0  0  0  0  0  0  0  0  0  0  0
    3.7593   -2.7686   -0.4224 C   0  0  1  0  0  0  0  0  0  0  0  0
    3.7776   -2.2328   -1.8210 C   0  0  0  0  0  0  0  0  0  0  0  0
    4.2174   -1.0622   -2.3830 C   0  0  0  0  0  0  0  0  0  0  0  0
    3.9576   -1.1613   -3.7787 C   0  0  0  0  0  0  0  0  0  0  0  0
    3.3827   -2.3875   -3.9547 C   0  0  0  0  0  0  0  0  0  0  0  0
    3.2682   -3.0521   -2.7820 O   0  0  0  0  0  0  0  0  0  0  0  0
    5.1902   -3.0897    0.0541 C   0  0  0  0  0  0  0  0  0  0  0  0
    5.9071   -4.2149   -0.6649 C   0  0  0  0  0  0  0  0  0  0  0  0
    5.7648   -2.4537    0.9944 N   0  0  0  0  0  0  0  0  0  0  0  0
    0.9210    0.2061    2.2124 C   0  0  0  0  0  0  0  0  0  0  0  0
    0.0234    1.0918    2.6159 N   0  0  0  0  0  0  0  0  0  0  0  0
   -1.2906    3.8394    5.3088 H   0  0  0  0  0  0  0  0  0  0  0  0
   -0.1806    2.5289    5.7080 H   0  0  0  0  0  0  0  0  0  0  0  0
   -1.5728    2.2166    4.6721 H   0  0  0  0  0  0  0  0  0  0  0  0
   -0.5759    3.6840    2.8858 H   0  0  0  0  0  0  0  0  0  0  0  0
    0.7852    4.0404    3.9228 H   0  0  0  0  0  0  0  0  0  0  0  0
    2.8348    2.5158    3.5505 H   0  0  0  0  0  0  0  0  0  0  0  0
    2.1268   -1.5201    0.1048 H   0  0  0  0  0  0  0  0  0  0  0  0
    3.2063   -3.7105   -0.4447 H   0  0  0  0  0  0  0  0  0  0  0  0
    4.6605   -0.2428   -1.8334 H   0  0  0  0  0  0  0  0  0  0  0  0
    4.1588   -0.4404   -4.5567 H   0  0  0  0  0  0  0  0  0  0  0  0
    3.0116   -2.9246   -4.8056 H   0  0  0  0  0  0  0  0  0  0  0  0
    5.3769   -5.1632   -0.5648 H   0  0  0  0  0  0  0  0  0  0  0  0
    6.8913   -4.3395   -0.2226 H   0  0  0  0  0  0  0  0  0  0  0  0
    6.0497   -3.9770   -1.7175 H   0  0  0  0  0  0  0  0  0  0  0  0
    0.5862   -0.7087    1.7397 H   0  0  0  0  0  0  0  0  0  0  0  0
  1  2  1  0
  1 23  1  0
  1 24  1  0
  1 25  1  0
  2  3  1  0
  2 26  1  0
  2 27  1  0
  3 22  1  0
  3  4  1  0
  4  5  2  0
  4 28  1  0
  5  6  1  0
  5 21  1  0
  6 10  2  0
  6  7  1  0
  7  8  2  0
  8  9  1  0
  9 20  1  0
  9 10  1  0
 10 11  1  0
 11 12  1  0
 11 29  1  0
 12 13  1  0
 12 18  1  0
 12 30  1  6
 13 17  1  0
 13 14  2  0
 14 15  1  0
 14 31  1  0
 15 16  2  0
 15 32  1  0
 16 17  1  0
 16 33  1  0
 18 19  1  0
 18 20  2  0
 19 34  1  0
 19 35  1  0
 19 36  1  0
 21 22  2  0
 21 37  1  0
M  END
>  <i_m_ct_stereo_status>  (252) 
1

>  <s_m_source_file>  (252) 
/var/tmp/pbs.5076255.sched01/tmpz7l6rxva/92z_h6r8yo.sdf

>  <i_m_source_file_index>  (252) 
10

>  <i_lp_mmshare_version>  (252) 
48012

>  <i_f3d_flags>  (252) 
0

>  <s_epik_input>  (252) 
W0NIM11bQ0gyXW4xW2NIXWMoW2NIXW4xKS1jKG5uMiljKG4yMylbTkhdW0NASF0oQyg9TjMpW0NIM10pYzRbY0hdW2NIXVtjSF1vNA==

>  <s_epik_cmdline>  (252) 
J2VwaWtfcHl0aG9uJywgJy1waHQnLCAnMi4wJywgJy1waCcsICc3LjAnLCAnLXRuJywgJzgnLCAnLW1hJywgJzIwMCcsICctaW1hZScsICc8aW5maWxlLm1hZT4nLCAnLW9tYWUnLCAnPG91dGZpbGUubWFlPic=

>  <r_lp_tautomer_probability>  (252) 
1

>  <r_epik_Ionization_Penalty>  (252) 
0.0025716

>  <r_epik_Ionization_Penalty_Charging>  (252) 
0

>  <r_epik_Ionization_Penalty_Neutral>  (252) 
0.0025716

>  <r_epik_State_Penalty>  (252) 
0.00177955

>  <r_epik_Charging_Adjusted_Penalty>  (252) 
0.00177955

>  <i_epik_Tot_Q>  (252) 
0

>  <i_epik_Tot_abs_Q>  (252) 
0

>  <s_epik_Chemistry_Notes>  (252) 
This compound has an imine and may undergo hydrolysis.

>  <s_lp_Force_Field>  (252) 
OPLS3e

>  <r_lp_Energy>  (252) 
26.4434

>  <b_lp_Chiralities_Consistent>  (252) 
1

>  <s_lp_Variant>  (252) 
69:0-1

>  <s_i_glide_gridfile>  (252) 
pfpi4k_grid

>  <i_i_glide_lignum>  (252) 
10

>  <i_i_glide_rotatable_bonds>  (252) 
3

>  <r_i_docking_score>  (252) 
-3.60435

>  <r_i_glide_ligand_efficiency>  (252) 
-0.163834

>  <r_i_glide_ligand_efficiency_sa>  (252) 
-0.459069

>  <r_i_glide_ligand_efficiency_ln>  (252) 
-0.881034

>  <r_i_glide_gscore>  (252) 
-3.60435

>  <r_i_glide_lipo>  (252) 
-0.282506

>  <r_i_glide_hbond>  (252) 
-0.16

>  <r_i_glide_metal>  (252) 
-0

>  <r_i_glide_rewards>  (252) 
-1.5422

>  <r_i_glide_evdw>  (252) 
-28.9165

>  <r_i_glide_ecoul>  (252) 
-3.11828

>  <r_i_glide_erotb>  (252) 
0.414805

>  <r_i_glide_esite>  (252) 
-0.120877

>  <r_i_glide_emodel>  (252) 
-39.2567

>  <r_i_glide_energy>  (252) 
-32.0347

>  <r_i_glide_einternal>  (252) 
0.604043

>  <r_i_glide_intrahb_reward>  (252) 
-0

>  <i_i_glide_confnum>  (252) 
6

>  <i_i_glide_posenum>  (252) 
1

>  <r_i_glide_eff_state_penalty>  (252) 
0

>  <ligand_id>  (252) 
69

>  <original_smiles>  (252) 
CCn1cc(-c2nnn3c2NC(c2ccco2)C(C)=N3)cn1

>  <smiles>  (252) 
[H]c1nn(C([H])([H])C([H])([H])[H])c([H])c1-c1nnn2c1N([H])C([H])(c1oc([H])c([H])c1[H])C(C([H])([H])[H])=N2

$$$$
70:0:0
     RDKit          3D

 42 46  0  0  1  0  0  0  0  0999 V2000
    5.0169   -0.9348    3.6864 C   0  0  0  0  0  0  0  0  0  0  0  0
    4.8761   -1.8883    2.7698 C   0  0  0  0  0  0  0  0  0  0  0  0
    5.8135   -2.1219    1.5963 C   0  0  2  0  0  0  0  0  0  0  0  0
    5.8988   -0.9803    0.5594 C   0  0  0  0  0  0  0  0  0  0  0  0
    4.8970   -1.3721   -0.5066 C   0  0  0  0  0  0  0  0  0  0  0  0
    4.6928   -0.7273   -1.5287 O   0  0  0  0  0  0  0  0  0  0  0  0
    4.2980   -2.7414   -0.2213 C   0  0  1  0  0  0  0  0  0  0  0  0
    4.1783   -3.6079   -1.4747 C   0  0  0  0  0  0  0  0  0  0  0  0
    5.2052   -3.3428    0.8614 C   0  0  2  0  0  0  0  0  0  0  0  0
    4.4273   -4.1220    1.9336 C   0  0  1  0  0  0  0  0  0  0  0  0
    3.3758   -4.8992    1.2992 O   0  0  0  0  0  0  0  0  0  0  0  0
    2.7898   -5.9513    2.0484 C   0  0  2  0  0  0  0  0  0  0  0  0
    3.5236   -7.3281    1.9513 C   0  0  0  0  0  0  0  0  0  0  0  0
    1.3616   -6.3033    1.6206 C   0  0  0  0  0  0  0  0  0  0  0  0
    0.9549   -6.2395    0.4633 O   0  0  0  0  0  0  0  0  0  0  0  0
    0.6065   -6.7159    2.8199 C   0  0  0  0  0  0  0  0  0  0  0  0
    1.2731   -6.2738    3.8898 C   0  0  0  0  0  0  0  0  0  0  0  0
    2.4233   -5.4195    3.4479 C   0  0  1  0  0  0  0  0  0  0  0  0
    3.6025   -4.9063    4.3398 C   0  0  1  0  0  0  0  0  0  0  0  0
    4.8405   -5.4696    3.9805 O   0  0  0  0  0  0  0  0  0  0  0  0
    5.3945   -4.9909    2.7955 C   0  0  0  0  0  0  0  0  0  0  0  0
    6.5157   -5.2990    2.4034 O   0  0  0  0  0  0  0  0  0  0  0  0
    3.6586   -3.4920    4.2092 O   0  0  0  0  0  0  0  0  0  0  0  0
    3.8608   -3.0275    2.8536 C   0  0  1  0  0  0  0  0  0  0  0  0
    4.3580   -0.9085    4.5489 H   0  0  0  0  0  0  0  0  0  0  0  0
    5.7970   -0.1688    3.6212 H   0  0  0  0  0  0  0  0  0  0  0  0
    6.8075   -2.3586    2.0020 H   0  0  0  0  0  0  0  0  0  0  0  0
    5.7603    0.0452    0.9235 H   0  0  0  0  0  0  0  0  0  0  0  0
    6.8610   -1.0325    0.0610 H   0  0  0  0  0  0  0  0  0  0  0  0
    3.3015   -2.5418    0.1623 H   0  0  0  0  0  0  0  0  0  0  0  0
    3.5175   -3.1606   -2.2227 H   0  0  0  0  0  0  0  0  0  0  0  0
    3.7507   -4.5653   -1.1926 H   0  0  0  0  0  0  0  0  0  0  0  0
    5.1434   -3.8008   -1.9469 H   0  0  0  0  0  0  0  0  0  0  0  0
    5.9990   -3.9192    0.3935 H   0  0  0  0  0  0  0  0  0  0  0  0
    2.8913   -8.1488    2.2865 H   0  0  0  0  0  0  0  0  0  0  0  0
    4.4270   -7.4298    2.5491 H   0  0  0  0  0  0  0  0  0  0  0  0
    3.7974   -7.5507    0.9169 H   0  0  0  0  0  0  0  0  0  0  0  0
   -0.2854   -7.3477    2.7896 H   0  0  0  0  0  0  0  0  0  0  0  0
    1.8532   -4.5057    3.3057 H   0  0  0  0  0  0  0  0  0  0  0  0
    1.0029   -6.4400    4.9303 H   0  0  0  0  0  0  0  0  0  0  0  0
    3.4070   -5.1310    5.3978 H   0  0  0  0  0  0  0  0  0  0  0  0
    2.9246   -2.6630    2.4511 H   0  0  0  0  0  0  0  0  0  0  0  0
  1  2  2  0
  1 25  1  0
  1 26  1  0
  2 24  1  0
  2  3  1  0
  3  9  1  0
  3  4  1  0
  3 27  1  1
  4  5  1  0
  4 28  1  0
  4 29  1  0
  5  6  2  0
  5  7  1  0
  7  8  1  0
  7  9  1  0
  7 30  1  1
  8 31  1  0
  8 32  1  0
  8 33  1  0
  9 10  1  0
  9 34  1  6
 10 21  1  0
 10 24  1  0
 10 11  1  6
 11 12  1  0
 12 18  1  0
 12 13  1  1
 12 14  1  0
 13 35  1  0
 13 36  1  0
 13 37  1  0
 14 15  2  0
 14 16  1  0
 16 17  2  0
 16 38  1  0
 17 40  1  0
 17 18  1  0
 18 19  1  0
 18 39  1  6
 19 20  1  0
 19 23  1  0
 19 41  1  1
 20 21  1  0
 21 22  2  0
 23 24  1  0
 24 42  1  6
M  END
>  <i_m_ct_stereo_status>  (253) 
1

>  <s_m_source_file>  (253) 
/var/tmp/pbs.5076255.sched01/tmpz7l6rxva/92z_h6r8yo.sdf

>  <i_m_source_file_index>  (253) 
11

>  <i_lp_mmshare_version>  (253) 
48012

>  <i_f3d_flags>  (253) 
0

>  <s_epik_input>  (253) 
W0NIM11bQ0BASF0xQyg9TylbQ0gyXVtDQEhdKFtDQEhdMVtDQEBdMjM0KUMoPVtDSDJdKVtDQEBIXTRPW0NASF0oT0MzPU8pQzVbQ0BAXShPMikoW0NIM10pQyg9TylbQ0gyXVtDSF09NQ==

>  <s_epik_cmdline>  (253) 
J2VwaWtfcHl0aG9uJywgJy1waHQnLCAnMi4wJywgJy1waCcsICc3LjAnLCAnLXRuJywgJzgnLCAnLW1hJywgJzIwMCcsICctaW1hZScsICc8aW5maWxlLm1hZT4nLCAnLW9tYWUnLCAnPG91dGZpbGUubWFlPic=

>  <r_lp_tautomer_probability>  (253) 
1

>  <r_epik_Ionization_Penalty>  (253) 
1.78411e-11

>  <r_epik_Ionization_Penalty_Charging>  (253) 
0

>  <r_epik_Ionization_Penalty_Neutral>  (253) 
1.78411e-11

>  <r_epik_State_Penalty>  (253) 
-0

>  <r_epik_Charging_Adjusted_Penalty>  (253) 
0

>  <i_epik_Tot_Q>  (253) 
0

>  <i_epik_Tot_abs_Q>  (253) 
0

>  <s_epik_Chemistry_Notes>  (253) 
This compound has an ester and may undergo hydrolysis at high or low pH. This compound contains an acetal/aminal-like group ( X-CH(R)-Y where X, Y are N, S, or O) that may be acid/base labile, releasing an aldehyde.

>  <s_lp_Force_Field>  (253) 
OPLS3e

>  <r_lp_Energy>  (253) 
53.2317

>  <b_lp_Chiralities_Consistent>  (253) 
1

>  <s_lp_Variant>  (253) 
70:0-1

>  <s_i_glide_gridfile>  (253) 
pfpi4k_grid

>  <i_i_glide_lignum>  (253) 
11

>  <i_i_glide_rotatable_bonds>  (253) 
0

>  <r_i_docking_score>  (253) 
-3.45265

>  <r_i_glide_ligand_efficiency>  (253) 
-0.143861

>  <r_i_glide_ligand_efficiency_sa>  (253) 
-0.414966

>  <r_i_glide_ligand_efficiency_ln>  (253) 
-0.826379

>  <r_i_glide_gscore>  (253) 
-3.45265

>  <r_i_glide_lipo>  (253) 
-0.464407

>  <r_i_glide_hbond>  (253) 
-0.214394

>  <r_i_glide_metal>  (253) 
-0

>  <r_i_glide_rewards>  (253) 
-1.17171

>  <r_i_glide_evdw>  (253) 
-22.6111

>  <r_i_glide_ecoul>  (253) 
-2.52887

>  <r_i_glide_erotb>  (253) 
0

>  <r_i_glide_esite>  (253) 
-0.0922588

>  <r_i_glide_emodel>  (253) 
-30.2118

>  <r_i_glide_energy>  (253) 
-25.14

>  <r_i_glide_einternal>  (253) 
0

>  <r_i_glide_intrahb_reward>  (253) 
-0

>  <i_i_glide_confnum>  (253) 
2

>  <i_i_glide_posenum>  (253) 
3

>  <r_i_glide_eff_state_penalty>  (253) 
0

>  <ligand_id>  (253) 
70

>  <original_smiles>  (253) 
C=C1C2CC(=O)C(C)C2C23OC4(C)C(=O)CC=C4C(OC2=O)OC13

>  <smiles>  (253) 
[H]C([H])=C1C2([H])OC3([H])OC(=O)C2(OC2(C([H])([H])[H])C(=O)C([H])=C([H])C32[H])C2([H])C([H])(C([H])([H])[H])C(=O)C([H])([H])C12[H]

$$$$
70:0:1
     RDKit          3D

 42 46  0  0  1  0  0  0  0  0999 V2000
    7.8566   -1.8887    0.0615 C   0  0  0  0  0  0  0  0  0  0  0  0
    6.5708   -2.2741    0.0795 C   0  0  0  0  0  0  0  0  0  0  0  0
    6.0027   -3.4205   -0.7433 C   0  0  2  0  0  0  0  0  0  0  0  0
    5.9843   -3.2462   -2.2855 C   0  0  0  0  0  0  0  0  0  0  0  0
    4.6224   -2.6812   -2.5992 C   0  0  0  0  0  0  0  0  0  0  0  0
    4.2459   -2.3810   -3.7373 O   0  0  0  0  0  0  0  0  0  0  0  0
    3.7536   -2.6298   -1.3594 C   0  0  1  0  0  0  0  0  0  0  0  0
    2.3220   -3.1055   -1.6139 C   0  0  0  0  0  0  0  0  0  0  0  0
    4.5155   -3.4778   -0.3180 C   0  0  2  0  0  0  0  0  0  0  0  0
    4.4577   -2.8821    1.1045 C   0  0  1  0  0  0  0  0  0  0  0  0
    3.1387   -2.3509    1.3616 O   0  0  0  0  0  0  0  0  0  0  0  0
    2.7843   -2.0411    2.7151 C   0  0  2  0  0  0  0  0  0  0  0  0
    2.1666   -3.2504    3.4972 C   0  0  0  0  0  0  0  0  0  0  0  0
    1.7348   -0.9385    2.8643 C   0  0  0  0  0  0  0  0  0  0  0  0
    0.8100   -0.7462    2.0801 O   0  0  0  0  0  0  0  0  0  0  0  0
    1.9954   -0.2050    4.1099 C   0  0  0  0  0  0  0  0  0  0  0  0
    3.2644   -0.4704    4.4657 C   0  0  0  0  0  0  0  0  0  0  0  0
    3.9248   -1.2576    3.3730 C   0  0  1  0  0  0  0  0  0  0  0  0
    5.3038   -1.9620    3.4610 C   0  0  1  0  0  0  0  0  0  0  0  0
    5.2068   -3.3687    3.4119 O   0  0  0  0  0  0  0  0  0  0  0  0
    4.9043   -3.9124    2.1778 C   0  0  0  0  0  0  0  0  0  0  0  0
    4.9261   -5.1226    1.9607 O   0  0  0  0  0  0  0  0  0  0  0  0
    6.0868   -1.5038    2.3716 O   0  0  0  0  0  0  0  0  0  0  0  0
    5.5322   -1.7730    1.0678 C   0  0  1  0  0  0  0  0  0  0  0  0
    8.2087   -1.1319    0.7519 H   0  0  0  0  0  0  0  0  0  0  0  0
    8.5793   -2.3139   -0.6262 H   0  0  0  0  0  0  0  0  0  0  0  0
    6.5306   -4.3337   -0.4519 H   0  0  0  0  0  0  0  0  0  0  0  0
    6.8060   -2.6954   -2.7334 H   0  0  0  0  0  0  0  0  0  0  0  0
    5.9420   -4.2322   -2.7469 H   0  0  0  0  0  0  0  0  0  0  0  0
    3.7351   -1.5807   -1.0748 H   0  0  0  0  0  0  0  0  0  0  0  0
    1.8195   -2.4603   -2.3408 H   0  0  0  0  0  0  0  0  0  0  0  0
    1.7586   -3.0712   -0.6849 H   0  0  0  0  0  0  0  0  0  0  0  0
    2.2596   -4.1318   -1.9644 H   0  0  0  0  0  0  0  0  0  0  0  0
    4.1519   -4.5100   -0.3627 H   0  0  0  0  0  0  0  0  0  0  0  0
    1.6518   -2.9253    4.3988 H   0  0  0  0  0  0  0  0  0  0  0  0
    2.8751   -3.9964    3.8451 H   0  0  0  0  0  0  0  0  0  0  0  0
    1.4280   -3.7727    2.8850 H   0  0  0  0  0  0  0  0  0  0  0  0
    1.2483    0.3706    4.6425 H   0  0  0  0  0  0  0  0  0  0  0  0
    4.1532   -0.4123    2.7285 H   0  0  0  0  0  0  0  0  0  0  0  0
    3.7647   -0.1131    5.3461 H   0  0  0  0  0  0  0  0  0  0  0  0
    5.8161   -1.6769    4.3820 H   0  0  0  0  0  0  0  0  0  0  0  0
    5.0979   -0.8525    0.6705 H   0  0  0  0  0  0  0  0  0  0  0  0
  1  2  2  0
  1 25  1  0
  1 26  1  0
  2 24  1  0
  2  3  1  0
  3  9  1  0
  3  4  1  0
  3 27  1  6
  4  5  1  0
  4 28  1  0
  4 29  1  0
  5  6  2  0
  5  7  1  0
  7  8  1  0
  7  9  1  0
  7 30  1  1
  8 31  1  0
  8 32  1  0
  8 33  1  0
  9 10  1  0
  9 34  1  1
 10 21  1  0
 10 24  1  0
 10 11  1  1
 11 12  1  0
 12 18  1  0
 12 13  1  1
 12 14  1  0
 13 35  1  0
 13 36  1  0
 13 37  1  0
 14 15  2  0
 14 16  1  0
 16 17  2  0
 16 38  1  0
 17 40  1  0
 17 18  1  0
 18 19  1  0
 18 39  1  6
 19 20  1  0
 19 23  1  0
 19 41  1  1
 20 21  1  0
 21 22  2  0
 23 24  1  0
 24 42  1  6
M  END
>  <i_m_ct_stereo_status>  (254) 
1

>  <s_m_source_file>  (254) 
/var/tmp/pbs.5076255.sched01/tmpz7l6rxva/92z_h6r8yo.sdf

>  <i_m_source_file_index>  (254) 
11

>  <i_lp_mmshare_version>  (254) 
48012

>  <i_f3d_flags>  (254) 
0

>  <s_epik_input>  (254) 
W0NIM11bQ0BASF0xQyg9TylbQ0gyXVtDQEhdKFtDQEhdMVtDQEBdMjM0KUMoPVtDSDJdKVtDQEBIXTRPW0NASF0oT0MzPU8pQzVbQ0BAXShPMikoW0NIM10pQyg9TylbQ0gyXVtDSF09NQ==

>  <s_epik_cmdline>  (254) 
J2VwaWtfcHl0aG9uJywgJy1waHQnLCAnMi4wJywgJy1waCcsICc3LjAnLCAnLXRuJywgJzgnLCAnLW1hJywgJzIwMCcsICctaW1hZScsICc8aW5maWxlLm1hZT4nLCAnLW9tYWUnLCAnPG91dGZpbGUubWFlPic=

>  <r_lp_tautomer_probability>  (254) 
1

>  <r_epik_Ionization_Penalty>  (254) 
1.78411e-11

>  <r_epik_Ionization_Penalty_Charging>  (254) 
0

>  <r_epik_Ionization_Penalty_Neutral>  (254) 
1.78411e-11

>  <r_epik_State_Penalty>  (254) 
-0

>  <r_epik_Charging_Adjusted_Penalty>  (254) 
0

>  <i_epik_Tot_Q>  (254) 
0

>  <i_epik_Tot_abs_Q>  (254) 
0

>  <s_epik_Chemistry_Notes>  (254) 
This compound has an ester and may undergo hydrolysis at high or low pH. This compound contains an acetal/aminal-like group ( X-CH(R)-Y where X, Y are N, S, or O) that may be acid/base labile, releasing an aldehyde.

>  <s_lp_Force_Field>  (254) 
OPLS3e

>  <r_lp_Energy>  (254) 
53.2317

>  <b_lp_Chiralities_Consistent>  (254) 
1

>  <s_lp_Variant>  (254) 
70:0-1

>  <s_i_glide_gridfile>  (254) 
pfpi4k_grid

>  <i_i_glide_lignum>  (254) 
11

>  <i_i_glide_rotatable_bonds>  (254) 
0

>  <r_i_docking_score>  (254) 
-3.23562

>  <r_i_glide_ligand_efficiency>  (254) 
-0.134817

>  <r_i_glide_ligand_efficiency_sa>  (254) 
-0.38888

>  <r_i_glide_ligand_efficiency_ln>  (254) 
-0.774431

>  <r_i_glide_gscore>  (254) 
-3.23562

>  <r_i_glide_lipo>  (254) 
-0.539526

>  <r_i_glide_hbond>  (254) 
-0.0262358

>  <r_i_glide_metal>  (254) 
-0

>  <r_i_glide_rewards>  (254) 
-1.42952

>  <r_i_glide_evdw>  (254) 
-22.9166

>  <r_i_glide_ecoul>  (254) 
-0.508095

>  <r_i_glide_erotb>  (254) 
0

>  <r_i_glide_esite>  (254) 
-0.0182882

>  <r_i_glide_emodel>  (254) 
-28.144

>  <r_i_glide_energy>  (254) 
-23.4247

>  <r_i_glide_einternal>  (254) 
0

>  <r_i_glide_intrahb_reward>  (254) 
-0

>  <i_i_glide_confnum>  (254) 
2

>  <i_i_glide_posenum>  (254) 
39

>  <r_i_glide_eff_state_penalty>  (254) 
0

>  <ligand_id>  (254) 
70

>  <original_smiles>  (254) 
C=C1C2CC(=O)C(C)C2C23OC4(C)C(=O)CC=C4C(OC2=O)OC13

>  <smiles>  (254) 
[H]C([H])=C1C2([H])OC3([H])OC(=O)C2(OC2(C([H])([H])[H])C(=O)C([H])=C([H])C32[H])C2([H])C([H])(C([H])([H])[H])C(=O)C([H])([H])C12[H]

$$$$
70:0:2
     RDKit          3D

 42 46  0  0  1  0  0  0  0  0999 V2000
    7.0580   -7.6934    1.6875 C   0  0  0  0  0  0  0  0  0  0  0  0
    5.8612   -7.1068    1.7656 C   0  0  0  0  0  0  0  0  0  0  0  0
    4.8826   -7.2745    2.9265 C   0  0  2  0  0  0  0  0  0  0  0  0
    4.2976   -8.6904    3.1497 C   0  0  0  0  0  0  0  0  0  0  0  0
    2.9958   -8.6920    2.3677 C   0  0  0  0  0  0  0  0  0  0  0  0
    2.2509   -9.6529    2.2700 O   0  0  0  0  0  0  0  0  0  0  0  0
    2.6921   -7.3091    1.8011 C   0  0  1  0  0  0  0  0  0  0  0  0
    1.2084   -6.9177    1.9285 C   0  0  0  0  0  0  0  0  0  0  0  0
    3.6803   -6.3790    2.5275 C   0  0  2  0  0  0  0  0  0  0  0  0
    4.2561   -5.2855    1.6005 C   0  0  1  0  0  0  0  0  0  0  0  0
    3.2070   -4.7945    0.7305 O   0  0  0  0  0  0  0  0  0  0  0  0
    3.4374   -3.5710    0.0274 C   0  0  2  0  0  0  0  0  0  0  0  0
    3.0319   -2.2911    0.8312 C   0  0  0  0  0  0  0  0  0  0  0  0
    2.6445   -3.4350   -1.2752 C   0  0  0  0  0  0  0  0  0  0  0  0
    1.5026   -3.8572   -1.4331 O   0  0  0  0  0  0  0  0  0  0  0  0
    3.4643   -2.6539   -2.2250 C   0  0  0  0  0  0  0  0  0  0  0  0
    4.7282   -2.6720   -1.7782 C   0  0  0  0  0  0  0  0  0  0  0  0
    4.8330   -3.6078   -0.6085 C   0  0  1  0  0  0  0  0  0  0  0  0
    6.0557   -3.7517    0.3583 C   0  0  1  0  0  0  0  0  0  0  0  0
    5.7714   -3.3100    1.6664 O   0  0  0  0  0  0  0  0  0  0  0  0
    4.9459   -4.1484    2.4086 C   0  0  0  0  0  0  0  0  0  0  0  0
    4.7277   -3.9769    3.6078 O   0  0  0  0  0  0  0  0  0  0  0  0
    6.4220   -5.1224    0.4039 O   0  0  0  0  0  0  0  0  0  0  0  0
    5.3670   -6.0186    0.8216 C   0  0  1  0  0  0  0  0  0  0  0  0
    7.7542   -7.4284    0.9018 H   0  0  0  0  0  0  0  0  0  0  0  0
    7.4081   -8.4110    2.4243 H   0  0  0  0  0  0  0  0  0  0  0  0
    5.3714   -6.9029    3.8350 H   0  0  0  0  0  0  0  0  0  0  0  0
    4.9355   -9.5425    2.9173 H   0  0  0  0  0  0  0  0  0  0  0  0
    3.9874   -8.7791    4.1871 H   0  0  0  0  0  0  0  0  0  0  0  0
    2.9440   -7.3925    0.7499 H   0  0  0  0  0  0  0  0  0  0  0  0
    0.5497   -7.6279    1.4172 H   0  0  0  0  0  0  0  0  0  0  0  0
    1.0333   -5.9373    1.4911 H   0  0  0  0  0  0  0  0  0  0  0  0
    0.9029   -6.8789    2.9750 H   0  0  0  0  0  0  0  0  0  0  0  0
    3.2027   -5.9774    3.4228 H   0  0  0  0  0  0  0  0  0  0  0  0
    2.9489   -1.4174    0.1837 H   0  0  0  0  0  0  0  0  0  0  0  0
    3.7196   -1.9778    1.6136 H   0  0  0  0  0  0  0  0  0  0  0  0
    2.0532   -2.4182    1.3007 H   0  0  0  0  0  0  0  0  0  0  0  0
    3.0603   -2.0944   -3.0703 H   0  0  0  0  0  0  0  0  0  0  0  0
    4.9031   -4.5217   -1.1907 H   0  0  0  0  0  0  0  0  0  0  0  0
    5.5708   -2.1583   -2.2149 H   0  0  0  0  0  0  0  0  0  0  0  0
    6.9165   -3.1914   -0.0199 H   0  0  0  0  0  0  0  0  0  0  0  0
    4.9384   -6.5035   -0.0558 H   0  0  0  0  0  0  0  0  0  0  0  0
  1  2  2  0
  1 25  1  0
  1 26  1  0
  2 24  1  0
  2  3  1  0
  3  9  1  0
  3  4  1  0
  3 27  1  1
  4  5  1  0
  4 28  1  0
  4 29  1  0
  5  6  2  0
  5  7  1  0
  7  8  1  0
  7  9  1  0
  7 30  1  6
  8 31  1  0
  8 32  1  0
  8 33  1  0
  9 10  1  0
  9 34  1  1
 10 21  1  0
 10 24  1  0
 10 11  1  6
 11 12  1  0
 12 18  1  0
 12 13  1  1
 12 14  1  0
 13 35  1  0
 13 36  1  0
 13 37  1  0
 14 15  2  0
 14 16  1  0
 16 17  2  0
 16 38  1  0
 17 40  1  0
 17 18  1  0
 18 19  1  0
 18 39  1  6
 19 20  1  0
 19 23  1  0
 19 41  1  6
 20 21  1  0
 21 22  2  0
 23 24  1  0
 24 42  1  6
M  END
>  <i_m_ct_stereo_status>  (255) 
1

>  <s_m_source_file>  (255) 
/var/tmp/pbs.5076255.sched01/tmpz7l6rxva/92z_h6r8yo.sdf

>  <i_m_source_file_index>  (255) 
11

>  <i_lp_mmshare_version>  (255) 
48012

>  <i_f3d_flags>  (255) 
0

>  <s_epik_input>  (255) 
W0NIM11bQ0BASF0xQyg9TylbQ0gyXVtDQEhdKFtDQEhdMVtDQEBdMjM0KUMoPVtDSDJdKVtDQEBIXTRPW0NASF0oT0MzPU8pQzVbQ0BAXShPMikoW0NIM10pQyg9TylbQ0gyXVtDSF09NQ==

>  <s_epik_cmdline>  (255) 
J2VwaWtfcHl0aG9uJywgJy1waHQnLCAnMi4wJywgJy1waCcsICc3LjAnLCAnLXRuJywgJzgnLCAnLW1hJywgJzIwMCcsICctaW1hZScsICc8aW5maWxlLm1hZT4nLCAnLW9tYWUnLCAnPG91dGZpbGUubWFlPic=

>  <r_lp_tautomer_probability>  (255) 
1

>  <r_epik_Ionization_Penalty>  (255) 
1.78411e-11

>  <r_epik_Ionization_Penalty_Charging>  (255) 
0

>  <r_epik_Ionization_Penalty_Neutral>  (255) 
1.78411e-11

>  <r_epik_State_Penalty>  (255) 
-0

>  <r_epik_Charging_Adjusted_Penalty>  (255) 
0

>  <i_epik_Tot_Q>  (255) 
0

>  <i_epik_Tot_abs_Q>  (255) 
0

>  <s_epik_Chemistry_Notes>  (255) 
This compound has an ester and may undergo hydrolysis at high or low pH. This compound contains an acetal/aminal-like group ( X-CH(R)-Y where X, Y are N, S, or O) that may be acid/base labile, releasing an aldehyde.

>  <s_lp_Force_Field>  (255) 
OPLS3e

>  <r_lp_Energy>  (255) 
53.2317

>  <b_lp_Chiralities_Consistent>  (255) 
1

>  <s_lp_Variant>  (255) 
70:0-1

>  <s_i_glide_gridfile>  (255) 
pfpi4k_grid

>  <i_i_glide_lignum>  (255) 
11

>  <i_i_glide_rotatable_bonds>  (255) 
0

>  <r_i_docking_score>  (255) 
-2.94642

>  <r_i_glide_ligand_efficiency>  (255) 
-0.122767

>  <r_i_glide_ligand_efficiency_sa>  (255) 
-0.354122

>  <r_i_glide_ligand_efficiency_ln>  (255) 
-0.705213

>  <r_i_glide_gscore>  (255) 
-2.94642

>  <r_i_glide_lipo>  (255) 
-0.339232

>  <r_i_glide_hbond>  (255) 
-0.0143435

>  <r_i_glide_metal>  (255) 
-0

>  <r_i_glide_rewards>  (255) 
-1.38042

>  <r_i_glide_evdw>  (255) 
-25.8721

>  <r_i_glide_ecoul>  (255) 
0.62786

>  <r_i_glide_erotb>  (255) 
0

>  <r_i_glide_esite>  (255) 
-0.0129926

>  <r_i_glide_emodel>  (255) 
-29.5629

>  <r_i_glide_energy>  (255) 
-25.2442

>  <r_i_glide_einternal>  (255) 
0

>  <r_i_glide_intrahb_reward>  (255) 
-0

>  <i_i_glide_confnum>  (255) 
1

>  <i_i_glide_posenum>  (255) 
1

>  <r_i_glide_eff_state_penalty>  (255) 
0

>  <ligand_id>  (255) 
70

>  <original_smiles>  (255) 
C=C1C2CC(=O)C(C)C2C23OC4(C)C(=O)CC=C4C(OC2=O)OC13

>  <smiles>  (255) 
[H]C([H])=C1C2([H])OC3([H])OC(=O)C2(OC2(C([H])([H])[H])C(=O)C([H])=C([H])C32[H])C2([H])C([H])(C([H])([H])[H])C(=O)C([H])([H])C12[H]

$$$$
70:1:0
     RDKit          3D

 42 46  0  0  1  0  0  0  0  0999 V2000
    1.5380   -3.8505   -1.5169 C   0  0  0  0  0  0  0  0  0  0  0  0
    2.5422   -3.8473   -0.6319 C   0  0  0  0  0  0  0  0  0  0  0  0
    3.2956   -2.6042   -0.1845 C   0  0  2  0  0  0  0  0  0  0  0  0
    4.2443   -1.9461   -1.2033 C   0  0  0  0  0  0  0  0  0  0  0  0
    5.5980   -2.5414   -0.8935 C   0  0  0  0  0  0  0  0  0  0  0  0
    6.6299   -2.2527   -1.5069 O   0  0  0  0  0  0  0  0  0  0  0  0
    5.5469   -3.4404    0.3304 C   0  0  1  0  0  0  0  0  0  0  0  0
    6.7378   -3.2528    1.2718 C   0  0  0  0  0  0  0  0  0  0  0  0
    4.1754   -3.1226    0.9753 C   0  0  2  0  0  0  0  0  0  0  0  0
    3.4591   -4.3745    1.5183 C   0  0  1  0  0  0  0  0  0  0  0  0
    4.4227   -5.1575    2.1960 O   0  0  0  0  0  0  0  0  0  0  0  0
    4.1631   -6.5258    2.5043 C   0  0  2  0  0  0  0  0  0  0  0  0
    4.8595   -6.7543    3.8584 C   0  0  0  0  0  0  0  0  0  0  0  0
    4.8546   -7.3909    1.4680 C   0  0  0  0  0  0  0  0  0  0  0  0
    5.9639   -7.0899    1.0195 O   0  0  0  0  0  0  0  0  0  0  0  0
    4.0394   -8.5386    1.1137 C   0  0  0  0  0  0  0  0  0  0  0  0
    2.8427   -8.3734    1.6963 C   0  0  0  0  0  0  0  0  0  0  0  0
    2.7077   -7.1004    2.4975 C   0  0  2  0  0  0  0  0  0  0  0  0
    1.5876   -6.1874    1.9176 C   0  0  1  0  0  0  0  0  0  0  0  0
    1.4267   -5.0503    2.7195 O   0  0  0  0  0  0  0  0  0  0  0  0
    2.3276   -4.0424    2.5114 C   0  0  0  0  0  0  0  0  0  0  0  0
    2.2766   -2.9673    3.1023 O   0  0  0  0  0  0  0  0  0  0  0  0
    1.7659   -5.8670    0.5533 O   0  0  0  0  0  0  0  0  0  0  0  0
    2.8888   -5.0219    0.2529 C   0  0  1  0  0  0  0  0  0  0  0  0
    0.9507   -4.7441   -1.6877 H   0  0  0  0  0  0  0  0  0  0  0  0
    1.2477   -2.9644   -2.0682 H   0  0  0  0  0  0  0  0  0  0  0  0
    2.5788   -1.8645    0.1907 H   0  0  0  0  0  0  0  0  0  0  0  0
    3.9728   -2.0303   -2.2588 H   0  0  0  0  0  0  0  0  0  0  0  0
    4.3404   -0.8924   -0.9632 H   0  0  0  0  0  0  0  0  0  0  0  0
    5.5754   -4.4551   -0.0580 H   0  0  0  0  0  0  0  0  0  0  0  0
    7.6870   -3.4839    0.7872 H   0  0  0  0  0  0  0  0  0  0  0  0
    6.6428   -3.9233    2.1230 H   0  0  0  0  0  0  0  0  0  0  0  0
    6.7912   -2.2318    1.6489 H   0  0  0  0  0  0  0  0  0  0  0  0
    4.2987   -2.3347    1.7272 H   0  0  0  0  0  0  0  0  0  0  0  0
    4.8505   -7.8059    4.1424 H   0  0  0  0  0  0  0  0  0  0  0  0
    4.3704   -6.1859    4.6507 H   0  0  0  0  0  0  0  0  0  0  0  0
    5.9034   -6.4326    3.8252 H   0  0  0  0  0  0  0  0  0  0  0  0
    4.3553   -9.3740    0.4930 H   0  0  0  0  0  0  0  0  0  0  0  0
    2.4166   -7.3670    3.5122 H   0  0  0  0  0  0  0  0  0  0  0  0
    2.0373   -9.0881    1.6227 H   0  0  0  0  0  0  0  0  0  0  0  0
    0.6449   -6.7400    1.9674 H   0  0  0  0  0  0  0  0  0  0  0  0
    3.6506   -5.6076   -0.2710 H   0  0  0  0  0  0  0  0  0  0  0  0
  1  2  2  0
  1 25  1  0
  1 26  1  0
  2 24  1  0
  2  3  1  0
  3  9  1  0
  3  4  1  0
  3 27  1  1
  4  5  1  0
  4 28  1  0
  4 29  1  0
  5  6  2  0
  5  7  1  0
  7  8  1  0
  7  9  1  0
  7 30  1  6
  8 31  1  0
  8 32  1  0
  8 33  1  0
  9 10  1  0
  9 34  1  1
 10 21  1  0
 10 24  1  0
 10 11  1  1
 11 12  1  0
 12 18  1  0
 12 13  1  1
 12 14  1  0
 13 35  1  0
 13 36  1  0
 13 37  1  0
 14 15  2  0
 14 16  1  0
 16 17  2  0
 16 38  1  0
 17 40  1  0
 17 18  1  0
 18 19  1  0
 18 39  1  1
 19 20  1  0
 19 23  1  0
 19 41  1  6
 20 21  1  0
 21 22  2  0
 23 24  1  0
 24 42  1  6
M  END
>  <i_m_ct_stereo_status>  (256) 
1

>  <s_m_source_file>  (256) 
/var/tmp/pbs.5076255.sched01/tmpz7l6rxva/92z_h6r8yo.sdf

>  <i_m_source_file_index>  (256) 
12

>  <i_lp_mmshare_version>  (256) 
48012

>  <i_f3d_flags>  (256) 
0

>  <s_epik_input>  (256) 
W0NIM11bQ0BASF0xQyg9TylbQ0gyXVtDQEhdKFtDQEhdMVtDQEBdMjM0KUMoPVtDSDJdKVtDQEBIXTRPW0NASF0oT0MzPU8pQzVbQ0BAXShPMikoW0NIM10pQyg9TylbQ0gyXVtDSF09NQ==

>  <s_epik_cmdline>  (256) 
J2VwaWtfcHl0aG9uJywgJy1waHQnLCAnMi4wJywgJy1waCcsICc3LjAnLCAnLXRuJywgJzgnLCAnLW1hJywgJzIwMCcsICctaW1hZScsICc8aW5maWxlLm1hZT4nLCAnLW9tYWUnLCAnPG91dGZpbGUubWFlPic=

>  <r_lp_tautomer_probability>  (256) 
1

>  <r_epik_Ionization_Penalty>  (256) 
1.78411e-11

>  <r_epik_Ionization_Penalty_Charging>  (256) 
0

>  <r_epik_Ionization_Penalty_Neutral>  (256) 
1.78411e-11

>  <r_epik_State_Penalty>  (256) 
-0

>  <r_epik_Charging_Adjusted_Penalty>  (256) 
0

>  <i_epik_Tot_Q>  (256) 
0

>  <i_epik_Tot_abs_Q>  (256) 
0

>  <s_epik_Chemistry_Notes>  (256) 
This compound has an ester and may undergo hydrolysis at high or low pH. This compound contains an acetal/aminal-like group ( X-CH(R)-Y where X, Y are N, S, or O) that may be acid/base labile, releasing an aldehyde.

>  <s_lp_Force_Field>  (256) 
OPLS3e

>  <r_lp_Energy>  (256) 
30.8333

>  <b_lp_Chiralities_Consistent>  (256) 
1

>  <s_lp_Variant>  (256) 
70:0-2

>  <s_i_glide_gridfile>  (256) 
pfpi4k_grid

>  <i_i_glide_lignum>  (256) 
12

>  <i_i_glide_rotatable_bonds>  (256) 
0

>  <r_i_docking_score>  (256) 
-3.33075

>  <r_i_glide_ligand_efficiency>  (256) 
-0.138781

>  <r_i_glide_ligand_efficiency_sa>  (256) 
-0.400315

>  <r_i_glide_ligand_efficiency_ln>  (256) 
-0.797202

>  <r_i_glide_gscore>  (256) 
-3.33075

>  <r_i_glide_lipo>  (256) 
-0.124387

>  <r_i_glide_hbond>  (256) 
-0.238129

>  <r_i_glide_metal>  (256) 
-0

>  <r_i_glide_rewards>  (256) 
-1.26967

>  <r_i_glide_evdw>  (256) 
-21.2578

>  <r_i_glide_ecoul>  (256) 
-3.80081

>  <r_i_glide_erotb>  (256) 
0

>  <r_i_glide_esite>  (256) 
-0.065555

>  <r_i_glide_emodel>  (256) 
-30.2402

>  <r_i_glide_energy>  (256) 
-25.0586

>  <r_i_glide_einternal>  (256) 
0

>  <r_i_glide_intrahb_reward>  (256) 
-0

>  <i_i_glide_confnum>  (256) 
2

>  <i_i_glide_posenum>  (256) 
5

>  <r_i_glide_eff_state_penalty>  (256) 
0

>  <ligand_id>  (256) 
70

>  <original_smiles>  (256) 
C=C1C2CC(=O)C(C)C2C23OC4(C)C(=O)CC=C4C(OC2=O)OC13

>  <smiles>  (256) 
[H]C([H])=C1C2([H])OC3([H])OC(=O)C2(OC2(C([H])([H])[H])C(=O)C([H])=C([H])C32[H])C2([H])C([H])(C([H])([H])[H])C(=O)C([H])([H])C12[H]

$$$$
70:1:1
     RDKit          3D

 42 46  0  0  1  0  0  0  0  0999 V2000
    1.5437   -5.4554   -0.3177 C   0  0  0  0  0  0  0  0  0  0  0  0
    2.4752   -4.7119    0.3357 C   0  0  0  0  0  0  0  0  0  0  0  0
    2.7533   -3.2275    0.0845 C   0  0  2  0  0  0  0  0  0  0  0  0
    3.5086   -2.8644   -1.2109 C   0  0  0  0  0  0  0  0  0  0  0  0
    4.9588   -2.7789   -0.7956 C   0  0  0  0  0  0  0  0  0  0  0  0
    5.8885   -2.5125   -1.5606 O   0  0  0  0  0  0  0  0  0  0  0  0
    5.1320   -2.9587    0.6941 C   0  0  1  0  0  0  0  0  0  0  0  0
    6.1476   -1.9876    1.3209 C   0  0  0  0  0  0  0  0  0  0  0  0
    3.6830   -2.8290    1.2528 C   0  0  2  0  0  0  0  0  0  0  0  0
    3.3722   -3.8317    2.3960 C   0  0  1  0  0  0  0  0  0  0  0  0
    4.5077   -3.8550    3.2421 O   0  0  0  0  0  0  0  0  0  0  0  0
    4.6836   -4.9217    4.1740 C   0  0  2  0  0  0  0  0  0  0  0  0
    5.3308   -4.2633    5.4072 C   0  0  0  0  0  0  0  0  0  0  0  0
    5.6692   -5.9284    3.5824 C   0  0  0  0  0  0  0  0  0  0  0  0
    6.6513   -5.5741    2.9295 O   0  0  0  0  0  0  0  0  0  0  0  0
    5.2738   -7.2922    3.8852 C   0  0  0  0  0  0  0  0  0  0  0  0
    4.0585   -7.2328    4.4568 C   0  0  0  0  0  0  0  0  0  0  0  0
    3.4797   -5.8371    4.5850 C   0  0  2  0  0  0  0  0  0  0  0  0
    2.1561   -5.7147    3.7605 C   0  0  1  0  0  0  0  0  0  0  0  0
    1.5811   -4.4522    3.9382 O   0  0  0  0  0  0  0  0  0  0  0  0
    2.1260   -3.4417    3.2191 C   0  0  0  0  0  0  0  0  0  0  0  0
    1.7208   -2.2817    3.2464 O   0  0  0  0  0  0  0  0  0  0  0  0
    2.3293   -6.0444    2.4076 O   0  0  0  0  0  0  0  0  0  0  0  0
    3.1297   -5.1452    1.6391 C   0  0  1  0  0  0  0  0  0  0  0  0
    1.2752   -6.4322    0.0219 H   0  0  0  0  0  0  0  0  0  0  0  0
    1.0381   -5.0463   -1.1736 H   0  0  0  0  0  0  0  0  0  0  0  0
    1.8141   -2.6745    0.1492 H   0  0  0  0  0  0  0  0  0  0  0  0
    3.3433   -3.5020   -2.0861 H   0  0  0  0  0  0  0  0  0  0  0  0
    3.2418   -1.8495   -1.4857 H   0  0  0  0  0  0  0  0  0  0  0  0
    5.5069   -3.9739    0.8197 H   0  0  0  0  0  0  0  0  0  0  0  0
    7.1442   -2.1220    0.9018 H   0  0  0  0  0  0  0  0  0  0  0  0
    6.2171   -2.1569    2.3959 H   0  0  0  0  0  0  0  0  0  0  0  0
    5.8539   -0.9515    1.1686 H   0  0  0  0  0  0  0  0  0  0  0  0
    3.5032   -1.7854    1.5329 H   0  0  0  0  0  0  0  0  0  0  0  0
    5.6442   -5.0020    6.1442 H   0  0  0  0  0  0  0  0  0  0  0  0
    4.6382   -3.5746    5.8885 H   0  0  0  0  0  0  0  0  0  0  0  0
    6.2116   -3.6866    5.1239 H   0  0  0  0  0  0  0  0  0  0  0  0
    5.8705   -8.1695    3.6930 H   0  0  0  0  0  0  0  0  0  0  0  0
    3.2325   -5.6749    5.6400 H   0  0  0  0  0  0  0  0  0  0  0  0
    3.5309   -8.0999    4.8074 H   0  0  0  0  0  0  0  0  0  0  0  0
    1.4364   -6.4357    4.1593 H   0  0  0  0  0  0  0  0  0  0  0  0
    4.0655   -5.6319    1.3656 H   0  0  0  0  0  0  0  0  0  0  0  0
  1  2  2  0
  1 25  1  0
  1 26  1  0
  2 24  1  0
  2  3  1  0
  3  9  1  0
  3  4  1  0
  3 27  1  1
  4  5  1  0
  4 28  1  0
  4 29  1  0
  5  6  2  0
  5  7  1  0
  7  8  1  0
  7  9  1  0
  7 30  1  6
  8 31  1  0
  8 32  1  0
  8 33  1  0
  9 10  1  0
  9 34  1  1
 10 21  1  0
 10 24  1  0
 10 11  1  1
 11 12  1  0
 12 18  1  0
 12 13  1  1
 12 14  1  0
 13 35  1  0
 13 36  1  0
 13 37  1  0
 14 15  2  0
 14 16  1  0
 16 17  2  0
 16 38  1  0
 17 40  1  0
 17 18  1  0
 18 19  1  0
 18 39  1  1
 19 20  1  0
 19 23  1  0
 19 41  1  1
 20 21  1  0
 21 22  2  0
 23 24  1  0
 24 42  1  6
M  END
>  <i_m_ct_stereo_status>  (257) 
1

>  <s_m_source_file>  (257) 
/var/tmp/pbs.5076255.sched01/tmpz7l6rxva/92z_h6r8yo.sdf

>  <i_m_source_file_index>  (257) 
12

>  <i_lp_mmshare_version>  (257) 
48012

>  <i_f3d_flags>  (257) 
0

>  <s_epik_input>  (257) 
W0NIM11bQ0BASF0xQyg9TylbQ0gyXVtDQEhdKFtDQEhdMVtDQEBdMjM0KUMoPVtDSDJdKVtDQEBIXTRPW0NASF0oT0MzPU8pQzVbQ0BAXShPMikoW0NIM10pQyg9TylbQ0gyXVtDSF09NQ==

>  <s_epik_cmdline>  (257) 
J2VwaWtfcHl0aG9uJywgJy1waHQnLCAnMi4wJywgJy1waCcsICc3LjAnLCAnLXRuJywgJzgnLCAnLW1hJywgJzIwMCcsICctaW1hZScsICc8aW5maWxlLm1hZT4nLCAnLW9tYWUnLCAnPG91dGZpbGUubWFlPic=

>  <r_lp_tautomer_probability>  (257) 
1

>  <r_epik_Ionization_Penalty>  (257) 
1.78411e-11

>  <r_epik_Ionization_Penalty_Charging>  (257) 
0

>  <r_epik_Ionization_Penalty_Neutral>  (257) 
1.78411e-11

>  <r_epik_State_Penalty>  (257) 
-0

>  <r_epik_Charging_Adjusted_Penalty>  (257) 
0

>  <i_epik_Tot_Q>  (257) 
0

>  <i_epik_Tot_abs_Q>  (257) 
0

>  <s_epik_Chemistry_Notes>  (257) 
This compound has an ester and may undergo hydrolysis at high or low pH. This compound contains an acetal/aminal-like group ( X-CH(R)-Y where X, Y are N, S, or O) that may be acid/base labile, releasing an aldehyde.

>  <s_lp_Force_Field>  (257) 
OPLS3e

>  <r_lp_Energy>  (257) 
30.8333

>  <b_lp_Chiralities_Consistent>  (257) 
1

>  <s_lp_Variant>  (257) 
70:0-2

>  <s_i_glide_gridfile>  (257) 
pfpi4k_grid

>  <i_i_glide_lignum>  (257) 
12

>  <i_i_glide_rotatable_bonds>  (257) 
0

>  <r_i_docking_score>  (257) 
-2.28789

>  <r_i_glide_ligand_efficiency>  (257) 
-0.0953289

>  <r_i_glide_ligand_efficiency_sa>  (257) 
-0.274976

>  <r_i_glide_ligand_efficiency_ln>  (257) 
-0.547598

>  <r_i_glide_gscore>  (257) 
-2.28789

>  <r_i_glide_lipo>  (257) 
-0.188412

>  <r_i_glide_hbond>  (257) 
0

>  <r_i_glide_metal>  (257) 
-0

>  <r_i_glide_rewards>  (257) 
-1.15942

>  <r_i_glide_evdw>  (257) 
-15.8101

>  <r_i_glide_ecoul>  (257) 
-0.98444

>  <r_i_glide_erotb>  (257) 
0

>  <r_i_glide_esite>  (257) 
-0.00189555

>  <r_i_glide_emodel>  (257) 
-20.2072

>  <r_i_glide_energy>  (257) 
-16.7945

>  <r_i_glide_einternal>  (257) 
0

>  <r_i_glide_intrahb_reward>  (257) 
-0

>  <i_i_glide_confnum>  (257) 
1

>  <i_i_glide_posenum>  (257) 
1

>  <r_i_glide_eff_state_penalty>  (257) 
0

>  <ligand_id>  (257) 
70

>  <original_smiles>  (257) 
C=C1C2CC(=O)C(C)C2C23OC4(C)C(=O)CC=C4C(OC2=O)OC13

>  <smiles>  (257) 
[H]C([H])=C1C2([H])OC3([H])OC(=O)C2(OC2(C([H])([H])[H])C(=O)C([H])=C([H])C32[H])C2([H])C([H])(C([H])([H])[H])C(=O)C([H])([H])C12[H]

$$$$
70:1:2
     RDKit          3D

 42 46  0  0  1  0  0  0  0  0999 V2000
    1.0512   -5.4454   -0.7079 C   0  0  0  0  0  0  0  0  0  0  0  0
    2.0864   -4.5864   -0.5008 C   0  0  0  0  0  0  0  0  0  0  0  0
    2.3222   -3.3079   -1.3038 C   0  0  2  0  0  0  0  0  0  0  0  0
    2.8093   -3.3795   -2.7586 C   0  0  0  0  0  0  0  0  0  0  0  0
    4.2983   -3.2357   -2.6278 C   0  0  0  0  0  0  0  0  0  0  0  0
    5.0735   -3.3477   -3.5562 O   0  0  0  0  0  0  0  0  0  0  0  0
    4.7231   -2.8951   -1.2136 C   0  0  1  0  0  0  0  0  0  0  0  0
    5.8103   -1.8128   -1.1311 C   0  0  0  0  0  0  0  0  0  0  0  0
    3.3946   -2.5268   -0.4947 C   0  0  2  0  0  0  0  0  0  0  0  0
    3.2934   -3.0795    0.9502 C   0  0  1  0  0  0  0  0  0  0  0  0
    4.5541   -2.9001    1.5102 O   0  0  0  0  0  0  0  0  0  0  0  0
    4.8658   -3.5953    2.7086 C   0  0  2  0  0  0  0  0  0  0  0  0
    5.5859   -2.5185    3.4884 C   0  0  0  0  0  0  0  0  0  0  0  0
    5.8090   -4.7447    2.3595 C   0  0  0  0  0  0  0  0  0  0  0  0
    6.6678   -4.6571    1.4857 O   0  0  0  0  0  0  0  0  0  0  0  0
    5.5012   -5.9095    3.1738 C   0  0  0  0  0  0  0  0  0  0  0  0
    4.3892   -5.6297    3.8868 C   0  0  0  0  0  0  0  0  0  0  0  0
    3.8028   -4.2646    3.6181 C   0  0  2  0  0  0  0  0  0  0  0  0
    2.3667   -4.3807    3.0480 C   0  0  1  0  0  0  0  0  0  0  0  0
    1.8234   -3.1043    2.9027 O   0  0  0  0  0  0  0  0  0  0  0  0
    2.2599   -2.3588    1.8566 C   0  0  0  0  0  0  0  0  0  0  0  0
    1.9738   -1.1866    1.7034 O   0  0  0  0  0  0  0  0  0  0  0  0
    2.3275   -5.1369    1.8677 O   0  0  0  0  0  0  0  0  0  0  0  0
    2.9688   -4.5704    0.7386 C   0  0  1  0  0  0  0  0  0  0  0  0
    0.8923   -6.2720   -0.0371 H   0  0  0  0  0  0  0  0  0  0  0  0
    0.4657   -5.2896   -1.5813 H   0  0  0  0  0  0  0  0  0  0  0  0
    1.3684   -2.8024   -1.3588 H   0  0  0  0  0  0  0  0  0  0  0  0
    2.4972   -4.2560   -3.3331 H   0  0  0  0  0  0  0  0  0  0  0  0
    2.4717   -2.5053   -3.2979 H   0  0  0  0  0  0  0  0  0  0  0  0
    5.1360   -3.8196   -0.8166 H   0  0  0  0  0  0  0  0  0  0  0  0
    6.7116   -2.1311   -1.6474 H   0  0  0  0  0  0  0  0  0  0  0  0
    6.0863   -1.6087   -0.0949 H   0  0  0  0  0  0  0  0  0  0  0  0
    5.4678   -0.8817   -1.5758 H   0  0  0  0  0  0  0  0  0  0  0  0
    3.2231   -1.4501   -0.5592 H   0  0  0  0  0  0  0  0  0  0  0  0
    6.0713   -2.9730    4.3533 H   0  0  0  0  0  0  0  0  0  0  0  0
    4.9892   -1.6787    3.8420 H   0  0  0  0  0  0  0  0  0  0  0  0
    6.3527   -2.1030    2.8380 H   0  0  0  0  0  0  0  0  0  0  0  0
    6.0708   -6.8134    3.1968 H   0  0  0  0  0  0  0  0  0  0  0  0
    3.7400   -3.7315    4.5753 H   0  0  0  0  0  0  0  0  0  0  0  0
    3.9483   -6.2990    4.5964 H   0  0  0  0  0  0  0  0  0  0  0  0
    1.7383   -4.8886    3.7786 H   0  0  0  0  0  0  0  0  0  0  0  0
    3.8623   -5.1491    0.4776 H   0  0  0  0  0  0  0  0  0  0  0  0
  1  2  2  0
  1 25  1  0
  1 26  1  0
  2 24  1  0
  2  3  1  0
  3  9  1  0
  3  4  1  0
  3 27  1  6
  4  5  1  0
  4 28  1  0
  4 29  1  0
  5  6  2  0
  5  7  1  0
  7  8  1  0
  7  9  1  0
  7 30  1  1
  8 31  1  0
  8 32  1  0
  8 33  1  0
  9 10  1  0
  9 34  1  1
 10 21  1  0
 10 24  1  0
 10 11  1  1
 11 12  1  0
 12 18  1  0
 12 13  1  1
 12 14  1  0
 13 35  1  0
 13 36  1  0
 13 37  1  0
 14 15  2  0
 14 16  1  0
 16 17  2  0
 16 38  1  0
 17 40  1  0
 17 18  1  0
 18 19  1  0
 18 39  1  1
 19 20  1  0
 19 23  1  0
 19 41  1  1
 20 21  1  0
 21 22  2  0
 23 24  1  0
 24 42  1  6
M  END
>  <i_m_ct_stereo_status>  (258) 
1

>  <s_m_source_file>  (258) 
/var/tmp/pbs.5076255.sched01/tmpz7l6rxva/92z_h6r8yo.sdf

>  <i_m_source_file_index>  (258) 
12

>  <i_lp_mmshare_version>  (258) 
48012

>  <i_f3d_flags>  (258) 
0

>  <s_epik_input>  (258) 
W0NIM11bQ0BASF0xQyg9TylbQ0gyXVtDQEhdKFtDQEhdMVtDQEBdMjM0KUMoPVtDSDJdKVtDQEBIXTRPW0NASF0oT0MzPU8pQzVbQ0BAXShPMikoW0NIM10pQyg9TylbQ0gyXVtDSF09NQ==

>  <s_epik_cmdline>  (258) 
J2VwaWtfcHl0aG9uJywgJy1waHQnLCAnMi4wJywgJy1waCcsICc3LjAnLCAnLXRuJywgJzgnLCAnLW1hJywgJzIwMCcsICctaW1hZScsICc8aW5maWxlLm1hZT4nLCAnLW9tYWUnLCAnPG91dGZpbGUubWFlPic=

>  <r_lp_tautomer_probability>  (258) 
1

>  <r_epik_Ionization_Penalty>  (258) 
1.78411e-11

>  <r_epik_Ionization_Penalty_Charging>  (258) 
0

>  <r_epik_Ionization_Penalty_Neutral>  (258) 
1.78411e-11

>  <r_epik_State_Penalty>  (258) 
-0

>  <r_epik_Charging_Adjusted_Penalty>  (258) 
0

>  <i_epik_Tot_Q>  (258) 
0

>  <i_epik_Tot_abs_Q>  (258) 
0

>  <s_epik_Chemistry_Notes>  (258) 
This compound has an ester and may undergo hydrolysis at high or low pH. This compound contains an acetal/aminal-like group ( X-CH(R)-Y where X, Y are N, S, or O) that may be acid/base labile, releasing an aldehyde.

>  <s_lp_Force_Field>  (258) 
OPLS3e

>  <r_lp_Energy>  (258) 
30.8333

>  <b_lp_Chiralities_Consistent>  (258) 
1

>  <s_lp_Variant>  (258) 
70:0-2

>  <s_i_glide_gridfile>  (258) 
pfpi4k_grid

>  <i_i_glide_lignum>  (258) 
12

>  <i_i_glide_rotatable_bonds>  (258) 
0

>  <r_i_docking_score>  (258) 
-1.63455

>  <r_i_glide_ligand_efficiency>  (258) 
-0.0681063

>  <r_i_glide_ligand_efficiency_sa>  (258) 
-0.196452

>  <r_i_glide_ligand_efficiency_ln>  (258) 
-0.391223

>  <r_i_glide_gscore>  (258) 
-1.63455

>  <r_i_glide_lipo>  (258) 
-0.136345

>  <r_i_glide_hbond>  (258) 
0

>  <r_i_glide_metal>  (258) 
-0

>  <r_i_glide_rewards>  (258) 
-1.1897

>  <r_i_glide_evdw>  (258) 
0.15105

>  <r_i_glide_ecoul>  (258) 
-1.80483

>  <r_i_glide_erotb>  (258) 
0

>  <r_i_glide_esite>  (258) 
-0.0453363

>  <r_i_glide_emodel>  (258) 
-3.28936

>  <r_i_glide_energy>  (258) 
-1.65378

>  <r_i_glide_einternal>  (258) 
0

>  <r_i_glide_intrahb_reward>  (258) 
-0

>  <i_i_glide_confnum>  (258) 
1

>  <i_i_glide_posenum>  (258) 
19

>  <r_i_glide_eff_state_penalty>  (258) 
0

>  <ligand_id>  (258) 
70

>  <original_smiles>  (258) 
C=C1C2CC(=O)C(C)C2C23OC4(C)C(=O)CC=C4C(OC2=O)OC13

>  <smiles>  (258) 
[H]C([H])=C1C2([H])OC3([H])OC(=O)C2(OC2(C([H])([H])[H])C(=O)C([H])=C([H])C32[H])C2([H])C([H])(C([H])([H])[H])C(=O)C([H])([H])C12[H]

$$$$
72:0:0
     RDKit          3D

 51 57  0  0  1  0  0  0  0  0999 V2000
    0.1469   -6.2491    5.3793 C   0  0  0  0  0  0  0  0  0  0  0  0
    1.1065   -7.1151    4.5092 C   0  0  2  0  0  0  0  0  0  0  0  0
    2.3327   -7.5687    5.4132 C   0  0  2  0  0  0  0  0  0  0  0  0
    3.0499   -6.3449    6.0646 C   0  0  0  0  0  0  0  0  0  0  0  0
    3.8650   -6.7418    7.3108 C   0  0  1  0  0  0  0  0  0  0  0  0
    2.9667   -7.0213    8.3728 O   0  0  0  0  0  0  0  0  0  0  0  0
    4.7683   -7.9675    7.0848 C   0  0  0  0  0  0  0  0  0  0  0  0
    4.0614   -9.0864    6.2963 C   0  0  0  0  0  0  0  0  0  0  0  0
    3.4378   -8.6068    4.9514 C   0  0  2  0  0  0  0  0  0  0  0  0
    4.6050   -8.2240    3.8999 C   0  0  1  0  0  0  0  0  0  0  0  0
    5.5320   -9.4277    3.5392 C   0  0  0  0  0  0  0  0  0  0  0  0
    6.9279   -9.0006    3.0139 C   0  0  0  0  0  0  0  0  0  0  0  0
    6.9036   -7.6836    2.2845 C   0  0  0  0  0  0  0  0  0  0  0  0
    8.0575   -7.1081    1.7907 N   0  0  0  0  0  0  0  0  0  0  0  0
    7.8991   -5.8575    1.1973 C   0  0  0  0  0  0  0  0  0  0  0  0
    8.7462   -5.1536    0.6841 O   0  0  0  0  0  0  0  0  0  0  0  0
    6.1398   -5.4285    1.3091 S   0  0  0  0  0  0  0  0  0  0  0  0
    5.7993   -6.9473    2.1039 C   0  0  0  0  0  0  0  0  0  0  0  0
    4.4186   -7.3618    2.5813 C   0  0  1  0  0  0  0  0  0  0  0  0
    3.7594   -8.0143    1.3044 C   0  0  0  0  0  0  0  0  0  0  0  0
    2.3531   -8.5447    1.4016 C   0  0  1  0  0  0  0  0  0  0  0  0
    1.9909   -9.0383    2.6225 O   0  0  0  0  0  0  0  0  0  0  0  0
    1.2509   -7.8348    2.2629 C   0  0  1  0  0  0  0  0  0  0  0  0
    1.4003   -6.6122    3.0627 C   0  0  1  0  0  0  0  0  0  0  0  0
   -0.0407   -6.6426    2.9083 O   0  0  0  0  0  0  0  0  0  0  0  0
    0.3579   -7.9382    3.3932 C   0  0  2  0  0  0  0  0  0  0  0  0
    8.9720   -7.5376    1.8298 H   0  0  0  0  0  0  0  0  0  0  0  0
    0.0090   -6.5880    6.4031 H   0  0  0  0  0  0  0  0  0  0  0  0
   -0.8762   -6.1954    4.9856 H   0  0  0  0  0  0  0  0  0  0  0  0
    0.4431   -5.1992    5.4246 H   0  0  0  0  0  0  0  0  0  0  0  0
    1.8054   -8.0598    6.2446 H   0  0  0  0  0  0  0  0  0  0  0  0
    3.7041   -5.8931    5.3191 H   0  0  0  0  0  0  0  0  0  0  0  0
    2.3708   -5.5447    6.3650 H   0  0  0  0  0  0  0  0  0  0  0  0
    4.4845   -5.9003    7.6098 H   0  0  0  0  0  0  0  0  0  0  0  0
    2.4839   -7.7897    8.1399 H   0  0  0  0  0  0  0  0  0  0  0  0
    5.6839   -7.6715    6.5691 H   0  0  0  0  0  0  0  0  0  0  0  0
    5.1046   -8.3605    8.0429 H   0  0  0  0  0  0  0  0  0  0  0  0
    4.7360   -9.9238    6.1587 H   0  0  0  0  0  0  0  0  0  0  0  0
    3.2745   -9.5080    6.9248 H   0  0  0  0  0  0  0  0  0  0  0  0
    2.9265   -9.5080    4.6238 H   0  0  0  0  0  0  0  0  0  0  0  0
    5.2256   -7.5580    4.4916 H   0  0  0  0  0  0  0  0  0  0  0  0
    5.7069  -10.0930    4.3766 H   0  0  0  0  0  0  0  0  0  0  0  0
    5.0314  -10.0474    2.7967 H   0  0  0  0  0  0  0  0  0  0  0  0
    7.6148   -8.8880    3.8529 H   0  0  0  0  0  0  0  0  0  0  0  0
    7.3281   -9.7680    2.3550 H   0  0  0  0  0  0  0  0  0  0  0  0
    3.9418   -6.4192    2.8394 H   0  0  0  0  0  0  0  0  0  0  0  0
    3.7250   -7.2535    0.5093 H   0  0  0  0  0  0  0  0  0  0  0  0
    4.3995   -8.8130    0.9111 H   0  0  0  0  0  0  0  0  0  0  0  0
    1.9421   -9.0996    0.5586 H   0  0  0  0  0  0  0  0  0  0  0  0
    1.9405   -5.6973    2.7836 H   0  0  0  0  0  0  0  0  0  0  0  0
   -0.4442   -8.7014    3.5180 H   0  0  0  0  0  0  0  0  0  0  0  0
  2  1  1  1
  1 28  1  0
  1 29  1  0
  1 30  1  0
  2 24  1  0
  2 26  1  0
  2  3  1  0
  3  9  1  0
  3  4  1  0
  3 31  1  1
  4  5  1  0
  4 32  1  0
  4 33  1  0
  5  6  1  0
  5  7  1  0
  5 34  1  1
  6 35  1  0
  7  8  1  0
  7 36  1  0
  7 37  1  0
  8  9  1  0
  8 38  1  0
  8 39  1  0
  9 10  1  0
  9 40  1  6
 10 19  1  0
 10 11  1  0
 10 41  1  1
 11 12  1  0
 11 42  1  0
 11 43  1  0
 12 13  1  0
 12 44  1  0
 12 45  1  0
 13 18  2  0
 13 14  1  0
 14 27  1  0
 14 15  1  0
 15 16  2  0
 15 17  1  0
 17 18  1  0
 18 19  1  0
 19 20  1  0
 19 46  1  1
 20 21  1  0
 20 47  1  0
 20 48  1  0
 21 23  1  0
 21 22  1  0
 21 49  1  6
 23 22  1  1
 23 26  1  0
 23 24  1  0
 24 25  1  0
 24 50  1  1
 25 26  1  0
 26 51  1  1
M  END
>  <i_m_ct_stereo_status>  (259) 
1

>  <s_m_source_file>  (259) 
/var/tmp/pbs.5076255.sched01/tmpz7l6rxva/92z_h6r8yo.sdf

>  <i_m_source_file_index>  (259) 
17

>  <i_lp_mmshare_version>  (259) 
48012

>  <i_f3d_flags>  (259) 
0

>  <s_epik_input>  (259) 
W0NIMl0xW0NIMl1bQ0BIXShbT0hdKVtDSDJdW0NAQEhdKFtDQEBdMihbQ0gzXSlbQ0BASF0zT1tDQEhdMjQpW0NASF0xW0NASF0oW0NAQEhdNVtDSDJdW0NAQEhdKE82KUMzNDYpW0NIMl1bQ0gyXWM3YzVzYyg9TylbbkhdNw==

>  <s_epik_cmdline>  (259) 
J2VwaWtfcHl0aG9uJywgJy1waHQnLCAnMi4wJywgJy1waCcsICc3LjAnLCAnLXRuJywgJzgnLCAnLW1hJywgJzIwMCcsICctaW1hZScsICc8aW5maWxlLm1hZT4nLCAnLW9tYWUnLCAnPG91dGZpbGUubWFlPic=

>  <r_lp_tautomer_probability>  (259) 
1

>  <r_epik_Ionization_Penalty>  (259) 
3.59574e-05

>  <r_epik_Ionization_Penalty_Charging>  (259) 
3.42621e-05

>  <r_epik_Ionization_Penalty_Neutral>  (259) 
1.69537e-06

>  <r_epik_State_Penalty>  (259) 
-0

>  <r_epik_Charging_Adjusted_Penalty>  (259) 
3.42621e-05

>  <i_epik_Tot_Q>  (259) 
0

>  <i_epik_Tot_abs_Q>  (259) 
0

>  <s_lp_Force_Field>  (259) 
OPLS3e

>  <r_lp_Energy>  (259) 
134.081

>  <b_lp_Chiralities_Consistent>  (259) 
1

>  <s_lp_Variant>  (259) 
72:0-1

>  <s_i_glide_gridfile>  (259) 
pfpi4k_grid

>  <i_i_glide_lignum>  (259) 
17

>  <i_i_glide_rotatable_bonds>  (259) 
1

>  <r_i_docking_score>  (259) 
-3.00543

>  <r_i_glide_ligand_efficiency>  (259) 
-0.115593

>  <r_i_glide_ligand_efficiency_sa>  (259) 
-0.342445

>  <r_i_glide_ligand_efficiency_ln>  (259) 
-0.705816

>  <r_i_glide_gscore>  (259) 
-3.00543

>  <r_i_glide_lipo>  (259) 
-0.238067

>  <r_i_glide_hbond>  (259) 
-0.294111

>  <r_i_glide_metal>  (259) 
-0

>  <r_i_glide_rewards>  (259) 
-0.848981

>  <r_i_glide_evdw>  (259) 
-17.5539

>  <r_i_glide_ecoul>  (259) 
-4.59925

>  <r_i_glide_erotb>  (259) 
0

>  <r_i_glide_esite>  (259) 
-0.0566904

>  <r_i_glide_emodel>  (259) 
-25.7532

>  <r_i_glide_energy>  (259) 
-22.1531

>  <r_i_glide_einternal>  (259) 
0.0183345

>  <r_i_glide_intrahb_reward>  (259) 
-0

>  <i_i_glide_confnum>  (259) 
1

>  <i_i_glide_posenum>  (259) 
21

>  <r_i_glide_eff_state_penalty>  (259) 
0

>  <ligand_id>  (259) 
72

>  <original_smiles>  (259) 
CC12C3CC(O)CCC3C3CCc4[nH]c(=O)sc4C3CC3OC34C1OC24

>  <smiles>  (259) 
[H]OC1([H])C([H])([H])C([H])([H])C2([H])C3([H])C([H])([H])C([H])([H])c4c(sc(=O)n4[H])C3([H])C([H])([H])C3([H])OC34C3([H])OC4([H])C3(C([H])([H])[H])C2([H])C1([H])[H]

$$$$
72:0:1
     RDKit          3D

 51 57  0  0  1  0  0  0  0  0999 V2000
   -1.8465    2.1978    3.8719 C   0  0  0  0  0  0  0  0  0  0  0  0
   -0.6304    1.3251    4.3350 C   0  0  2  0  0  0  0  0  0  0  0  0
    0.6258    2.2738    4.4637 C   0  0  2  0  0  0  0  0  0  0  0  0
    0.9096    3.0467    3.1437 C   0  0  0  0  0  0  0  0  0  0  0  0
    1.7506    4.3142    3.3749 C   0  0  1  0  0  0  0  0  0  0  0  0
    0.9391    5.2952    3.9852 O   0  0  0  0  0  0  0  0  0  0  0  0
    2.9961    4.0623    4.2399 C   0  0  0  0  0  0  0  0  0  0  0  0
    2.7026    3.1528    5.4481 C   0  0  0  0  0  0  0  0  0  0  0  0
    2.0135    1.8053    5.0655 C   0  0  2  0  0  0  0  0  0  0  0  0
    3.0512    0.8646    4.2515 C   0  0  1  0  0  0  0  0  0  0  0  0
    4.3180    0.4750    5.0809 C   0  0  0  0  0  0  0  0  0  0  0  0
    5.5356    0.0643    4.2083 C   0  0  0  0  0  0  0  0  0  0  0  0
    5.1089   -0.5770    2.9060 C   0  0  0  0  0  0  0  0  0  0  0  0
    6.0585   -0.9542    1.9728 N   0  0  0  0  0  0  0  0  0  0  0  0
    5.5458   -1.4313    0.7691 C   0  0  0  0  0  0  0  0  0  0  0  0
    6.1672   -1.7939   -0.2181 O   0  0  0  0  0  0  0  0  0  0  0  0
    3.7363   -1.4002    0.8991 S   0  0  0  0  0  0  0  0  0  0  0  0
    3.8520   -0.7588    2.5189 C   0  0  0  0  0  0  0  0  0  0  0  0
    2.6467   -0.3975    3.3747 C   0  0  1  0  0  0  0  0  0  0  0  0
    2.2771   -1.7569    4.0817 C   0  0  0  0  0  0  0  0  0  0  0  0
    1.1079   -1.8085    5.0135 C   0  0  1  0  0  0  0  0  0  0  0  0
    0.8527   -0.6836    5.7243 O   0  0  0  0  0  0  0  0  0  0  0  0
   -0.1890   -0.9550    4.7612 C   0  0  1  0  0  0  0  0  0  0  0  0
   -0.4538   -0.0582    3.6338 C   0  0  1  0  0  0  0  0  0  0  0  0
   -1.7954   -0.2983    4.0941 O   0  0  0  0  0  0  0  0  0  0  0  0
   -1.0421    0.1198    5.2479 C   0  0  2  0  0  0  0  0  0  0  0  0
    7.0339   -0.8119    2.0856 H   0  0  0  0  0  0  0  0  0  0  0  0
   -1.9132    3.1912    4.3150 H   0  0  0  0  0  0  0  0  0  0  0  0
   -2.8161    1.7565    4.0906 H   0  0  0  0  0  0  0  0  0  0  0  0
   -1.8944    2.3256    2.7881 H   0  0  0  0  0  0  0  0  0  0  0  0
    0.2536    3.0449    5.1533 H   0  0  0  0  0  0  0  0  0  0  0  0
    1.4183    2.3868    2.4447 H   0  0  0  0  0  0  0  0  0  0  0  0
   -0.0072    3.3407    2.6318 H   0  0  0  0  0  0  0  0  0  0  0  0
    2.0654    4.7099    2.4103 H   0  0  0  0  0  0  0  0  0  0  0  0
    0.4020    5.6572    3.3025 H   0  0  0  0  0  0  0  0  0  0  0  0
    3.7919    3.6296    3.6312 H   0  0  0  0  0  0  0  0  0  0  0  0
    3.3943    5.0139    4.5916 H   0  0  0  0  0  0  0  0  0  0  0  0
    3.6108    3.0005    6.0206 H   0  0  0  0  0  0  0  0  0  0  0  0
    2.0579    3.7001    6.1343 H   0  0  0  0  0  0  0  0  0  0  0  0
    1.8159    1.3750    6.0481 H   0  0  0  0  0  0  0  0  0  0  0  0
    3.4003    1.5425    3.4788 H   0  0  0  0  0  0  0  0  0  0  0  0
    4.6508    1.2771    5.7310 H   0  0  0  0  0  0  0  0  0  0  0  0
    4.0578   -0.3366    5.7455 H   0  0  0  0  0  0  0  0  0  0  0  0
    6.1125    0.9598    3.9549 H   0  0  0  0  0  0  0  0  0  0  0  0
    6.2122   -0.6013    4.7462 H   0  0  0  0  0  0  0  0  0  0  0  0
    1.9005   -0.1068    2.6409 H   0  0  0  0  0  0  0  0  0  0  0  0
    2.0428   -2.4980    3.2970 H   0  0  0  0  0  0  0  0  0  0  0  0
    3.1595   -2.1703    4.6017 H   0  0  0  0  0  0  0  0  0  0  0  0
    0.9512   -2.7347    5.5446 H   0  0  0  0  0  0  0  0  0  0  0  0
   -0.2219   -0.2349    2.5771 H   0  0  0  0  0  0  0  0  0  0  0  0
   -1.5651    0.1254    6.2229 H   0  0  0  0  0  0  0  0  0  0  0  0
  2  1  1  6
  1 28  1  0
  1 29  1  0
  1 30  1  0
  2 24  1  0
  2 26  1  0
  2  3  1  0
  3  9  1  0
  3  4  1  0
  3 31  1  1
  4  5  1  0
  4 32  1  0
  4 33  1  0
  5  6  1  0
  5  7  1  0
  5 34  1  6
  6 35  1  0
  7  8  1  0
  7 36  1  0
  7 37  1  0
  8  9  1  0
  8 38  1  0
  8 39  1  0
  9 10  1  0
  9 40  1  1
 10 19  1  0
 10 11  1  0
 10 41  1  6
 11 12  1  0
 11 42  1  0
 11 43  1  0
 12 13  1  0
 12 44  1  0
 12 45  1  0
 13 18  2  0
 13 14  1  0
 14 27  1  0
 14 15  1  0
 15 16  2  0
 15 17  1  0
 17 18  1  0
 18 19  1  0
 19 20  1  0
 19 46  1  6
 20 21  1  0
 20 47  1  0
 20 48  1  0
 21 23  1  0
 21 22  1  0
 21 49  1  1
 23 22  1  1
 23 26  1  0
 23 24  1  0
 24 25  1  0
 24 50  1  6
 25 26  1  0
 26 51  1  1
M  END
>  <i_m_ct_stereo_status>  (260) 
1

>  <s_m_source_file>  (260) 
/var/tmp/pbs.5076255.sched01/tmpz7l6rxva/92z_h6r8yo.sdf

>  <i_m_source_file_index>  (260) 
17

>  <i_lp_mmshare_version>  (260) 
48012

>  <i_f3d_flags>  (260) 
0

>  <s_epik_input>  (260) 
W0NIMl0xW0NIMl1bQ0BIXShbT0hdKVtDSDJdW0NAQEhdKFtDQEBdMihbQ0gzXSlbQ0BASF0zT1tDQEhdMjQpW0NASF0xW0NASF0oW0NAQEhdNVtDSDJdW0NAQEhdKE82KUMzNDYpW0NIMl1bQ0gyXWM3YzVzYyg9TylbbkhdNw==

>  <s_epik_cmdline>  (260) 
J2VwaWtfcHl0aG9uJywgJy1waHQnLCAnMi4wJywgJy1waCcsICc3LjAnLCAnLXRuJywgJzgnLCAnLW1hJywgJzIwMCcsICctaW1hZScsICc8aW5maWxlLm1hZT4nLCAnLW9tYWUnLCAnPG91dGZpbGUubWFlPic=

>  <r_lp_tautomer_probability>  (260) 
1

>  <r_epik_Ionization_Penalty>  (260) 
3.59574e-05

>  <r_epik_Ionization_Penalty_Charging>  (260) 
3.42621e-05

>  <r_epik_Ionization_Penalty_Neutral>  (260) 
1.69537e-06

>  <r_epik_State_Penalty>  (260) 
-0

>  <r_epik_Charging_Adjusted_Penalty>  (260) 
3.42621e-05

>  <i_epik_Tot_Q>  (260) 
0

>  <i_epik_Tot_abs_Q>  (260) 
0

>  <s_lp_Force_Field>  (260) 
OPLS3e

>  <r_lp_Energy>  (260) 
134.081

>  <b_lp_Chiralities_Consistent>  (260) 
1

>  <s_lp_Variant>  (260) 
72:0-1

>  <s_i_glide_gridfile>  (260) 
pfpi4k_grid

>  <i_i_glide_lignum>  (260) 
17

>  <i_i_glide_rotatable_bonds>  (260) 
1

>  <r_i_docking_score>  (260) 
-2.78202

>  <r_i_glide_ligand_efficiency>  (260) 
-0.107001

>  <r_i_glide_ligand_efficiency_sa>  (260) 
-0.316989

>  <r_i_glide_ligand_efficiency_ln>  (260) 
-0.653348

>  <r_i_glide_gscore>  (260) 
-2.78202

>  <r_i_glide_lipo>  (260) 
-0.367462

>  <r_i_glide_hbond>  (260) 
-0.0620578

>  <r_i_glide_metal>  (260) 
-0

>  <r_i_glide_rewards>  (260) 
-0.848981

>  <r_i_glide_evdw>  (260) 
-20.4128

>  <r_i_glide_ecoul>  (260) 
-3.21918

>  <r_i_glide_erotb>  (260) 
0

>  <r_i_glide_esite>  (260) 
0

>  <r_i_glide_emodel>  (260) 
-26.466

>  <r_i_glide_energy>  (260) 
-23.632

>  <r_i_glide_einternal>  (260) 
0.580793

>  <r_i_glide_intrahb_reward>  (260) 
-0

>  <i_i_glide_confnum>  (260) 
2

>  <i_i_glide_posenum>  (260) 
30

>  <r_i_glide_eff_state_penalty>  (260) 
0

>  <ligand_id>  (260) 
72

>  <original_smiles>  (260) 
CC12C3CC(O)CCC3C3CCc4[nH]c(=O)sc4C3CC3OC34C1OC24

>  <smiles>  (260) 
[H]OC1([H])C([H])([H])C([H])([H])C2([H])C3([H])C([H])([H])C([H])([H])c4c(sc(=O)n4[H])C3([H])C([H])([H])C3([H])OC34C3([H])OC4([H])C3(C([H])([H])[H])C2([H])C1([H])[H]

$$$$
72:0:2
     RDKit          3D

 51 57  0  0  1  0  0  0  0  0999 V2000
    1.3299  -11.6794    3.9840 C   0  0  0  0  0  0  0  0  0  0  0  0
    1.9291  -10.2739    4.2937 C   0  0  2  0  0  0  0  0  0  0  0  0
    0.8342   -9.1888    3.9544 C   0  0  2  0  0  0  0  0  0  0  0  0
    0.3361   -9.3050    2.4832 C   0  0  0  0  0  0  0  0  0  0  0  0
   -1.0420   -8.6498    2.2956 C   0  0  1  0  0  0  0  0  0  0  0  0
   -2.0489   -9.4509    2.8758 O   0  0  0  0  0  0  0  0  0  0  0  0
   -1.1101   -7.2285    2.8696 C   0  0  0  0  0  0  0  0  0  0  0  0
   -0.4770   -7.1183    4.2647 C   0  0  0  0  0  0  0  0  0  0  0  0
    0.9902   -7.6465    4.3079 C   0  0  2  0  0  0  0  0  0  0  0  0
    1.9492   -6.6506    3.4676 C   0  0  1  0  0  0  0  0  0  0  0  0
    1.9914   -5.1950    4.0396 C   0  0  0  0  0  0  0  0  0  0  0  0
    2.4224   -4.1333    2.9977 C   0  0  0  0  0  0  0  0  0  0  0  0
    3.3631   -4.6874    1.9606 C   0  0  0  0  0  0  0  0  0  0  0  0
    3.8134   -3.8997    0.9223 N   0  0  0  0  0  0  0  0  0  0  0  0
    4.6392   -4.5470   -0.0024 C   0  0  0  0  0  0  0  0  0  0  0  0
    5.1808   -4.0797   -0.9813 O   0  0  0  0  0  0  0  0  0  0  0  0
    4.7846   -6.2762    0.5282 S   0  0  0  0  0  0  0  0  0  0  0  0
    3.7910   -5.9563    1.9251 C   0  0  0  0  0  0  0  0  0  0  0  0
    3.4101   -7.0011    2.9567 C   0  0  1  0  0  0  0  0  0  0  0  0
    4.6165   -6.9974    3.9652 C   0  0  0  0  0  0  0  0  0  0  0  0
    4.5933   -7.9395    5.1303 C   0  0  1  0  0  0  0  0  0  0  0  0
    3.3691   -8.2075    5.6537 O   0  0  0  0  0  0  0  0  0  0  0  0
    3.9856   -9.3744    5.0411 C   0  0  1  0  0  0  0  0  0  0  0  0
    3.4012  -10.0089    3.8468 C   0  0  1  0  0  0  0  0  0  0  0  0
    3.7000  -11.1782    4.6359 O   0  0  0  0  0  0  0  0  0  0  0  0
    2.9457  -10.2902    5.4899 C   0  0  2  0  0  0  0  0  0  0  0  0
    3.5809   -2.9355    0.8039 H   0  0  0  0  0  0  0  0  0  0  0  0
    0.2823  -11.8177    4.2479 H   0  0  0  0  0  0  0  0  0  0  0  0
    1.8393  -12.4850    4.5149 H   0  0  0  0  0  0  0  0  0  0  0  0
    1.4431  -11.9645    2.9368 H   0  0  0  0  0  0  0  0  0  0  0  0
   -0.0124   -9.5320    4.5662 H   0  0  0  0  0  0  0  0  0  0  0  0
    1.0725   -8.8462    1.8254 H   0  0  0  0  0  0  0  0  0  0  0  0
    0.2523  -10.3326    2.1305 H   0  0  0  0  0  0  0  0  0  0  0  0
   -1.2639   -8.5900    1.2350 H   0  0  0  0  0  0  0  0  0  0  0  0
   -1.7830   -9.7373    3.7454 H   0  0  0  0  0  0  0  0  0  0  0  0
   -0.6503   -6.5216    2.1760 H   0  0  0  0  0  0  0  0  0  0  0  0
   -2.1374   -6.9278    2.9412 H   0  0  0  0  0  0  0  0  0  0  0  0
   -0.5712   -6.1007    4.6356 H   0  0  0  0  0  0  0  0  0  0  0  0
   -1.0873   -7.6952    4.9604 H   0  0  0  0  0  0  0  0  0  0  0  0
    1.2107   -7.5643    5.3714 H   0  0  0  0  0  0  0  0  0  0  0  0
    1.4220   -6.5714    2.5216 H   0  0  0  0  0  0  0  0  0  0  0  0
    1.0371   -4.8707    4.4351 H   0  0  0  0  0  0  0  0  0  0  0  0
    2.6661   -5.1766    4.8911 H   0  0  0  0  0  0  0  0  0  0  0  0
    1.5465   -3.7572    2.4697 H   0  0  0  0  0  0  0  0  0  0  0  0
    2.8953   -3.2893    3.4961 H   0  0  0  0  0  0  0  0  0  0  0  0
    3.3741   -7.9214    2.3791 H   0  0  0  0  0  0  0  0  0  0  0  0
    5.5336   -7.2615    3.4121 H   0  0  0  0  0  0  0  0  0  0  0  0
    4.8000   -5.9798    4.3421 H   0  0  0  0  0  0  0  0  0  0  0  0
    5.3918   -7.8429    5.8502 H   0  0  0  0  0  0  0  0  0  0  0  0
    3.7751   -9.9818    2.8155 H   0  0  0  0  0  0  0  0  0  0  0  0
    2.7871  -10.6099    6.5354 H   0  0  0  0  0  0  0  0  0  0  0  0
  2  1  1  6
  1 28  1  0
  1 29  1  0
  1 30  1  0
  2 24  1  0
  2 26  1  0
  2  3  1  0
  3  9  1  0
  3  4  1  0
  3 31  1  1
  4  5  1  0
  4 32  1  0
  4 33  1  0
  5  6  1  0
  5  7  1  0
  5 34  1  6
  6 35  1  0
  7  8  1  0
  7 36  1  0
  7 37  1  0
  8  9  1  0
  8 38  1  0
  8 39  1  0
  9 10  1  0
  9 40  1  1
 10 19  1  0
 10 11  1  0
 10 41  1  6
 11 12  1  0
 11 42  1  0
 11 43  1  0
 12 13  1  0
 12 44  1  0
 12 45  1  0
 13 18  2  0
 13 14  1  0
 14 27  1  0
 14 15  1  0
 15 16  2  0
 15 17  1  0
 17 18  1  0
 18 19  1  0
 19 20  1  0
 19 46  1  6
 20 21  1  0
 20 47  1  0
 20 48  1  0
 21 23  1  0
 21 22  1  0
 21 49  1  1
 23 22  1  6
 23 26  1  0
 23 24  1  0
 24 25  1  0
 24 50  1  6
 25 26  1  0
 26 51  1  1
M  END
>  <i_m_ct_stereo_status>  (261) 
1

>  <s_m_source_file>  (261) 
/var/tmp/pbs.5076255.sched01/tmpz7l6rxva/92z_h6r8yo.sdf

>  <i_m_source_file_index>  (261) 
17

>  <i_lp_mmshare_version>  (261) 
48012

>  <i_f3d_flags>  (261) 
0

>  <s_epik_input>  (261) 
W0NIMl0xW0NIMl1bQ0BIXShbT0hdKVtDSDJdW0NAQEhdKFtDQEBdMihbQ0gzXSlbQ0BASF0zT1tDQEhdMjQpW0NASF0xW0NASF0oW0NAQEhdNVtDSDJdW0NAQEhdKE82KUMzNDYpW0NIMl1bQ0gyXWM3YzVzYyg9TylbbkhdNw==

>  <s_epik_cmdline>  (261) 
J2VwaWtfcHl0aG9uJywgJy1waHQnLCAnMi4wJywgJy1waCcsICc3LjAnLCAnLXRuJywgJzgnLCAnLW1hJywgJzIwMCcsICctaW1hZScsICc8aW5maWxlLm1hZT4nLCAnLW9tYWUnLCAnPG91dGZpbGUubWFlPic=

>  <r_lp_tautomer_probability>  (261) 
1

>  <r_epik_Ionization_Penalty>  (261) 
3.59574e-05

>  <r_epik_Ionization_Penalty_Charging>  (261) 
3.42621e-05

>  <r_epik_Ionization_Penalty_Neutral>  (261) 
1.69537e-06

>  <r_epik_State_Penalty>  (261) 
-0

>  <r_epik_Charging_Adjusted_Penalty>  (261) 
3.42621e-05

>  <i_epik_Tot_Q>  (261) 
0

>  <i_epik_Tot_abs_Q>  (261) 
0

>  <s_lp_Force_Field>  (261) 
OPLS3e

>  <r_lp_Energy>  (261) 
134.081

>  <b_lp_Chiralities_Consistent>  (261) 
1

>  <s_lp_Variant>  (261) 
72:0-1

>  <s_i_glide_gridfile>  (261) 
pfpi4k_grid

>  <i_i_glide_lignum>  (261) 
17

>  <i_i_glide_rotatable_bonds>  (261) 
1

>  <r_i_docking_score>  (261) 
-2.77852

>  <r_i_glide_ligand_efficiency>  (261) 
-0.106866

>  <r_i_glide_ligand_efficiency_sa>  (261) 
-0.316591

>  <r_i_glide_ligand_efficiency_ln>  (261) 
-0.652527

>  <r_i_glide_gscore>  (261) 
-2.77852

>  <r_i_glide_lipo>  (261) 
-0.235483

>  <r_i_glide_hbond>  (261) 
-0.131001

>  <r_i_glide_metal>  (261) 
-0

>  <r_i_glide_rewards>  (261) 
-0.848981

>  <r_i_glide_evdw>  (261) 
-21.51

>  <r_i_glide_ecoul>  (261) 
-3.25039

>  <r_i_glide_erotb>  (261) 
0

>  <r_i_glide_esite>  (261) 
0

>  <r_i_glide_emodel>  (261) 
-27.7807

>  <r_i_glide_energy>  (261) 
-24.7604

>  <r_i_glide_einternal>  (261) 
0.236754

>  <r_i_glide_intrahb_reward>  (261) 
-0

>  <i_i_glide_confnum>  (261) 
2

>  <i_i_glide_posenum>  (261) 
5

>  <r_i_glide_eff_state_penalty>  (261) 
0

>  <ligand_id>  (261) 
72

>  <original_smiles>  (261) 
CC12C3CC(O)CCC3C3CCc4[nH]c(=O)sc4C3CC3OC34C1OC24

>  <smiles>  (261) 
[H]OC1([H])C([H])([H])C([H])([H])C2([H])C3([H])C([H])([H])C([H])([H])c4c(sc(=O)n4[H])C3([H])C([H])([H])C3([H])OC34C3([H])OC4([H])C3(C([H])([H])[H])C2([H])C1([H])[H]

$$$$
72:1:0
     RDKit          3D

 51 57  0  0  1  0  0  0  0  0999 V2000
    4.3888    6.1882    4.4646 C   0  0  0  0  0  0  0  0  0  0  0  0
    3.4083    5.1203    4.9589 C   0  0  1  0  0  0  0  0  0  0  0  0
    2.0304    5.0847    4.1225 C   0  0  2  0  0  0  0  0  0  0  0  0
    1.1886    6.3313    4.4115 C   0  0  0  0  0  0  0  0  0  0  0  0
    0.4573    6.1909    5.7447 C   0  0  1  0  0  0  0  0  0  0  0  0
   -0.1975    7.4041    6.0342 O   0  0  0  0  0  0  0  0  0  0  0  0
   -0.5739    5.0601    5.6457 C   0  0  0  0  0  0  0  0  0  0  0  0
    0.0464    3.7062    5.2528 C   0  0  0  0  0  0  0  0  0  0  0  0
    1.0945    3.7386    4.0940 C   0  0  2  0  0  0  0  0  0  0  0  0
    1.5982    2.2096    3.7645 C   0  0  1  0  0  0  0  0  0  0  0  0
    2.0125    1.9895    2.2790 C   0  0  0  0  0  0  0  0  0  0  0  0
    1.8934    0.5317    1.7800 C   0  0  0  0  0  0  0  0  0  0  0  0
    1.8522   -0.4980    2.8841 C   0  0  0  0  0  0  0  0  0  0  0  0
    1.5612   -1.7958    2.5984 N   0  0  0  0  0  0  0  0  0  0  0  0
    1.4494   -2.6577    3.6894 C   0  0  0  0  0  0  0  0  0  0  0  0
    1.1949   -3.8448    3.7087 O   0  0  0  0  0  0  0  0  0  0  0  0
    1.7436   -1.6623    5.1760 S   0  0  0  0  0  0  0  0  0  0  0  0
    2.0106   -0.2293    4.2066 C   0  0  0  0  0  0  0  0  0  0  0  0
    2.3304    1.1313    4.7809 C   0  0  1  0  0  0  0  0  0  0  0  0
    3.9180    1.0174    5.0900 C   0  0  0  0  0  0  0  0  0  0  0  0
    4.5515    1.8687    6.2564 C   0  0  1  0  0  0  0  0  0  0  0  0
    5.7902    2.7365    6.0872 O   0  0  0  0  0  0  0  0  0  0  0  0
    4.5318    3.2647    6.0116 C   0  0  1  0  0  0  0  0  0  0  0  0
    3.8596    3.7175    4.8267 C   0  0  1  0  0  0  0  0  0  0  0  0
    2.8429    3.5351    5.8928 O   0  0  0  0  0  0  0  0  0  0  0  0
    3.7252    4.4775    6.3950 C   0  0  2  0  0  0  0  0  0  0  0  0
    1.4101   -2.1508    1.6477 H   0  0  0  0  0  0  0  0  0  0  0  0
    4.1189    7.1959    4.7838 H   0  0  0  0  0  0  0  0  0  0  0  0
    4.5108    6.1690    3.3810 H   0  0  0  0  0  0  0  0  0  0  0  0
    5.3766    5.9805    4.8882 H   0  0  0  0  0  0  0  0  0  0  0  0
    2.3400    5.1888    3.0873 H   0  0  0  0  0  0  0  0  0  0  0  0
    1.8103    7.2243    4.4045 H   0  0  0  0  0  0  0  0  0  0  0  0
    0.4640    6.4728    3.6053 H   0  0  0  0  0  0  0  0  0  0  0  0
    1.1670    5.9807    6.5496 H   0  0  0  0  0  0  0  0  0  0  0  0
    0.4650    8.0795    6.1466 H   0  0  0  0  0  0  0  0  0  0  0  0
   -1.0851    4.9447    6.6025 H   0  0  0  0  0  0  0  0  0  0  0  0
   -1.3398    5.3269    4.9154 H   0  0  0  0  0  0  0  0  0  0  0  0
    0.4702    3.2398    6.1421 H   0  0  0  0  0  0  0  0  0  0  0  0
   -0.7821    3.0598    4.9604 H   0  0  0  0  0  0  0  0  0  0  0  0
    0.4595    3.9564    3.2287 H   0  0  0  0  0  0  0  0  0  0  0  0
    0.6046    1.7619    3.7281 H   0  0  0  0  0  0  0  0  0  0  0  0
    1.3834    2.5976    1.6297 H   0  0  0  0  0  0  0  0  0  0  0  0
    3.0159    2.3432    2.1015 H   0  0  0  0  0  0  0  0  0  0  0  0
    0.9682    0.4212    1.2081 H   0  0  0  0  0  0  0  0  0  0  0  0
    2.7205    0.2851    1.1104 H   0  0  0  0  0  0  0  0  0  0  0  0
    1.8095    1.1744    5.7395 H   0  0  0  0  0  0  0  0  0  0  0  0
    4.1415   -0.0092    5.3802 H   0  0  0  0  0  0  0  0  0  0  0  0
    4.4960    1.1574    4.1732 H   0  0  0  0  0  0  0  0  0  0  0  0
    4.2902    1.5695    7.2664 H   0  0  0  0  0  0  0  0  0  0  0  0
    3.7960    3.1706    3.9222 H   0  0  0  0  0  0  0  0  0  0  0  0
    3.4801    4.7903    7.3974 H   0  0  0  0  0  0  0  0  0  0  0  0
  2  1  1  6
  1 28  1  0
  1 29  1  0
  1 30  1  0
  2 24  1  0
  2 26  1  0
  2  3  1  0
  3  9  1  0
  3  4  1  0
  3 31  1  6
  4  5  1  0
  4 32  1  0
  4 33  1  0
  5  6  1  0
  5  7  1  0
  5 34  1  1
  6 35  1  0
  7  8  1  0
  7 36  1  0
  7 37  1  0
  8  9  1  0
  8 38  1  0
  8 39  1  0
  9 10  1  0
  9 40  1  6
 10 19  1  0
 10 11  1  0
 10 41  1  6
 11 12  1  0
 11 42  1  0
 11 43  1  0
 12 13  1  0
 12 44  1  0
 12 45  1  0
 13 18  2  0
 13 14  1  0
 14 27  1  0
 14 15  1  0
 15 16  2  0
 15 17  1  0
 17 18  1  0
 18 19  1  0
 19 20  1  0
 19 46  1  1
 20 21  1  0
 20 47  1  0
 20 48  1  0
 21 23  1  0
 21 22  1  0
 21 49  1  1
 23 22  1  6
 23 26  1  0
 23 24  1  0
 24 25  1  0
 24 50  1  6
 25 26  1  0
 26 51  1  1
M  END
>  <i_m_ct_stereo_status>  (262) 
1

>  <s_m_source_file>  (262) 
/var/tmp/pbs.5076255.sched01/tmpz7l6rxva/92z_h6r8yo.sdf

>  <i_m_source_file_index>  (262) 
18

>  <i_lp_mmshare_version>  (262) 
48012

>  <i_f3d_flags>  (262) 
0

>  <s_epik_input>  (262) 
W0NIMl0xW0NIMl1bQ0BIXShbT0hdKVtDSDJdW0NAQEhdKFtDQEBdMihbQ0gzXSlbQ0BASF0zT1tDQEhdMjQpW0NASF0xW0NASF0oW0NAQEhdNVtDSDJdW0NAQEhdKE82KUMzNDYpW0NIMl1bQ0gyXWM3YzVzYyg9TylbbkhdNw==

>  <s_epik_cmdline>  (262) 
J2VwaWtfcHl0aG9uJywgJy1waHQnLCAnMi4wJywgJy1waCcsICc3LjAnLCAnLXRuJywgJzgnLCAnLW1hJywgJzIwMCcsICctaW1hZScsICc8aW5maWxlLm1hZT4nLCAnLW9tYWUnLCAnPG91dGZpbGUubWFlPic=

>  <r_lp_tautomer_probability>  (262) 
1

>  <r_epik_Ionization_Penalty>  (262) 
3.59574e-05

>  <r_epik_Ionization_Penalty_Charging>  (262) 
3.42621e-05

>  <r_epik_Ionization_Penalty_Neutral>  (262) 
1.69537e-06

>  <r_epik_State_Penalty>  (262) 
-0

>  <r_epik_Charging_Adjusted_Penalty>  (262) 
3.42621e-05

>  <i_epik_Tot_Q>  (262) 
0

>  <i_epik_Tot_abs_Q>  (262) 
0

>  <s_lp_Force_Field>  (262) 
OPLS3e

>  <r_lp_Energy>  (262) 
206.026

>  <b_lp_Chiralities_Consistent>  (262) 
1

>  <s_lp_Variant>  (262) 
72:0-2

>  <s_i_glide_gridfile>  (262) 
pfpi4k_grid

>  <i_i_glide_lignum>  (262) 
18

>  <i_i_glide_rotatable_bonds>  (262) 
1

>  <r_i_docking_score>  (262) 
-2.54859

>  <r_i_glide_ligand_efficiency>  (262) 
-0.0980227

>  <r_i_glide_ligand_efficiency_sa>  (262) 
-0.290392

>  <r_i_glide_ligand_efficiency_ln>  (262) 
-0.598528

>  <r_i_glide_gscore>  (262) 
-2.54859

>  <r_i_glide_lipo>  (262) 
-0.0550826

>  <r_i_glide_hbond>  (262) 
-0.0963138

>  <r_i_glide_metal>  (262) 
-0

>  <r_i_glide_rewards>  (262) 
-0.848981

>  <r_i_glide_evdw>  (262) 
-16.7393

>  <r_i_glide_ecoul>  (262) 
-4.62373

>  <r_i_glide_erotb>  (262) 
0

>  <r_i_glide_esite>  (262) 
-0.017687

>  <r_i_glide_emodel>  (262) 
-24.6751

>  <r_i_glide_energy>  (262) 
-21.363

>  <r_i_glide_einternal>  (262) 
0.319419

>  <r_i_glide_intrahb_reward>  (262) 
-0

>  <i_i_glide_confnum>  (262) 
1

>  <i_i_glide_posenum>  (262) 
18

>  <r_i_glide_eff_state_penalty>  (262) 
0

>  <ligand_id>  (262) 
72

>  <original_smiles>  (262) 
CC12C3CC(O)CCC3C3CCc4[nH]c(=O)sc4C3CC3OC34C1OC24

>  <smiles>  (262) 
[H]OC1([H])C([H])([H])C([H])([H])C2([H])C3([H])C([H])([H])C([H])([H])c4c(sc(=O)n4[H])C3([H])C([H])([H])C3([H])OC34C3([H])OC4([H])C3(C([H])([H])[H])C2([H])C1([H])[H]

$$$$
72:1:1
     RDKit          3D

 51 57  0  0  1  0  0  0  0  0999 V2000
    5.3700   -4.9120    8.0584 C   0  0  0  0  0  0  0  0  0  0  0  0
    4.1715   -4.6623    7.1536 C   0  0  1  0  0  0  0  0  0  0  0  0
    4.5376   -4.4484    5.6095 C   0  0  2  0  0  0  0  0  0  0  0  0
    5.2561   -3.1046    5.3887 C   0  0  0  0  0  0  0  0  0  0  0  0
    4.2511   -1.9502    5.3553 C   0  0  1  0  0  0  0  0  0  0  0  0
    4.9373   -0.7127    5.3201 O   0  0  0  0  0  0  0  0  0  0  0  0
    3.3545   -2.0864    4.1177 C   0  0  0  0  0  0  0  0  0  0  0  0
    2.6060   -3.4376    4.0575 C   0  0  0  0  0  0  0  0  0  0  0  0
    3.4470   -4.7121    4.4016 C   0  0  2  0  0  0  0  0  0  0  0  0
    2.5123   -6.0568    4.2225 C   0  0  1  0  0  0  0  0  0  0  0  0
    3.3157   -7.3307    3.8194 C   0  0  0  0  0  0  0  0  0  0  0  0
    2.4888   -8.4037    3.0570 C   0  0  0  0  0  0  0  0  0  0  0  0
    0.9892   -8.2589    3.2483 C   0  0  0  0  0  0  0  0  0  0  0  0
    0.1251   -9.0310    2.4819 N   0  0  0  0  0  0  0  0  0  0  0  0
   -1.2188   -8.7633    2.6631 C   0  0  0  0  0  0  0  0  0  0  0  0
   -2.1783   -9.2662    2.0921 O   0  0  0  0  0  0  0  0  0  0  0  0
   -1.3658   -7.4561    3.8980 S   0  0  0  0  0  0  0  0  0  0  0  0
    0.3843   -7.3938    4.0571 C   0  0  0  0  0  0  0  0  0  0  0  0
    1.1005   -6.4310    4.9972 C   0  0  1  0  0  0  0  0  0  0  0  0
    0.9499   -7.1703    6.4408 C   0  0  0  0  0  0  0  0  0  0  0  0
    0.9215   -6.3270    7.7593 C   0  0  1  0  0  0  0  0  0  0  0  0
    1.8065   -6.6404    8.9686 O   0  0  0  0  0  0  0  0  0  0  0  0
    2.1971   -5.6684    8.0245 C   0  0  1  0  0  0  0  0  0  0  0  0
    3.1904   -5.7744    7.0511 C   0  0  1  0  0  0  0  0  0  0  0  0
    2.3069   -4.6647    6.6403 O   0  0  0  0  0  0  0  0  0  0  0  0
    2.7784   -4.3102    7.8913 C   0  0  2  0  0  0  0  0  0  0  0  0
    0.4288   -9.7132    1.7982 H   0  0  0  0  0  0  0  0  0  0  0  0
    5.9297   -3.9971    8.2700 H   0  0  0  0  0  0  0  0  0  0  0  0
    6.0425   -5.6647    7.6356 H   0  0  0  0  0  0  0  0  0  0  0  0
    5.0250   -5.3055    9.0175 H   0  0  0  0  0  0  0  0  0  0  0  0
    5.3005   -5.2003    5.4007 H   0  0  0  0  0  0  0  0  0  0  0  0
    6.0000   -2.9428    6.1668 H   0  0  0  0  0  0  0  0  0  0  0  0
    5.8099   -3.1337    4.4483 H   0  0  0  0  0  0  0  0  0  0  0  0
    3.6430   -1.9592    6.2596 H   0  0  0  0  0  0  0  0  0  0  0  0
    5.4263   -0.6517    4.5169 H   0  0  0  0  0  0  0  0  0  0  0  0
    2.6236   -1.2761    4.1078 H   0  0  0  0  0  0  0  0  0  0  0  0
    3.9539   -1.9561    3.2153 H   0  0  0  0  0  0  0  0  0  0  0  0
    1.7221   -3.3800    4.6910 H   0  0  0  0  0  0  0  0  0  0  0  0
    2.2156   -3.5329    3.0413 H   0  0  0  0  0  0  0  0  0  0  0  0
    4.1065   -4.7776    3.5375 H   0  0  0  0  0  0  0  0  0  0  0  0
    2.1040   -5.7919    3.2450 H   0  0  0  0  0  0  0  0  0  0  0  0
    4.1409   -7.0465    3.1637 H   0  0  0  0  0  0  0  0  0  0  0  0
    3.7906   -7.7906    4.6839 H   0  0  0  0  0  0  0  0  0  0  0  0
    2.6888   -8.3245    1.9887 H   0  0  0  0  0  0  0  0  0  0  0  0
    2.7940   -9.4074    3.3568 H   0  0  0  0  0  0  0  0  0  0  0  0
    0.4925   -5.5267    5.0302 H   0  0  0  0  0  0  0  0  0  0  0  0
   -0.0087   -7.6940    6.4621 H   0  0  0  0  0  0  0  0  0  0  0  0
    1.6768   -7.9809    6.5257 H   0  0  0  0  0  0  0  0  0  0  0  0
    0.0409   -5.7094    7.9375 H   0  0  0  0  0  0  0  0  0  0  0  0
    3.3430   -6.6161    6.3969 H   0  0  0  0  0  0  0  0  0  0  0  0
    2.3761   -3.3544    8.2437 H   0  0  0  0  0  0  0  0  0  0  0  0
  2  1  1  1
  1 28  1  0
  1 29  1  0
  1 30  1  0
  2 24  1  0
  2 26  1  0
  2  3  1  0
  3  9  1  0
  3  4  1  0
  3 31  1  6
  4  5  1  0
  4 32  1  0
  4 33  1  0
  5  6  1  0
  5  7  1  0
  5 34  1  1
  6 35  1  0
  7  8  1  0
  7 36  1  0
  7 37  1  0
  8  9  1  0
  8 38  1  0
  8 39  1  0
  9 10  1  0
  9 40  1  6
 10 19  1  0
 10 11  1  0
 10 41  1  6
 11 12  1  0
 11 42  1  0
 11 43  1  0
 12 13  1  0
 12 44  1  0
 12 45  1  0
 13 18  2  0
 13 14  1  0
 14 27  1  0
 14 15  1  0
 15 16  2  0
 15 17  1  0
 17 18  1  0
 18 19  1  0
 19 20  1  0
 19 46  1  1
 20 21  1  0
 20 47  1  0
 20 48  1  0
 21 23  1  0
 21 22  1  0
 21 49  1  1
 23 22  1  1
 23 26  1  0
 23 24  1  0
 24 25  1  0
 24 50  1  6
 25 26  1  0
 26 51  1  1
M  END
>  <i_m_ct_stereo_status>  (263) 
1

>  <s_m_source_file>  (263) 
/var/tmp/pbs.5076255.sched01/tmpz7l6rxva/92z_h6r8yo.sdf

>  <i_m_source_file_index>  (263) 
18

>  <i_lp_mmshare_version>  (263) 
48012

>  <i_f3d_flags>  (263) 
0

>  <s_epik_input>  (263) 
W0NIMl0xW0NIMl1bQ0BIXShbT0hdKVtDSDJdW0NAQEhdKFtDQEBdMihbQ0gzXSlbQ0BASF0zT1tDQEhdMjQpW0NASF0xW0NASF0oW0NAQEhdNVtDSDJdW0NAQEhdKE82KUMzNDYpW0NIMl1bQ0gyXWM3YzVzYyg9TylbbkhdNw==

>  <s_epik_cmdline>  (263) 
J2VwaWtfcHl0aG9uJywgJy1waHQnLCAnMi4wJywgJy1waCcsICc3LjAnLCAnLXRuJywgJzgnLCAnLW1hJywgJzIwMCcsICctaW1hZScsICc8aW5maWxlLm1hZT4nLCAnLW9tYWUnLCAnPG91dGZpbGUubWFlPic=

>  <r_lp_tautomer_probability>  (263) 
1

>  <r_epik_Ionization_Penalty>  (263) 
3.59574e-05

>  <r_epik_Ionization_Penalty_Charging>  (263) 
3.42621e-05

>  <r_epik_Ionization_Penalty_Neutral>  (263) 
1.69537e-06

>  <r_epik_State_Penalty>  (263) 
-0

>  <r_epik_Charging_Adjusted_Penalty>  (263) 
3.42621e-05

>  <i_epik_Tot_Q>  (263) 
0

>  <i_epik_Tot_abs_Q>  (263) 
0

>  <s_lp_Force_Field>  (263) 
OPLS3e

>  <r_lp_Energy>  (263) 
206.026

>  <b_lp_Chiralities_Consistent>  (263) 
1

>  <s_lp_Variant>  (263) 
72:0-2

>  <s_i_glide_gridfile>  (263) 
pfpi4k_grid

>  <i_i_glide_lignum>  (263) 
18

>  <i_i_glide_rotatable_bonds>  (263) 
1

>  <r_i_docking_score>  (263) 
-2.30798

>  <r_i_glide_ligand_efficiency>  (263) 
-0.0887684

>  <r_i_glide_ligand_efficiency_sa>  (263) 
-0.262976

>  <r_i_glide_ligand_efficiency_ln>  (263) 
-0.542021

>  <r_i_glide_gscore>  (263) 
-2.30798

>  <r_i_glide_lipo>  (263) 
-0.0213666

>  <r_i_glide_hbond>  (263) 
-0.13503

>  <r_i_glide_metal>  (263) 
-0

>  <r_i_glide_rewards>  (263) 
-0.848981

>  <r_i_glide_evdw>  (263) 
-18.0971

>  <r_i_glide_ecoul>  (263) 
-2.39875

>  <r_i_glide_erotb>  (263) 
0

>  <r_i_glide_esite>  (263) 
-0.0379342

>  <r_i_glide_emodel>  (263) 
-23.6722

>  <r_i_glide_energy>  (263) 
-20.4958

>  <r_i_glide_einternal>  (263) 
0.0160003

>  <r_i_glide_intrahb_reward>  (263) 
-0

>  <i_i_glide_confnum>  (263) 
2

>  <i_i_glide_posenum>  (263) 
35

>  <r_i_glide_eff_state_penalty>  (263) 
0

>  <ligand_id>  (263) 
72

>  <original_smiles>  (263) 
CC12C3CC(O)CCC3C3CCc4[nH]c(=O)sc4C3CC3OC34C1OC24

>  <smiles>  (263) 
[H]OC1([H])C([H])([H])C([H])([H])C2([H])C3([H])C([H])([H])C([H])([H])c4c(sc(=O)n4[H])C3([H])C([H])([H])C3([H])OC34C3([H])OC4([H])C3(C([H])([H])[H])C2([H])C1([H])[H]

$$$$
72:1:2
     RDKit          3D

 51 57  0  0  1  0  0  0  0  0999 V2000
    5.4433   -9.3738    9.4360 C   0  0  0  0  0  0  0  0  0  0  0  0
    4.7577   -8.5339    8.3728 C   0  0  1  0  0  0  0  0  0  0  0  0
    5.4324   -8.6326    6.9171 C   0  0  2  0  0  0  0  0  0  0  0  0
    6.8054   -7.9396    6.8930 C   0  0  0  0  0  0  0  0  0  0  0  0
    6.6446   -6.4232    6.7628 C   0  0  1  0  0  0  0  0  0  0  0  0
    7.9066   -5.8023    6.8866 O   0  0  0  0  0  0  0  0  0  0  0  0
    6.0529   -6.0887    5.3892 C   0  0  0  0  0  0  0  0  0  0  0  0
    4.6957   -6.7797    5.1354 C   0  0  0  0  0  0  0  0  0  0  0  0
    4.5982   -8.2883    5.5392 C   0  0  2  0  0  0  0  0  0  0  0  0
    3.1150   -8.8763    5.1372 C   0  0  1  0  0  0  0  0  0  0  0  0
    3.1124  -10.3972    4.7959 C   0  0  0  0  0  0  0  0  0  0  0  0
    1.9655  -10.8464    3.8471 C   0  0  0  0  0  0  0  0  0  0  0  0
    0.8122   -9.8548    3.8040 C   0  0  0  0  0  0  0  0  0  0  0  0
   -0.1798  -10.0376    2.8405 N   0  0  0  0  0  0  0  0  0  0  0  0
   -1.1563   -9.0524    2.8378 C   0  0  0  0  0  0  0  0  0  0  0  0
   -2.1516   -8.9789    2.1107 O   0  0  0  0  0  0  0  0  0  0  0  0
   -0.7440   -7.8335    4.0978 S   0  0  0  0  0  0  0  0  0  0  0  0
    0.6704   -8.7797    4.5488 C   0  0  0  0  0  0  0  0  0  0  0  0
    1.6355   -8.3465    5.6515 C   0  0  1  0  0  0  0  0  0  0  0  0
    0.8541   -8.8045    6.9997 C   0  0  0  0  0  0  0  0  0  0  0  0
    1.0841   -8.0323    8.3439 C   0  0  1  0  0  0  0  0  0  0  0  0
    1.4438   -8.7353    9.6566 O   0  0  0  0  0  0  0  0  0  0  0  0
    2.4285   -8.1840    8.8383 C   0  0  1  0  0  0  0  0  0  0  0  0
    3.3537   -8.9054    8.0523 C   0  0  1  0  0  0  0  0  0  0  0  0
    3.3381   -7.5108    7.5722 O   0  0  0  0  0  0  0  0  0  0  0  0
    3.7113   -7.4240    8.8940 C   0  0  2  0  0  0  0  0  0  0  0  0
   -0.2171  -10.8086    2.2048 H   0  0  0  0  0  0  0  0  0  0  0  0
    6.3750   -8.9260    9.7884 H   0  0  0  0  0  0  0  0  0  0  0  0
    5.6261  -10.3929    9.0886 H   0  0  0  0  0  0  0  0  0  0  0  0
    4.7809   -9.4550   10.3006 H   0  0  0  0  0  0  0  0  0  0  0  0
    5.6574   -9.6910    6.7942 H   0  0  0  0  0  0  0  0  0  0  0  0
    7.3712   -8.1898    7.7894 H   0  0  0  0  0  0  0  0  0  0  0  0
    7.3964   -8.3175    6.0544 H   0  0  0  0  0  0  0  0  0  0  0  0
    5.9985   -6.0469    7.5586 H   0  0  0  0  0  0  0  0  0  0  0  0
    7.7838   -4.8639    6.8918 H   0  0  0  0  0  0  0  0  0  0  0  0
    5.9242   -5.0088    5.3013 H   0  0  0  0  0  0  0  0  0  0  0  0
    6.7658   -6.3659    4.6091 H   0  0  0  0  0  0  0  0  0  0  0  0
    3.9087   -6.2032    5.6207 H   0  0  0  0  0  0  0  0  0  0  0  0
    4.4954   -6.6861    4.0664 H   0  0  0  0  0  0  0  0  0  0  0  0
    5.2367   -8.7569    4.7884 H   0  0  0  0  0  0  0  0  0  0  0  0
    3.0947   -8.4725    4.1240 H   0  0  0  0  0  0  0  0  0  0  0  0
    4.0504  -10.6634    4.3025 H   0  0  0  0  0  0  0  0  0  0  0  0
    3.0813  -11.0061    5.6976 H   0  0  0  0  0  0  0  0  0  0  0  0
    2.3476  -10.9465    2.8326 H   0  0  0  0  0  0  0  0  0  0  0  0
    1.5882  -11.8245    4.1457 H   0  0  0  0  0  0  0  0  0  0  0  0
    1.6452   -7.2577    5.6311 H   0  0  0  0  0  0  0  0  0  0  0  0
   -0.2178   -8.6931    6.8362 H   0  0  0  0  0  0  0  0  0  0  0  0
    0.9738   -9.8770    7.1613 H   0  0  0  0  0  0  0  0  0  0  0  0
    0.6990   -7.0158    8.4053 H   0  0  0  0  0  0  0  0  0  0  0  0
    3.1048   -9.7028    7.3848 H   0  0  0  0  0  0  0  0  0  0  0  0
    3.8592   -6.3952    9.2201 H   0  0  0  0  0  0  0  0  0  0  0  0
  2  1  1  1
  1 28  1  0
  1 29  1  0
  1 30  1  0
  2 24  1  0
  2 26  1  0
  2  3  1  0
  3  9  1  0
  3  4  1  0
  3 31  1  6
  4  5  1  0
  4 32  1  0
  4 33  1  0
  5  6  1  0
  5  7  1  0
  5 34  1  1
  6 35  1  0
  7  8  1  0
  7 36  1  0
  7 37  1  0
  8  9  1  0
  8 38  1  0
  8 39  1  0
  9 10  1  0
  9 40  1  6
 10 19  1  0
 10 11  1  0
 10 41  1  6
 11 12  1  0
 11 42  1  0
 11 43  1  0
 12 13  1  0
 12 44  1  0
 12 45  1  0
 13 18  2  0
 13 14  1  0
 14 27  1  0
 14 15  1  0
 15 16  2  0
 15 17  1  0
 17 18  1  0
 18 19  1  0
 19 20  1  0
 19 46  1  1
 20 21  1  0
 20 47  1  0
 20 48  1  0
 21 23  1  0
 21 22  1  0
 21 49  1  1
 23 22  1  1
 23 26  1  0
 23 24  1  0
 24 25  1  0
 24 50  1  6
 25 26  1  0
 26 51  1  1
M  END
>  <i_m_ct_stereo_status>  (264) 
1

>  <s_m_source_file>  (264) 
/var/tmp/pbs.5076255.sched01/tmpz7l6rxva/92z_h6r8yo.sdf

>  <i_m_source_file_index>  (264) 
18

>  <i_lp_mmshare_version>  (264) 
48012

>  <i_f3d_flags>  (264) 
0

>  <s_epik_input>  (264) 
W0NIMl0xW0NIMl1bQ0BIXShbT0hdKVtDSDJdW0NAQEhdKFtDQEBdMihbQ0gzXSlbQ0BASF0zT1tDQEhdMjQpW0NASF0xW0NASF0oW0NAQEhdNVtDSDJdW0NAQEhdKE82KUMzNDYpW0NIMl1bQ0gyXWM3YzVzYyg9TylbbkhdNw==

>  <s_epik_cmdline>  (264) 
J2VwaWtfcHl0aG9uJywgJy1waHQnLCAnMi4wJywgJy1waCcsICc3LjAnLCAnLXRuJywgJzgnLCAnLW1hJywgJzIwMCcsICctaW1hZScsICc8aW5maWxlLm1hZT4nLCAnLW9tYWUnLCAnPG91dGZpbGUubWFlPic=

>  <r_lp_tautomer_probability>  (264) 
1

>  <r_epik_Ionization_Penalty>  (264) 
3.59574e-05

>  <r_epik_Ionization_Penalty_Charging>  (264) 
3.42621e-05

>  <r_epik_Ionization_Penalty_Neutral>  (264) 
1.69537e-06

>  <r_epik_State_Penalty>  (264) 
-0

>  <r_epik_Charging_Adjusted_Penalty>  (264) 
3.42621e-05

>  <i_epik_Tot_Q>  (264) 
0

>  <i_epik_Tot_abs_Q>  (264) 
0

>  <s_lp_Force_Field>  (264) 
OPLS3e

>  <r_lp_Energy>  (264) 
206.026

>  <b_lp_Chiralities_Consistent>  (264) 
1

>  <s_lp_Variant>  (264) 
72:0-2

>  <s_i_glide_gridfile>  (264) 
pfpi4k_grid

>  <i_i_glide_lignum>  (264) 
18

>  <i_i_glide_rotatable_bonds>  (264) 
1

>  <r_i_docking_score>  (264) 
-2.11696

>  <r_i_glide_ligand_efficiency>  (264) 
-0.0814217

>  <r_i_glide_ligand_efficiency_sa>  (264) 
-0.241211

>  <r_i_glide_ligand_efficiency_ln>  (264) 
-0.497162

>  <r_i_glide_gscore>  (264) 
-2.11696

>  <r_i_glide_lipo>  (264) 
-0.020916

>  <r_i_glide_hbond>  (264) 
0

>  <r_i_glide_metal>  (264) 
-0

>  <r_i_glide_rewards>  (264) 
-0.848981

>  <r_i_glide_evdw>  (264) 
-19.1616

>  <r_i_glide_ecoul>  (264) 
-1.89783

>  <r_i_glide_erotb>  (264) 
0

>  <r_i_glide_esite>  (264) 
-0.00431168

>  <r_i_glide_emodel>  (264) 
-23.7813

>  <r_i_glide_energy>  (264) 
-21.0595

>  <r_i_glide_einternal>  (264) 
0.322794

>  <r_i_glide_intrahb_reward>  (264) 
-0

>  <i_i_glide_confnum>  (264) 
2

>  <i_i_glide_posenum>  (264) 
4

>  <r_i_glide_eff_state_penalty>  (264) 
0

>  <ligand_id>  (264) 
72

>  <original_smiles>  (264) 
CC12C3CC(O)CCC3C3CCc4[nH]c(=O)sc4C3CC3OC34C1OC24

>  <smiles>  (264) 
[H]OC1([H])C([H])([H])C([H])([H])C2([H])C3([H])C([H])([H])C([H])([H])c4c(sc(=O)n4[H])C3([H])C([H])([H])C3([H])OC34C3([H])OC4([H])C3(C([H])([H])[H])C2([H])C1([H])[H]

$$$$
72:2:0
     RDKit          3D

 51 57  0  0  1  0  0  0  0  0999 V2000
   -1.1094   -7.0088    4.4270 C   0  0  0  0  0  0  0  0  0  0  0  0
    0.4195   -6.8355    4.1918 C   0  0  2  0  0  0  0  0  0  0  0  0
    0.7788   -7.5440    2.8296 C   0  0  2  0  0  0  0  0  0  0  0  0
    0.3067   -9.0233    2.8151 C   0  0  0  0  0  0  0  0  0  0  0  0
    1.2058   -9.9270    3.6673 C   0  0  1  0  0  0  0  0  0  0  0  0
    0.6733  -11.2311    3.6590 O   0  0  0  0  0  0  0  0  0  0  0  0
    2.6407   -9.9545    3.1059 C   0  0  0  0  0  0  0  0  0  0  0  0
    3.2299   -8.5437    2.8976 C   0  0  0  0  0  0  0  0  0  0  0  0
    2.2436   -7.5532    2.2149 C   0  0  2  0  0  0  0  0  0  0  0  0
    2.8733   -6.2864    1.5017 C   0  0  1  0  0  0  0  0  0  0  0  0
    1.8469   -5.2490    0.9841 C   0  0  0  0  0  0  0  0  0  0  0  0
    2.4112   -4.2553   -0.0665 C   0  0  0  0  0  0  0  0  0  0  0  0
    3.8936   -4.0126    0.1106 C   0  0  0  0  0  0  0  0  0  0  0  0
    4.5542   -3.1346   -0.7362 N   0  0  0  0  0  0  0  0  0  0  0  0
    5.9170   -3.0084   -0.5079 C   0  0  0  0  0  0  0  0  0  0  0  0
    6.7252   -2.2877   -1.0949 O   0  0  0  0  0  0  0  0  0  0  0  0
    6.3440   -4.1165    0.8636 S   0  0  0  0  0  0  0  0  0  0  0  0
    4.6649   -4.6002    1.0258 C   0  0  0  0  0  0  0  0  0  0  0  0
    4.1721   -5.6059    2.0579 C   0  0  1  0  0  0  0  0  0  0  0  0
    4.0166   -4.8396    3.3872 C   0  0  0  0  0  0  0  0  0  0  0  0
    3.7230   -5.7143    4.5742 C   0  0  1  0  0  0  0  0  0  0  0  0
    3.2066   -5.0658    5.7966 O   0  0  0  0  0  0  0  0  0  0  0  0
    2.3330   -5.8590    5.0077 C   0  0  2  0  0  0  0  0  0  0  0  0
    1.3954   -6.9085    5.4383 C   0  0  1  0  0  0  0  0  0  0  0  0
    0.6303   -5.7695    5.8999 O   0  0  0  0  0  0  0  0  0  0  0  0
    1.0142   -5.4230    4.5443 C   0  0  2  0  0  0  0  0  0  0  0  0
    4.0983   -2.6117   -1.4694 H   0  0  0  0  0  0  0  0  0  0  0  0
   -1.6877   -6.9261    3.5071 H   0  0  0  0  0  0  0  0  0  0  0  0
   -1.5343   -6.2637    5.1022 H   0  0  0  0  0  0  0  0  0  0  0  0
   -1.3482   -7.9749    4.8741 H   0  0  0  0  0  0  0  0  0  0  0  0
    0.1536   -7.0610    2.0790 H   0  0  0  0  0  0  0  0  0  0  0  0
   -0.7367   -9.1398    3.1028 H   0  0  0  0  0  0  0  0  0  0  0  0
    0.3327   -9.3874    1.7880 H   0  0  0  0  0  0  0  0  0  0  0  0
    1.2141   -9.5863    4.7022 H   0  0  0  0  0  0  0  0  0  0  0  0
   -0.1060  -11.2440    4.2019 H   0  0  0  0  0  0  0  0  0  0  0  0
    3.2842  -10.5156    3.7855 H   0  0  0  0  0  0  0  0  0  0  0  0
    2.6609  -10.5006    2.1611 H   0  0  0  0  0  0  0  0  0  0  0  0
    3.5540   -8.1880    3.8660 H   0  0  0  0  0  0  0  0  0  0  0  0
    4.1315   -8.6392    2.2866 H   0  0  0  0  0  0  0  0  0  0  0  0
    2.0353   -8.1219    1.3051 H   0  0  0  0  0  0  0  0  0  0  0  0
    3.2478   -6.7211    0.5705 H   0  0  0  0  0  0  0  0  0  0  0  0
    1.0068   -5.7735    0.5277 H   0  0  0  0  0  0  0  0  0  0  0  0
    1.4663   -4.6920    1.8379 H   0  0  0  0  0  0  0  0  0  0  0  0
    2.2671   -4.6553   -1.0701 H   0  0  0  0  0  0  0  0  0  0  0  0
    1.8859   -3.2996   -0.0340 H   0  0  0  0  0  0  0  0  0  0  0  0
    4.9524   -6.3580    2.1622 H   0  0  0  0  0  0  0  0  0  0  0  0
    4.9410   -4.3117    3.6154 H   0  0  0  0  0  0  0  0  0  0  0  0
    3.2360   -4.0830    3.2908 H   0  0  0  0  0  0  0  0  0  0  0  0
    4.4433   -6.4966    4.7901 H   0  0  0  0  0  0  0  0  0  0  0  0
    1.5761   -7.7380    6.1281 H   0  0  0  0  0  0  0  0  0  0  0  0
    0.7405   -4.4459    4.1420 H   0  0  0  0  0  0  0  0  0  0  0  0
  2  1  1  1
  1 28  1  0
  1 29  1  0
  1 30  1  0
  2 24  1  0
  2 26  1  0
  2  3  1  0
  3  9  1  0
  3  4  1  0
  3 31  1  6
  4  5  1  0
  4 32  1  0
  4 33  1  0
  5  6  1  0
  5  7  1  0
  5 34  1  1
  6 35  1  0
  7  8  1  0
  7 36  1  0
  7 37  1  0
  8  9  1  0
  8 38  1  0
  8 39  1  0
  9 10  1  0
  9 40  1  6
 10 19  1  0
 10 11  1  0
 10 41  1  6
 11 12  1  0
 11 42  1  0
 11 43  1  0
 12 13  1  0
 12 44  1  0
 12 45  1  0
 13 18  2  0
 13 14  1  0
 14 27  1  0
 14 15  1  0
 15 16  2  0
 15 17  1  0
 17 18  1  0
 18 19  1  0
 19 20  1  0
 19 46  1  1
 20 21  1  0
 20 47  1  0
 20 48  1  0
 21 23  1  0
 21 22  1  0
 21 49  1  1
 23 22  1  1
 23 26  1  0
 23 24  1  0
 24 25  1  0
 24 50  1  1
 25 26  1  0
 26 51  1  6
M  END
>  <i_m_ct_stereo_status>  (265) 
1

>  <s_m_source_file>  (265) 
/var/tmp/pbs.5076255.sched01/tmpz7l6rxva/92z_h6r8yo.sdf

>  <i_m_source_file_index>  (265) 
19

>  <i_lp_mmshare_version>  (265) 
48012

>  <i_f3d_flags>  (265) 
0

>  <s_epik_input>  (265) 
W0NIMl0xW0NIMl1bQ0BIXShbT0hdKVtDSDJdW0NAQEhdKFtDQEBdMihbQ0gzXSlbQ0BASF0zT1tDQEhdMjQpW0NASF0xW0NASF0oW0NAQEhdNVtDSDJdW0NAQEhdKE82KUMzNDYpW0NIMl1bQ0gyXWM3YzVzYyg9TylbbkhdNw==

>  <s_epik_cmdline>  (265) 
J2VwaWtfcHl0aG9uJywgJy1waHQnLCAnMi4wJywgJy1waCcsICc3LjAnLCAnLXRuJywgJzgnLCAnLW1hJywgJzIwMCcsICctaW1hZScsICc8aW5maWxlLm1hZT4nLCAnLW9tYWUnLCAnPG91dGZpbGUubWFlPic=

>  <r_lp_tautomer_probability>  (265) 
1

>  <r_epik_Ionization_Penalty>  (265) 
3.59574e-05

>  <r_epik_Ionization_Penalty_Charging>  (265) 
3.42621e-05

>  <r_epik_Ionization_Penalty_Neutral>  (265) 
1.69537e-06

>  <r_epik_State_Penalty>  (265) 
-0

>  <r_epik_Charging_Adjusted_Penalty>  (265) 
3.42621e-05

>  <i_epik_Tot_Q>  (265) 
0

>  <i_epik_Tot_abs_Q>  (265) 
0

>  <s_lp_Force_Field>  (265) 
OPLS3e

>  <r_lp_Energy>  (265) 
112.771

>  <b_lp_Chiralities_Consistent>  (265) 
1

>  <s_lp_Variant>  (265) 
72:0-3

>  <s_i_glide_gridfile>  (265) 
pfpi4k_grid

>  <i_i_glide_lignum>  (265) 
19

>  <i_i_glide_rotatable_bonds>  (265) 
1

>  <r_i_docking_score>  (265) 
-2.89167

>  <r_i_glide_ligand_efficiency>  (265) 
-0.111218

>  <r_i_glide_ligand_efficiency_sa>  (265) 
-0.329483

>  <r_i_glide_ligand_efficiency_ln>  (265) 
-0.6791

>  <r_i_glide_gscore>  (265) 
-2.89167

>  <r_i_glide_lipo>  (265) 
-0.204818

>  <r_i_glide_hbond>  (265) 
-0.216268

>  <r_i_glide_metal>  (265) 
-0

>  <r_i_glide_rewards>  (265) 
-0.848981

>  <r_i_glide_evdw>  (265) 
-22.5469

>  <r_i_glide_ecoul>  (265) 
-3.29507

>  <r_i_glide_erotb>  (265) 
0

>  <r_i_glide_esite>  (265) 
0

>  <r_i_glide_emodel>  (265) 
-30.2511

>  <r_i_glide_energy>  (265) 
-25.842

>  <r_i_glide_einternal>  (265) 
0.442289

>  <r_i_glide_intrahb_reward>  (265) 
-0

>  <i_i_glide_confnum>  (265) 
1

>  <i_i_glide_posenum>  (265) 
36

>  <r_i_glide_eff_state_penalty>  (265) 
0

>  <ligand_id>  (265) 
72

>  <original_smiles>  (265) 
CC12C3CC(O)CCC3C3CCc4[nH]c(=O)sc4C3CC3OC34C1OC24

>  <smiles>  (265) 
[H]OC1([H])C([H])([H])C([H])([H])C2([H])C3([H])C([H])([H])C([H])([H])c4c(sc(=O)n4[H])C3([H])C([H])([H])C3([H])OC34C3([H])OC4([H])C3(C([H])([H])[H])C2([H])C1([H])[H]

$$$$
72:2:1
     RDKit          3D

 51 57  0  0  1  0  0  0  0  0999 V2000
   -1.0619   -7.3259    4.2394 C   0  0  0  0  0  0  0  0  0  0  0  0
    0.4604   -7.0183    4.0966 C   0  0  2  0  0  0  0  0  0  0  0  0
    0.9603   -7.6888    2.7635 C   0  0  2  0  0  0  0  0  0  0  0  0
    0.6349   -9.2093    2.7224 C   0  0  0  0  0  0  0  0  0  0  0  0
    1.5604  -10.0259    3.6347 C   0  0  1  0  0  0  0  0  0  0  0  0
    1.1557  -11.3747    3.5807 O   0  0  0  0  0  0  0  0  0  0  0  0
    3.0201   -9.9210    3.1591 C   0  0  0  0  0  0  0  0  0  0  0  0
    3.4893   -8.4638    2.9774 C   0  0  0  0  0  0  0  0  0  0  0  0
    2.4560   -7.5630    2.2404 C   0  0  2  0  0  0  0  0  0  0  0  0
    3.0117   -6.2469    1.5577 C   0  0  1  0  0  0  0  0  0  0  0  0
    1.9289   -5.3028    0.9713 C   0  0  0  0  0  0  0  0  0  0  0  0
    2.4676   -4.2539   -0.0382 C   0  0  0  0  0  0  0  0  0  0  0  0
    3.9044   -3.8803    0.2237 C   0  0  0  0  0  0  0  0  0  0  0  0
    4.5329   -2.9491   -0.5806 N   0  0  0  0  0  0  0  0  0  0  0  0
    5.8660   -2.7043   -0.2745 C   0  0  0  0  0  0  0  0  0  0  0  0
    6.6407   -1.9197   -0.8089 O   0  0  0  0  0  0  0  0  0  0  0  0
    6.3066   -3.7801    1.1183 S   0  0  0  0  0  0  0  0  0  0  0  0
    4.6730   -4.4071    1.1904 C   0  0  0  0  0  0  0  0  0  0  0  0
    4.2102   -5.4531    2.1890 C   0  0  1  0  0  0  0  0  0  0  0  0
    3.9099   -4.7075    3.5056 C   0  0  0  0  0  0  0  0  0  0  0  0
    3.6202   -5.6032    4.6768 C   0  0  1  0  0  0  0  0  0  0  0  0
    2.9763   -5.0025    5.8723 O   0  0  0  0  0  0  0  0  0  0  0  0
    2.2326   -5.8703    5.0322 C   0  0  2  0  0  0  0  0  0  0  0  0
    1.3693   -7.0020    5.3936 C   0  0  1  0  0  0  0  0  0  0  0  0
    0.4777   -5.9425    5.8056 O   0  0  0  0  0  0  0  0  0  0  0  0
    0.9164   -5.5635    4.4788 C   0  0  2  0  0  0  0  0  0  0  0  0
    4.0791   -2.4610   -1.3462 H   0  0  0  0  0  0  0  0  0  0  0  0
   -1.5830   -7.2918    3.2824 H   0  0  0  0  0  0  0  0  0  0  0  0
   -1.5882   -6.6219    4.8810 H   0  0  0  0  0  0  0  0  0  0  0  0
   -1.2374   -8.3088    4.6781 H   0  0  0  0  0  0  0  0  0  0  0  0
    0.3422   -7.2645    1.9700 H   0  0  0  0  0  0  0  0  0  0  0  0
   -0.4088   -9.4204    2.9527 H   0  0  0  0  0  0  0  0  0  0  0  0
    0.7558   -9.5695    1.6945 H   0  0  0  0  0  0  0  0  0  0  0  0
    1.4617   -9.6845    4.6637 H   0  0  0  0  0  0  0  0  0  0  0  0
    1.5984  -11.8617    4.2617 H   0  0  0  0  0  0  0  0  0  0  0  0
    3.6730  -10.4226    3.8749 H   0  0  0  0  0  0  0  0  0  0  0  0
    3.1411  -10.4592    2.2167 H   0  0  0  0  0  0  0  0  0  0  0  0
    3.7160   -8.0863    3.9637 H   0  0  0  0  0  0  0  0  0  0  0  0
    4.4328   -8.4721    2.4235 H   0  0  0  0  0  0  0  0  0  0  0  0
    2.3571   -8.1439    1.3219 H   0  0  0  0  0  0  0  0  0  0  0  0
    3.4786   -6.6461    0.6539 H   0  0  0  0  0  0  0  0  0  0  0  0
    1.1485   -5.8842    0.4732 H   0  0  0  0  0  0  0  0  0  0  0  0
    1.4675   -4.7789    1.8056 H   0  0  0  0  0  0  0  0  0  0  0  0
    2.4276   -4.6544   -1.0506 H   0  0  0  0  0  0  0  0  0  0  0  0
    1.8620   -3.3437   -0.0349 H   0  0  0  0  0  0  0  0  0  0  0  0
    5.0517   -6.1297    2.3411 H   0  0  0  0  0  0  0  0  0  0  0  0
    4.7694   -4.1008    3.7879 H   0  0  0  0  0  0  0  0  0  0  0  0
    3.0732   -4.0241    3.3615 H   0  0  0  0  0  0  0  0  0  0  0  0
    4.3920   -6.3186    4.9360 H   0  0  0  0  0  0  0  0  0  0  0  0
    1.5832   -7.8095    6.0940 H   0  0  0  0  0  0  0  0  0  0  0  0
    0.5887   -4.6148    4.0612 H   0  0  0  0  0  0  0  0  0  0  0  0
  2  1  1  1
  1 28  1  0
  1 29  1  0
  1 30  1  0
  2 24  1  0
  2 26  1  0
  2  3  1  0
  3  9  1  0
  3  4  1  0
  3 31  1  6
  4  5  1  0
  4 32  1  0
  4 33  1  0
  5  6  1  0
  5  7  1  0
  5 34  1  1
  6 35  1  0
  7  8  1  0
  7 36  1  0
  7 37  1  0
  8  9  1  0
  8 38  1  0
  8 39  1  0
  9 10  1  0
  9 40  1  6
 10 19  1  0
 10 11  1  0
 10 41  1  6
 11 12  1  0
 11 42  1  0
 11 43  1  0
 12 13  1  0
 12 44  1  0
 12 45  1  0
 13 18  2  0
 13 14  1  0
 14 27  1  0
 14 15  1  0
 15 16  2  0
 15 17  1  0
 17 18  1  0
 18 19  1  0
 19 20  1  0
 19 46  1  1
 20 21  1  0
 20 47  1  0
 20 48  1  0
 21 23  1  0
 21 22  1  0
 21 49  1  1
 23 22  1  1
 23 26  1  0
 23 24  1  0
 24 25  1  0
 24 50  1  1
 25 26  1  0
 26 51  1  6
M  END
>  <i_m_ct_stereo_status>  (266) 
1

>  <s_m_source_file>  (266) 
/var/tmp/pbs.5076255.sched01/tmpz7l6rxva/92z_h6r8yo.sdf

>  <i_m_source_file_index>  (266) 
19

>  <i_lp_mmshare_version>  (266) 
48012

>  <i_f3d_flags>  (266) 
0

>  <s_epik_input>  (266) 
W0NIMl0xW0NIMl1bQ0BIXShbT0hdKVtDSDJdW0NAQEhdKFtDQEBdMihbQ0gzXSlbQ0BASF0zT1tDQEhdMjQpW0NASF0xW0NASF0oW0NAQEhdNVtDSDJdW0NAQEhdKE82KUMzNDYpW0NIMl1bQ0gyXWM3YzVzYyg9TylbbkhdNw==

>  <s_epik_cmdline>  (266) 
J2VwaWtfcHl0aG9uJywgJy1waHQnLCAnMi4wJywgJy1waCcsICc3LjAnLCAnLXRuJywgJzgnLCAnLW1hJywgJzIwMCcsICctaW1hZScsICc8aW5maWxlLm1hZT4nLCAnLW9tYWUnLCAnPG91dGZpbGUubWFlPic=

>  <r_lp_tautomer_probability>  (266) 
1

>  <r_epik_Ionization_Penalty>  (266) 
3.59574e-05

>  <r_epik_Ionization_Penalty_Charging>  (266) 
3.42621e-05

>  <r_epik_Ionization_Penalty_Neutral>  (266) 
1.69537e-06

>  <r_epik_State_Penalty>  (266) 
-0

>  <r_epik_Charging_Adjusted_Penalty>  (266) 
3.42621e-05

>  <i_epik_Tot_Q>  (266) 
0

>  <i_epik_Tot_abs_Q>  (266) 
0

>  <s_lp_Force_Field>  (266) 
OPLS3e

>  <r_lp_Energy>  (266) 
112.771

>  <b_lp_Chiralities_Consistent>  (266) 
1

>  <s_lp_Variant>  (266) 
72:0-3

>  <s_i_glide_gridfile>  (266) 
pfpi4k_grid

>  <i_i_glide_lignum>  (266) 
19

>  <i_i_glide_rotatable_bonds>  (266) 
1

>  <r_i_docking_score>  (266) 
-2.88282

>  <r_i_glide_ligand_efficiency>  (266) 
-0.110878

>  <r_i_glide_ligand_efficiency_sa>  (266) 
-0.328474

>  <r_i_glide_ligand_efficiency_ln>  (266) 
-0.67702

>  <r_i_glide_gscore>  (266) 
-2.88282

>  <r_i_glide_lipo>  (266) 
-0.179874

>  <r_i_glide_hbond>  (266) 
-0.16

>  <r_i_glide_metal>  (266) 
-0

>  <r_i_glide_rewards>  (266) 
-0.848981

>  <r_i_glide_evdw>  (266) 
-21.6132

>  <r_i_glide_ecoul>  (266) 
-4.08868

>  <r_i_glide_erotb>  (266) 
0

>  <r_i_glide_esite>  (266) 
0

>  <r_i_glide_emodel>  (266) 
-30.1476

>  <r_i_glide_energy>  (266) 
-25.7018

>  <r_i_glide_einternal>  (266) 
0.379718

>  <r_i_glide_intrahb_reward>  (266) 
-0

>  <i_i_glide_confnum>  (266) 
1

>  <i_i_glide_posenum>  (266) 
2

>  <r_i_glide_eff_state_penalty>  (266) 
0

>  <ligand_id>  (266) 
72

>  <original_smiles>  (266) 
CC12C3CC(O)CCC3C3CCc4[nH]c(=O)sc4C3CC3OC34C1OC24

>  <smiles>  (266) 
[H]OC1([H])C([H])([H])C([H])([H])C2([H])C3([H])C([H])([H])C([H])([H])c4c(sc(=O)n4[H])C3([H])C([H])([H])C3([H])OC34C3([H])OC4([H])C3(C([H])([H])[H])C2([H])C1([H])[H]

$$$$
72:2:2
     RDKit          3D

 51 57  0  0  1  0  0  0  0  0999 V2000
    7.1356  -10.1427    5.4427 C   0  0  0  0  0  0  0  0  0  0  0  0
    6.3276   -8.8925    4.9805 C   0  0  2  0  0  0  0  0  0  0  0  0
    5.0145   -9.4020    4.2773 C   0  0  2  0  0  0  0  0  0  0  0  0
    5.3246  -10.3999    3.1227 C   0  0  0  0  0  0  0  0  0  0  0  0
    5.8700   -9.6879    1.8765 C   0  0  1  0  0  0  0  0  0  0  0  0
    6.2193  -10.6621    0.8997 O   0  0  0  0  0  0  0  0  0  0  0  0
    4.8226   -8.7114    1.3023 C   0  0  0  0  0  0  0  0  0  0  0  0
    4.2665   -7.7362    2.3609 C   0  0  0  0  0  0  0  0  0  0  0  0
    3.9046   -8.4207    3.7118 C   0  0  2  0  0  0  0  0  0  0  0  0
    2.8811   -7.6657    4.6566 C   0  0  1  0  0  0  0  0  0  0  0  0
    2.6763   -8.3044    6.0582 C   0  0  0  0  0  0  0  0  0  0  0  0
    1.3879   -7.8389    6.7796 C   0  0  0  0  0  0  0  0  0  0  0  0
    0.9751   -6.4379    6.3916 C   0  0  0  0  0  0  0  0  0  0  0  0
   -0.1392   -5.8528    6.9751 N   0  0  0  0  0  0  0  0  0  0  0  0
   -0.4434   -4.5812    6.5234 C   0  0  0  0  0  0  0  0  0  0  0  0
   -1.3611   -3.8397    6.8805 O   0  0  0  0  0  0  0  0  0  0  0  0
    0.7691   -4.1495    5.2479 S   0  0  0  0  0  0  0  0  0  0  0  0
    1.5939   -5.6790    5.4815 C   0  0  0  0  0  0  0  0  0  0  0  0
    2.8338   -6.0977    4.7055 C   0  0  1  0  0  0  0  0  0  0  0  0
    4.0356   -5.4084    5.3809 C   0  0  0  0  0  0  0  0  0  0  0  0
    5.3328   -5.5440    4.6353 C   0  0  1  0  0  0  0  0  0  0  0  0
    6.5832   -5.2460    5.3583 O   0  0  0  0  0  0  0  0  0  0  0  0
    6.2652   -6.5909    5.0412 C   0  0  2  0  0  0  0  0  0  0  0  0
    7.1177   -7.6297    4.4384 C   0  0  1  0  0  0  0  0  0  0  0  0
    7.7113   -7.6324    5.7589 O   0  0  0  0  0  0  0  0  0  0  0  0
    6.2814   -7.6968    6.0009 C   0  0  2  0  0  0  0  0  0  0  0  0
   -0.7073   -6.3017    7.6808 H   0  0  0  0  0  0  0  0  0  0  0  0
    6.4891  -10.9394    5.8156 H   0  0  0  0  0  0  0  0  0  0  0  0
    7.8317   -9.9398    6.2551 H   0  0  0  0  0  0  0  0  0  0  0  0
    7.7406  -10.5589    4.6374 H   0  0  0  0  0  0  0  0  0  0  0  0
    4.5061  -10.0148    5.0258 H   0  0  0  0  0  0  0  0  0  0  0  0
    5.9986  -11.1954    3.4290 H   0  0  0  0  0  0  0  0  0  0  0  0
    4.4069  -10.9263    2.8499 H   0  0  0  0  0  0  0  0  0  0  0  0
    6.7805   -9.1457    2.1297 H   0  0  0  0  0  0  0  0  0  0  0  0
    5.4460  -11.1993    0.7132 H   0  0  0  0  0  0  0  0  0  0  0  0
    5.2669   -8.1374    0.4886 H   0  0  0  0  0  0  0  0  0  0  0  0
    4.0017   -9.2760    0.8594 H   0  0  0  0  0  0  0  0  0  0  0  0
    5.0020   -6.9559    2.4927 H   0  0  0  0  0  0  0  0  0  0  0  0
    3.3764   -7.2540    1.9478 H   0  0  0  0  0  0  0  0  0  0  0  0
    3.2034   -9.1688    3.3396 H   0  0  0  0  0  0  0  0  0  0  0  0
    1.9313   -7.8872    4.1629 H   0  0  0  0  0  0  0  0  0  0  0  0
    2.6338   -9.3956    5.9841 H   0  0  0  0  0  0  0  0  0  0  0  0
    3.5362   -8.0704    6.6797 H   0  0  0  0  0  0  0  0  0  0  0  0
    0.5659   -8.5026    6.5071 H   0  0  0  0  0  0  0  0  0  0  0  0
    1.5147   -7.8934    7.8622 H   0  0  0  0  0  0  0  0  0  0  0  0
    2.7149   -5.7074    3.6949 H   0  0  0  0  0  0  0  0  0  0  0  0
    3.8456   -4.3398    5.4694 H   0  0  0  0  0  0  0  0  0  0  0  0
    4.1594   -5.7938    6.3960 H   0  0  0  0  0  0  0  0  0  0  0  0
    5.3432   -5.1811    3.6121 H   0  0  0  0  0  0  0  0  0  0  0  0
    7.7735   -7.5440    3.5672 H   0  0  0  0  0  0  0  0  0  0  0  0
    5.9098   -7.6853    7.0277 H   0  0  0  0  0  0  0  0  0  0  0  0
  2  1  1  1
  1 28  1  0
  1 29  1  0
  1 30  1  0
  2 24  1  0
  2 26  1  0
  2  3  1  0
  3  9  1  0
  3  4  1  0
  3 31  1  1
  4  5  1  0
  4 32  1  0
  4 33  1  0
  5  6  1  0
  5  7  1  0
  5 34  1  1
  6 35  1  0
  7  8  1  0
  7 36  1  0
  7 37  1  0
  8  9  1  0
  8 38  1  0
  8 39  1  0
  9 10  1  0
  9 40  1  6
 10 19  1  0
 10 11  1  0
 10 41  1  6
 11 12  1  0
 11 42  1  0
 11 43  1  0
 12 13  1  0
 12 44  1  0
 12 45  1  0
 13 18  2  0
 13 14  1  0
 14 27  1  0
 14 15  1  0
 15 16  2  0
 15 17  1  0
 17 18  1  0
 18 19  1  0
 19 20  1  0
 19 46  1  6
 20 21  1  0
 20 47  1  0
 20 48  1  0
 21 23  1  0
 21 22  1  0
 21 49  1  6
 23 22  1  1
 23 26  1  0
 23 24  1  0
 24 25  1  0
 24 50  1  6
 25 26  1  0
 26 51  1  1
M  END
>  <i_m_ct_stereo_status>  (267) 
1

>  <s_m_source_file>  (267) 
/var/tmp/pbs.5076255.sched01/tmpz7l6rxva/92z_h6r8yo.sdf

>  <i_m_source_file_index>  (267) 
19

>  <i_lp_mmshare_version>  (267) 
48012

>  <i_f3d_flags>  (267) 
0

>  <s_epik_input>  (267) 
W0NIMl0xW0NIMl1bQ0BIXShbT0hdKVtDSDJdW0NAQEhdKFtDQEBdMihbQ0gzXSlbQ0BASF0zT1tDQEhdMjQpW0NASF0xW0NASF0oW0NAQEhdNVtDSDJdW0NAQEhdKE82KUMzNDYpW0NIMl1bQ0gyXWM3YzVzYyg9TylbbkhdNw==

>  <s_epik_cmdline>  (267) 
J2VwaWtfcHl0aG9uJywgJy1waHQnLCAnMi4wJywgJy1waCcsICc3LjAnLCAnLXRuJywgJzgnLCAnLW1hJywgJzIwMCcsICctaW1hZScsICc8aW5maWxlLm1hZT4nLCAnLW9tYWUnLCAnPG91dGZpbGUubWFlPic=

>  <r_lp_tautomer_probability>  (267) 
1

>  <r_epik_Ionization_Penalty>  (267) 
3.59574e-05

>  <r_epik_Ionization_Penalty_Charging>  (267) 
3.42621e-05

>  <r_epik_Ionization_Penalty_Neutral>  (267) 
1.69537e-06

>  <r_epik_State_Penalty>  (267) 
-0

>  <r_epik_Charging_Adjusted_Penalty>  (267) 
3.42621e-05

>  <i_epik_Tot_Q>  (267) 
0

>  <i_epik_Tot_abs_Q>  (267) 
0

>  <s_lp_Force_Field>  (267) 
OPLS3e

>  <r_lp_Energy>  (267) 
112.771

>  <b_lp_Chiralities_Consistent>  (267) 
1

>  <s_lp_Variant>  (267) 
72:0-3

>  <s_i_glide_gridfile>  (267) 
pfpi4k_grid

>  <i_i_glide_lignum>  (267) 
19

>  <i_i_glide_rotatable_bonds>  (267) 
1

>  <r_i_docking_score>  (267) 
-2.77183

>  <r_i_glide_ligand_efficiency>  (267) 
-0.106609

>  <r_i_glide_ligand_efficiency_sa>  (267) 
-0.315828

>  <r_i_glide_ligand_efficiency_ln>  (267) 
-0.650955

>  <r_i_glide_gscore>  (267) 
-2.77183

>  <r_i_glide_lipo>  (267) 
0

>  <r_i_glide_hbond>  (267) 
-0.205529

>  <r_i_glide_metal>  (267) 
-0

>  <r_i_glide_rewards>  (267) 
-0.848981

>  <r_i_glide_evdw>  (267) 
-13.8709

>  <r_i_glide_ecoul>  (267) 
-6.82515

>  <r_i_glide_erotb>  (267) 
0

>  <r_i_glide_esite>  (267) 
0

>  <r_i_glide_emodel>  (267) 
-25.1349

>  <r_i_glide_energy>  (267) 
-20.6961

>  <r_i_glide_einternal>  (267) 
0.0333972

>  <r_i_glide_intrahb_reward>  (267) 
-0

>  <i_i_glide_confnum>  (267) 
1

>  <i_i_glide_posenum>  (267) 
4

>  <r_i_glide_eff_state_penalty>  (267) 
0

>  <ligand_id>  (267) 
72

>  <original_smiles>  (267) 
CC12C3CC(O)CCC3C3CCc4[nH]c(=O)sc4C3CC3OC34C1OC24

>  <smiles>  (267) 
[H]OC1([H])C([H])([H])C([H])([H])C2([H])C3([H])C([H])([H])C([H])([H])c4c(sc(=O)n4[H])C3([H])C([H])([H])C3([H])OC34C3([H])OC4([H])C3(C([H])([H])[H])C2([H])C1([H])[H]

$$$$
72:3:0
     RDKit          3D

 51 57  0  0  1  0  0  0  0  0999 V2000
    5.8886   -6.6072    2.8721 C   0  0  0  0  0  0  0  0  0  0  0  0
    5.6352   -7.7169    1.8192 C   0  0  1  0  0  0  0  0  0  0  0  0
    4.5499   -7.2693    0.8616 C   0  0  2  0  0  0  0  0  0  0  0  0
    4.9872   -6.1317   -0.0977 C   0  0  0  0  0  0  0  0  0  0  0  0
    4.5981   -4.6969    0.2988 C   0  0  1  0  0  0  0  0  0  0  0  0
    4.7089   -3.8692   -0.8376 O   0  0  0  0  0  0  0  0  0  0  0  0
    3.1758   -4.6068    0.8581 C   0  0  0  0  0  0  0  0  0  0  0  0
    2.9569   -5.5601    2.0420 C   0  0  0  0  0  0  0  0  0  0  0  0
    3.1994   -7.0470    1.6663 C   0  0  2  0  0  0  0  0  0  0  0  0
    2.7087   -8.0630    2.8221 C   0  0  1  0  0  0  0  0  0  0  0  0
    1.8837   -9.2682    2.2486 C   0  0  0  0  0  0  0  0  0  0  0  0
    1.4190  -10.3256    3.2801 C   0  0  0  0  0  0  0  0  0  0  0  0
    1.3003   -9.7106    4.6542 C   0  0  0  0  0  0  0  0  0  0  0  0
    0.2430  -10.0043    5.4999 N   0  0  0  0  0  0  0  0  0  0  0  0
    0.2655   -9.3211    6.7055 C   0  0  0  0  0  0  0  0  0  0  0  0
   -0.5323   -9.3900    7.6336 O   0  0  0  0  0  0  0  0  0  0  0  0
    1.7090   -8.2205    6.7001 S   0  0  0  0  0  0  0  0  0  0  0  0
    2.1646   -8.8106    5.1154 C   0  0  0  0  0  0  0  0  0  0  0  0
    3.3505   -8.3039    4.2992 C   0  0  1  0  0  0  0  0  0  0  0  0
    4.4811   -9.3904    4.6440 C   0  0  0  0  0  0  0  0  0  0  0  0
    5.9883   -9.1868    4.3465 C   0  0  1  0  0  0  0  0  0  0  0  0
    6.7808  -10.3809    3.8716 O   0  0  0  0  0  0  0  0  0  0  0  0
    6.4244   -9.3626    2.9741 C   0  0  2  0  0  0  0  0  0  0  0  0
    6.9631   -8.5645    1.8130 C   0  0  1  0  0  0  0  0  0  0  0  0
    6.3157   -9.4756    0.9288 O   0  0  0  0  0  0  0  0  0  0  0  0
    5.3889   -9.2719    2.0180 C   0  0  2  0  0  0  0  0  0  0  0  0
   -0.5220  -10.6406    5.2836 H   0  0  0  0  0  0  0  0  0  0  0  0
    5.1116   -6.5233    3.6171 H   0  0  0  0  0  0  0  0  0  0  0  0
    6.0418   -5.6348    2.4197 H   0  0  0  0  0  0  0  0  0  0  0  0
    6.8176   -6.7754    3.4245 H   0  0  0  0  0  0  0  0  0  0  0  0
    4.3491   -8.1067    0.1906 H   0  0  0  0  0  0  0  0  0  0  0  0
    6.0707   -6.1586   -0.2078 H   0  0  0  0  0  0  0  0  0  0  0  0
    4.6145   -6.3532   -1.0927 H   0  0  0  0  0  0  0  0  0  0  0  0
    5.2943   -4.2947    1.0326 H   0  0  0  0  0  0  0  0  0  0  0  0
    4.1284   -4.2105   -1.5071 H   0  0  0  0  0  0  0  0  0  0  0  0
    2.9779   -3.5835    1.1817 H   0  0  0  0  0  0  0  0  0  0  0  0
    2.4549   -4.8337    0.0715 H   0  0  0  0  0  0  0  0  0  0  0  0
    3.5696   -5.2488    2.8846 H   0  0  0  0  0  0  0  0  0  0  0  0
    1.9273   -5.4312    2.3749 H   0  0  0  0  0  0  0  0  0  0  0  0
    2.4535   -7.1928    0.8829 H   0  0  0  0  0  0  0  0  0  0  0  0
    1.8653   -7.4573    3.1568 H   0  0  0  0  0  0  0  0  0  0  0  0
    0.9718   -8.8483    1.8176 H   0  0  0  0  0  0  0  0  0  0  0  0
    2.3783   -9.7511    1.4052 H   0  0  0  0  0  0  0  0  0  0  0  0
    0.4984  -10.8307    2.9859 H   0  0  0  0  0  0  0  0  0  0  0  0
    2.1900  -11.0952    3.3489 H   0  0  0  0  0  0  0  0  0  0  0  0
    3.6004   -7.3495    4.7590 H   0  0  0  0  0  0  0  0  0  0  0  0
    4.4522   -9.5575    5.7216 H   0  0  0  0  0  0  0  0  0  0  0  0
    4.1965  -10.3528    4.2190 H   0  0  0  0  0  0  0  0  0  0  0  0
    6.5202   -8.4553    4.9526 H   0  0  0  0  0  0  0  0  0  0  0  0
    7.9711   -8.1611    1.6583 H   0  0  0  0  0  0  0  0  0  0  0  0
    4.4513   -9.8154    2.0528 H   0  0  0  0  0  0  0  0  0  0  0  0
  2  1  1  1
  1 28  1  0
  1 29  1  0
  1 30  1  0
  2 24  1  0
  2 26  1  0
  2  3  1  0
  3  9  1  0
  3  4  1  0
  3 31  1  6
  4  5  1  0
  4 32  1  0
  4 33  1  0
  5  6  1  0
  5  7  1  0
  5 34  1  1
  6 35  1  0
  7  8  1  0
  7 36  1  0
  7 37  1  0
  8  9  1  0
  8 38  1  0
  8 39  1  0
  9 10  1  0
  9 40  1  6
 10 19  1  0
 10 11  1  0
 10 41  1  1
 11 12  1  0
 11 42  1  0
 11 43  1  0
 12 13  1  0
 12 44  1  0
 12 45  1  0
 13 18  2  0
 13 14  1  0
 14 27  1  0
 14 15  1  0
 15 16  2  0
 15 17  1  0
 17 18  1  0
 18 19  1  0
 19 20  1  0
 19 46  1  1
 20 21  1  0
 20 47  1  0
 20 48  1  0
 21 23  1  0
 21 22  1  0
 21 49  1  1
 23 22  1  1
 23 26  1  0
 23 24  1  0
 24 25  1  0
 24 50  1  6
 25 26  1  0
 26 51  1  1
M  END
>  <i_m_ct_stereo_status>  (268) 
1

>  <s_m_source_file>  (268) 
/var/tmp/pbs.5076255.sched01/tmpz7l6rxva/92z_h6r8yo.sdf

>  <i_m_source_file_index>  (268) 
20

>  <i_lp_mmshare_version>  (268) 
48012

>  <i_f3d_flags>  (268) 
0

>  <s_epik_input>  (268) 
W0NIMl0xW0NIMl1bQ0BIXShbT0hdKVtDSDJdW0NAQEhdKFtDQEBdMihbQ0gzXSlbQ0BASF0zT1tDQEhdMjQpW0NASF0xW0NASF0oW0NAQEhdNVtDSDJdW0NAQEhdKE82KUMzNDYpW0NIMl1bQ0gyXWM3YzVzYyg9TylbbkhdNw==

>  <s_epik_cmdline>  (268) 
J2VwaWtfcHl0aG9uJywgJy1waHQnLCAnMi4wJywgJy1waCcsICc3LjAnLCAnLXRuJywgJzgnLCAnLW1hJywgJzIwMCcsICctaW1hZScsICc8aW5maWxlLm1hZT4nLCAnLW9tYWUnLCAnPG91dGZpbGUubWFlPic=

>  <r_lp_tautomer_probability>  (268) 
1

>  <r_epik_Ionization_Penalty>  (268) 
3.59574e-05

>  <r_epik_Ionization_Penalty_Charging>  (268) 
3.42621e-05

>  <r_epik_Ionization_Penalty_Neutral>  (268) 
1.69537e-06

>  <r_epik_State_Penalty>  (268) 
-0

>  <r_epik_Charging_Adjusted_Penalty>  (268) 
3.42621e-05

>  <i_epik_Tot_Q>  (268) 
0

>  <i_epik_Tot_abs_Q>  (268) 
0

>  <s_lp_Force_Field>  (268) 
OPLS3e

>  <r_lp_Energy>  (268) 
157.518

>  <b_lp_Chiralities_Consistent>  (268) 
1

>  <s_lp_Variant>  (268) 
72:0-4

>  <s_i_glide_gridfile>  (268) 
pfpi4k_grid

>  <i_i_glide_lignum>  (268) 
20

>  <i_i_glide_rotatable_bonds>  (268) 
1

>  <r_i_docking_score>  (268) 
-3.77711

>  <r_i_glide_ligand_efficiency>  (268) 
-0.145273

>  <r_i_glide_ligand_efficiency_sa>  (268) 
-0.430372

>  <r_i_glide_ligand_efficiency_ln>  (268) 
-0.887041

>  <r_i_glide_gscore>  (268) 
-3.77711

>  <r_i_glide_lipo>  (268) 
-0.632066

>  <r_i_glide_hbond>  (268) 
-0.16

>  <r_i_glide_metal>  (268) 
-0

>  <r_i_glide_rewards>  (268) 
-0.848981

>  <r_i_glide_evdw>  (268) 
-19.2892

>  <r_i_glide_ecoul>  (268) 
-7.20972

>  <r_i_glide_erotb>  (268) 
0

>  <r_i_glide_esite>  (268) 
-0.0901429

>  <r_i_glide_emodel>  (268) 
-33.2162

>  <r_i_glide_energy>  (268) 
-26.4989

>  <r_i_glide_einternal>  (268) 
0.00376031

>  <r_i_glide_intrahb_reward>  (268) 
-0

>  <i_i_glide_confnum>  (268) 
1

>  <i_i_glide_posenum>  (268) 
2

>  <r_i_glide_eff_state_penalty>  (268) 
0

>  <ligand_id>  (268) 
72

>  <original_smiles>  (268) 
CC12C3CC(O)CCC3C3CCc4[nH]c(=O)sc4C3CC3OC34C1OC24

>  <smiles>  (268) 
[H]OC1([H])C([H])([H])C([H])([H])C2([H])C3([H])C([H])([H])C([H])([H])c4c(sc(=O)n4[H])C3([H])C([H])([H])C3([H])OC34C3([H])OC4([H])C3(C([H])([H])[H])C2([H])C1([H])[H]

$$$$
72:3:1
     RDKit          3D

 51 57  0  0  1  0  0  0  0  0999 V2000
    3.3133   -1.2538    0.3362 C   0  0  0  0  0  0  0  0  0  0  0  0
    4.7494   -1.7510    0.0803 C   0  0  1  0  0  0  0  0  0  0  0  0
    4.8223   -2.3804   -1.2970 C   0  0  2  0  0  0  0  0  0  0  0  0
    4.7047   -1.3748   -2.4689 C   0  0  0  0  0  0  0  0  0  0  0  0
    3.3185   -1.2128   -3.1156 C   0  0  1  0  0  0  0  0  0  0  0  0
    3.4963   -0.6197   -4.3855 O   0  0  0  0  0  0  0  0  0  0  0  0
    2.6113   -2.5572   -3.3096 C   0  0  0  0  0  0  0  0  0  0  0  0
    2.4868   -3.3342   -1.9935 C   0  0  0  0  0  0  0  0  0  0  0  0
    3.8646   -3.6468   -1.3487 C   0  0  2  0  0  0  0  0  0  0  0  0
    3.7480   -4.6842   -0.1179 C   0  0  1  0  0  0  0  0  0  0  0  0
    4.8304   -5.8167   -0.1897 C   0  0  0  0  0  0  0  0  0  0  0  0
    4.8294   -6.8358    0.9758 C   0  0  0  0  0  0  0  0  0  0  0  0
    3.4570   -6.9258    1.5973 C   0  0  0  0  0  0  0  0  0  0  0  0
    2.9128   -8.1423    1.9805 N   0  0  0  0  0  0  0  0  0  0  0  0
    1.6178   -8.0564    2.4756 C   0  0  0  0  0  0  0  0  0  0  0  0
    0.9014   -8.9612    2.8864 O   0  0  0  0  0  0  0  0  0  0  0  0
    1.1062   -6.3156    2.4158 S   0  0  0  0  0  0  0  0  0  0  0  0
    2.6697   -5.8687    1.7654 C   0  0  0  0  0  0  0  0  0  0  0  0
    3.0783   -4.4596    1.3436 C   0  0  1  0  0  0  0  0  0  0  0  0
    3.8624   -3.9338    2.6341 C   0  0  0  0  0  0  0  0  0  0  0  0
    4.1911   -2.4421    2.8653 C   0  0  1  0  0  0  0  0  0  0  0  0
    5.4957   -2.1208    3.5240 O   0  0  0  0  0  0  0  0  0  0  0  0
    5.3330   -1.8923    2.1442 C   0  0  2  0  0  0  0  0  0  0  0  0
    5.6355   -0.8959    1.0596 C   0  0  1  0  0  0  0  0  0  0  0  0
    6.7469   -1.6997    0.6582 O   0  0  0  0  0  0  0  0  0  0  0  0
    5.6922   -2.6294    1.0001 C   0  0  2  0  0  0  0  0  0  0  0  0
    3.3820   -9.0316    1.9001 H   0  0  0  0  0  0  0  0  0  0  0  0
    2.5983   -2.0373    0.5248 H   0  0  0  0  0  0  0  0  0  0  0  0
    2.9608   -0.6582   -0.4935 H   0  0  0  0  0  0  0  0  0  0  0  0
    3.2506   -0.5701    1.1812 H   0  0  0  0  0  0  0  0  0  0  0  0
    5.8269   -2.7814   -1.4064 H   0  0  0  0  0  0  0  0  0  0  0  0
    5.0607   -0.3964   -2.1483 H   0  0  0  0  0  0  0  0  0  0  0  0
    5.3920   -1.7228   -3.2360 H   0  0  0  0  0  0  0  0  0  0  0  0
    2.6767   -0.5414   -2.5376 H   0  0  0  0  0  0  0  0  0  0  0  0
    2.6433   -0.4717   -4.7701 H   0  0  0  0  0  0  0  0  0  0  0  0
    1.6161   -2.3916   -3.7223 H   0  0  0  0  0  0  0  0  0  0  0  0
    3.1500   -3.1592   -4.0406 H   0  0  0  0  0  0  0  0  0  0  0  0
    1.8389   -2.8001   -1.3102 H   0  0  0  0  0  0  0  0  0  0  0  0
    1.9473   -4.2545   -2.2146 H   0  0  0  0  0  0  0  0  0  0  0  0
    4.3382   -4.2432   -2.1293 H   0  0  0  0  0  0  0  0  0  0  0  0
    2.9089   -5.2456   -0.5299 H   0  0  0  0  0  0  0  0  0  0  0  0
    4.6276   -6.3930   -1.0924 H   0  0  0  0  0  0  0  0  0  0  0  0
    5.8330   -5.4193   -0.3432 H   0  0  0  0  0  0  0  0  0  0  0  0
    5.2000   -7.8179    0.6817 H   0  0  0  0  0  0  0  0  0  0  0  0
    5.4974   -6.4646    1.7515 H   0  0  0  0  0  0  0  0  0  0  0  0
    2.1423   -3.9210    1.2464 H   0  0  0  0  0  0  0  0  0  0  0  0
    3.2767   -4.2067    3.5137 H   0  0  0  0  0  0  0  0  0  0  0  0
    4.7914   -4.4974    2.7509 H   0  0  0  0  0  0  0  0  0  0  0  0
    3.3671   -1.7795    3.1151 H   0  0  0  0  0  0  0  0  0  0  0  0
    5.6387    0.1956    1.0926 H   0  0  0  0  0  0  0  0  0  0  0  0
    5.8686   -3.7005    0.9600 H   0  0  0  0  0  0  0  0  0  0  0  0
  2  1  1  1
  1 28  1  0
  1 29  1  0
  1 30  1  0
  2 24  1  0
  2 26  1  0
  2  3  1  0
  3  9  1  0
  3  4  1  0
  3 31  1  6
  4  5  1  0
  4 32  1  0
  4 33  1  0
  5  6  1  0
  5  7  1  0
  5 34  1  1
  6 35  1  0
  7  8  1  0
  7 36  1  0
  7 37  1  0
  8  9  1  0
  8 38  1  0
  8 39  1  0
  9 10  1  0
  9 40  1  6
 10 19  1  0
 10 11  1  0
 10 41  1  6
 11 12  1  0
 11 42  1  0
 11 43  1  0
 12 13  1  0
 12 44  1  0
 12 45  1  0
 13 18  2  0
 13 14  1  0
 14 27  1  0
 14 15  1  0
 15 16  2  0
 15 17  1  0
 17 18  1  0
 18 19  1  0
 19 20  1  0
 19 46  1  6
 20 21  1  0
 20 47  1  0
 20 48  1  0
 21 23  1  0
 21 22  1  0
 21 49  1  1
 23 22  1  1
 23 26  1  0
 23 24  1  0
 24 25  1  0
 24 50  1  1
 25 26  1  0
 26 51  1  1
M  END
>  <i_m_ct_stereo_status>  (269) 
1

>  <s_m_source_file>  (269) 
/var/tmp/pbs.5076255.sched01/tmpz7l6rxva/92z_h6r8yo.sdf

>  <i_m_source_file_index>  (269) 
20

>  <i_lp_mmshare_version>  (269) 
48012

>  <i_f3d_flags>  (269) 
0

>  <s_epik_input>  (269) 
W0NIMl0xW0NIMl1bQ0BIXShbT0hdKVtDSDJdW0NAQEhdKFtDQEBdMihbQ0gzXSlbQ0BASF0zT1tDQEhdMjQpW0NASF0xW0NASF0oW0NAQEhdNVtDSDJdW0NAQEhdKE82KUMzNDYpW0NIMl1bQ0gyXWM3YzVzYyg9TylbbkhdNw==

>  <s_epik_cmdline>  (269) 
J2VwaWtfcHl0aG9uJywgJy1waHQnLCAnMi4wJywgJy1waCcsICc3LjAnLCAnLXRuJywgJzgnLCAnLW1hJywgJzIwMCcsICctaW1hZScsICc8aW5maWxlLm1hZT4nLCAnLW9tYWUnLCAnPG91dGZpbGUubWFlPic=

>  <r_lp_tautomer_probability>  (269) 
1

>  <r_epik_Ionization_Penalty>  (269) 
3.59574e-05

>  <r_epik_Ionization_Penalty_Charging>  (269) 
3.42621e-05

>  <r_epik_Ionization_Penalty_Neutral>  (269) 
1.69537e-06

>  <r_epik_State_Penalty>  (269) 
-0

>  <r_epik_Charging_Adjusted_Penalty>  (269) 
3.42621e-05

>  <i_epik_Tot_Q>  (269) 
0

>  <i_epik_Tot_abs_Q>  (269) 
0

>  <s_lp_Force_Field>  (269) 
OPLS3e

>  <r_lp_Energy>  (269) 
157.518

>  <b_lp_Chiralities_Consistent>  (269) 
1

>  <s_lp_Variant>  (269) 
72:0-4

>  <s_i_glide_gridfile>  (269) 
pfpi4k_grid

>  <i_i_glide_lignum>  (269) 
20

>  <i_i_glide_rotatable_bonds>  (269) 
1

>  <r_i_docking_score>  (269) 
-3.46235

>  <r_i_glide_ligand_efficiency>  (269) 
-0.133167

>  <r_i_glide_ligand_efficiency_sa>  (269) 
-0.394508

>  <r_i_glide_ligand_efficiency_ln>  (269) 
-0.813122

>  <r_i_glide_gscore>  (269) 
-3.46235

>  <r_i_glide_lipo>  (269) 
-0.736869

>  <r_i_glide_hbond>  (269) 
0

>  <r_i_glide_metal>  (269) 
-0

>  <r_i_glide_rewards>  (269) 
-0.848981

>  <r_i_glide_evdw>  (269) 
-26.4606

>  <r_i_glide_ecoul>  (269) 
-3.62321

>  <r_i_glide_erotb>  (269) 
0

>  <r_i_glide_esite>  (269) 
-0.00999302

>  <r_i_glide_emodel>  (269) 
-36.1484

>  <r_i_glide_energy>  (269) 
-30.0838

>  <r_i_glide_einternal>  (269) 
0.326191

>  <r_i_glide_intrahb_reward>  (269) 
-0

>  <i_i_glide_confnum>  (269) 
2

>  <i_i_glide_posenum>  (269) 
30

>  <r_i_glide_eff_state_penalty>  (269) 
0

>  <ligand_id>  (269) 
72

>  <original_smiles>  (269) 
CC12C3CC(O)CCC3C3CCc4[nH]c(=O)sc4C3CC3OC34C1OC24

>  <smiles>  (269) 
[H]OC1([H])C([H])([H])C([H])([H])C2([H])C3([H])C([H])([H])C([H])([H])c4c(sc(=O)n4[H])C3([H])C([H])([H])C3([H])OC34C3([H])OC4([H])C3(C([H])([H])[H])C2([H])C1([H])[H]

$$$$
72:3:2
     RDKit          3D

 51 57  0  0  1  0  0  0  0  0999 V2000
    2.3506   -9.1329    1.7359 C   0  0  0  0  0  0  0  0  0  0  0  0
    2.9113   -8.9703    3.1512 C   0  0  1  0  0  0  0  0  0  0  0  0
    1.9877   -8.0550    3.9423 C   0  0  2  0  0  0  0  0  0  0  0  0
    0.6154   -8.6777    4.3239 C   0  0  0  0  0  0  0  0  0  0  0  0
   -0.5531   -8.3638    3.3790 C   0  0  1  0  0  0  0  0  0  0  0  0
   -1.7600   -8.6544    4.0644 O   0  0  0  0  0  0  0  0  0  0  0  0
   -0.5735   -6.8830    2.9839 C   0  0  0  0  0  0  0  0  0  0  0  0
    0.7398   -6.4274    2.3334 C   0  0  0  0  0  0  0  0  0  0  0  0
    1.9605   -6.6156    3.2652 C   0  0  2  0  0  0  0  0  0  0  0  0
    3.2891   -5.9018    2.6872 C   0  0  1  0  0  0  0  0  0  0  0  0
    4.0628   -5.1065    3.7942 C   0  0  0  0  0  0  0  0  0  0  0  0
    5.3786   -4.4192    3.3476 C   0  0  0  0  0  0  0  0  0  0  0  0
    5.3708   -4.1645    1.8541 C   0  0  0  0  0  0  0  0  0  0  0  0
    5.8833   -2.9696    1.3369 N   0  0  0  0  0  0  0  0  0  0  0  0
    5.7381   -2.8546   -0.0410 C   0  0  0  0  0  0  0  0  0  0  0  0
    6.1090   -1.9296   -0.7709 O   0  0  0  0  0  0  0  0  0  0  0  0
    4.8860   -4.3359   -0.6461 S   0  0  0  0  0  0  0  0  0  0  0  0
    4.8403   -4.9922    0.9838 C   0  0  0  0  0  0  0  0  0  0  0  0
    4.1774   -6.3160    1.3875 C   0  0  1  0  0  0  0  0  0  0  0  0
    5.4345   -7.3104    1.4229 C   0  0  0  0  0  0  0  0  0  0  0  0
    5.3233   -8.8631    1.4630 C   0  0  1  0  0  0  0  0  0  0  0  0
    6.3109   -9.6141    2.3321 O   0  0  0  0  0  0  0  0  0  0  0  0
    4.9799   -9.4790    2.7012 C   0  0  2  0  0  0  0  0  0  0  0  0
    3.8535  -10.2142    3.3635 C   0  0  1  0  0  0  0  0  0  0  0  0
    4.2266   -9.6250    4.6028 O   0  0  0  0  0  0  0  0  0  0  0  0
    4.3694   -8.5917    3.6128 C   0  0  2  0  0  0  0  0  0  0  0  0
    6.2936   -2.2279    1.8778 H   0  0  0  0  0  0  0  0  0  0  0  0
    2.4964   -8.2682    1.1146 H   0  0  0  0  0  0  0  0  0  0  0  0
    1.3068   -9.4139    1.7115 H   0  0  0  0  0  0  0  0  0  0  0  0
    2.8358   -9.9528    1.2177 H   0  0  0  0  0  0  0  0  0  0  0  0
    2.4660   -7.8989    4.9015 H   0  0  0  0  0  0  0  0  0  0  0  0
    0.7305   -9.7588    4.3541 H   0  0  0  0  0  0  0  0  0  0  0  0
    0.3676   -8.3647    5.3412 H   0  0  0  0  0  0  0  0  0  0  0  0
   -0.5329   -8.9781    2.4777 H   0  0  0  0  0  0  0  0  0  0  0  0
   -1.7979   -9.5558    4.3636 H   0  0  0  0  0  0  0  0  0  0  0  0
   -1.3959   -6.7127    2.2901 H   0  0  0  0  0  0  0  0  0  0  0  0
   -0.7658   -6.2725    3.8680 H   0  0  0  0  0  0  0  0  0  0  0  0
    0.8675   -6.9381    1.3822 H   0  0  0  0  0  0  0  0  0  0  0  0
    0.6511   -5.3711    2.0934 H   0  0  0  0  0  0  0  0  0  0  0  0
    1.6975   -5.9768    4.1126 H   0  0  0  0  0  0  0  0  0  0  0  0
    2.7815   -5.0543    2.2206 H   0  0  0  0  0  0  0  0  0  0  0  0
    3.4082   -4.2884    4.0927 H   0  0  0  0  0  0  0  0  0  0  0  0
    4.2127   -5.6801    4.7137 H   0  0  0  0  0  0  0  0  0  0  0  0
    5.6162   -3.5131    3.9018 H   0  0  0  0  0  0  0  0  0  0  0  0
    6.1980   -5.1098    3.5189 H   0  0  0  0  0  0  0  0  0  0  0  0
    3.5380   -6.5554    0.5455 H   0  0  0  0  0  0  0  0  0  0  0  0
    6.0130   -7.0999    0.5234 H   0  0  0  0  0  0  0  0  0  0  0  0
    6.1070   -7.0344    2.2376 H   0  0  0  0  0  0  0  0  0  0  0  0
    4.9609   -9.3556    0.5639 H   0  0  0  0  0  0  0  0  0  0  0  0
    3.5355  -11.2383    3.2234 H   0  0  0  0  0  0  0  0  0  0  0  0
    4.7651   -7.6303    3.8834 H   0  0  0  0  0  0  0  0  0  0  0  0
  2  1  1  6
  1 28  1  0
  1 29  1  0
  1 30  1  0
  2 24  1  0
  2 26  1  0
  2  3  1  0
  3  9  1  0
  3  4  1  0
  3 31  1  1
  4  5  1  0
  4 32  1  0
  4 33  1  0
  5  6  1  0
  5  7  1  0
  5 34  1  6
  6 35  1  0
  7  8  1  0
  7 36  1  0
  7 37  1  0
  8  9  1  0
  8 38  1  0
  8 39  1  0
  9 10  1  0
  9 40  1  1
 10 19  1  0
 10 11  1  0
 10 41  1  6
 11 12  1  0
 11 42  1  0
 11 43  1  0
 12 13  1  0
 12 44  1  0
 12 45  1  0
 13 18  2  0
 13 14  1  0
 14 27  1  0
 14 15  1  0
 15 16  2  0
 15 17  1  0
 17 18  1  0
 18 19  1  0
 19 20  1  0
 19 46  1  6
 20 21  1  0
 20 47  1  0
 20 48  1  0
 21 23  1  0
 21 22  1  0
 21 49  1  6
 23 22  1  1
 23 26  1  0
 23 24  1  0
 24 25  1  0
 24 50  1  1
 25 26  1  0
 26 51  1  1
M  END
>  <i_m_ct_stereo_status>  (270) 
1

>  <s_m_source_file>  (270) 
/var/tmp/pbs.5076255.sched01/tmpz7l6rxva/92z_h6r8yo.sdf

>  <i_m_source_file_index>  (270) 
20

>  <i_lp_mmshare_version>  (270) 
48012

>  <i_f3d_flags>  (270) 
0

>  <s_epik_input>  (270) 
W0NIMl0xW0NIMl1bQ0BIXShbT0hdKVtDSDJdW0NAQEhdKFtDQEBdMihbQ0gzXSlbQ0BASF0zT1tDQEhdMjQpW0NASF0xW0NASF0oW0NAQEhdNVtDSDJdW0NAQEhdKE82KUMzNDYpW0NIMl1bQ0gyXWM3YzVzYyg9TylbbkhdNw==

>  <s_epik_cmdline>  (270) 
J2VwaWtfcHl0aG9uJywgJy1waHQnLCAnMi4wJywgJy1waCcsICc3LjAnLCAnLXRuJywgJzgnLCAnLW1hJywgJzIwMCcsICctaW1hZScsICc8aW5maWxlLm1hZT4nLCAnLW9tYWUnLCAnPG91dGZpbGUubWFlPic=

>  <r_lp_tautomer_probability>  (270) 
1

>  <r_epik_Ionization_Penalty>  (270) 
3.59574e-05

>  <r_epik_Ionization_Penalty_Charging>  (270) 
3.42621e-05

>  <r_epik_Ionization_Penalty_Neutral>  (270) 
1.69537e-06

>  <r_epik_State_Penalty>  (270) 
-0

>  <r_epik_Charging_Adjusted_Penalty>  (270) 
3.42621e-05

>  <i_epik_Tot_Q>  (270) 
0

>  <i_epik_Tot_abs_Q>  (270) 
0

>  <s_lp_Force_Field>  (270) 
OPLS3e

>  <r_lp_Energy>  (270) 
157.518

>  <b_lp_Chiralities_Consistent>  (270) 
1

>  <s_lp_Variant>  (270) 
72:0-4

>  <s_i_glide_gridfile>  (270) 
pfpi4k_grid

>  <i_i_glide_lignum>  (270) 
20

>  <i_i_glide_rotatable_bonds>  (270) 
1

>  <r_i_docking_score>  (270) 
-3.34165

>  <r_i_glide_ligand_efficiency>  (270) 
-0.128525

>  <r_i_glide_ligand_efficiency_sa>  (270) 
-0.380754

>  <r_i_glide_ligand_efficiency_ln>  (270) 
-0.784775

>  <r_i_glide_gscore>  (270) 
-3.34165

>  <r_i_glide_lipo>  (270) 
-0.345709

>  <r_i_glide_hbond>  (270) 
-0.207732

>  <r_i_glide_metal>  (270) 
-0

>  <r_i_glide_rewards>  (270) 
-0.848981

>  <r_i_glide_evdw>  (270) 
-21.5748

>  <r_i_glide_ecoul>  (270) 
-5.73657

>  <r_i_glide_erotb>  (270) 
0

>  <r_i_glide_esite>  (270) 
0

>  <r_i_glide_emodel>  (270) 
-32.9783

>  <r_i_glide_energy>  (270) 
-27.3114

>  <r_i_glide_einternal>  (270) 
0.36047

>  <r_i_glide_intrahb_reward>  (270) 
-0

>  <i_i_glide_confnum>  (270) 
1

>  <i_i_glide_posenum>  (270) 
20

>  <r_i_glide_eff_state_penalty>  (270) 
0

>  <ligand_id>  (270) 
72

>  <original_smiles>  (270) 
CC12C3CC(O)CCC3C3CCc4[nH]c(=O)sc4C3CC3OC34C1OC24

>  <smiles>  (270) 
[H]OC1([H])C([H])([H])C([H])([H])C2([H])C3([H])C([H])([H])C([H])([H])c4c(sc(=O)n4[H])C3([H])C([H])([H])C3([H])OC34C3([H])OC4([H])C3(C([H])([H])[H])C2([H])C1([H])[H]

$$$$
74:0:0
     RDKit          3D

 16 17  0  0  1  0  0  0  0  0999 V2000
    6.9727   -3.0290    0.7698 C   0  0  0  0  0  0  0  0  0  0  0  0
    5.9418   -2.7837   -0.2769 C   0  0  0  0  0  0  0  0  0  0  0  0
    5.9136   -1.6532   -0.9896 N   0  0  0  0  0  0  0  0  0  0  0  0
    4.8498   -1.6738   -1.8882 C   0  0  0  0  0  0  0  0  0  0  0  0
    4.6073   -0.6557   -2.7204 N   0  0  0  0  0  0  0  0  0  0  0  0
    3.5547   -0.7792   -3.5588 C   0  0  0  0  0  0  0  0  0  0  0  0
    2.7214   -1.9134   -3.6263 C   0  0  0  0  0  0  0  0  0  0  0  0
    2.9719   -2.9768   -2.7452 C   0  0  0  0  0  0  0  0  0  0  0  0
    4.0579   -2.8563   -1.8657 C   0  0  0  0  0  0  0  0  0  0  0  0
    4.6832   -3.9676   -0.6493 S   0  0  0  0  0  0  0  0  0  0  0  0
    7.6440   -2.1745    0.8352 H   0  0  0  0  0  0  0  0  0  0  0  0
    7.5557   -3.9166    0.5236 H   0  0  0  0  0  0  0  0  0  0  0  0
    6.4951   -3.1725    1.7395 H   0  0  0  0  0  0  0  0  0  0  0  0
    3.3732    0.0619   -4.2113 H   0  0  0  0  0  0  0  0  0  0  0  0
    1.8898   -1.9525   -4.3178 H   0  0  0  0  0  0  0  0  0  0  0  0
    2.3447   -3.8563   -2.7504 H   0  0  0  0  0  0  0  0  0  0  0  0
  1  2  1  0
  1 11  1  0
  1 12  1  0
  1 13  1  0
  2 10  1  0
  2  3  2  0
  3  4  1  0
  4  9  2  0
  4  5  1  0
  5  6  2  0
  6  7  1  0
  6 14  1  0
  7  8  2  0
  7 15  1  0
  8  9  1  0
  8 16  1  0
  9 10  1  0
M  END
>  <i_m_ct_stereo_status>  (271) 
1

>  <s_m_source_file>  (271) 
/var/tmp/pbs.5076255.sched01/tmpz7l6rxva/92z_h6r8yo.sdf

>  <i_m_source_file_index>  (271) 
22

>  <i_lp_mmshare_version>  (271) 
48012

>  <i_f3d_flags>  (271) 
0

>  <s_epik_input>  (271) 
W0NIM11jKG4xKXNjKGMxMilbY0hdW2NIXVtjSF1uMg==

>  <s_epik_cmdline>  (271) 
J2VwaWtfcHl0aG9uJywgJy1waHQnLCAnMi4wJywgJy1waCcsICc3LjAnLCAnLXRuJywgJzgnLCAnLW1hJywgJzIwMCcsICctaW1hZScsICc8aW5maWxlLm1hZT4nLCAnLW9tYWUnLCAnPG91dGZpbGUubWFlPic=

>  <r_lp_tautomer_probability>  (271) 
1

>  <r_epik_Ionization_Penalty>  (271) 
4.74996e-07

>  <r_epik_Ionization_Penalty_Charging>  (271) 
0

>  <r_epik_Ionization_Penalty_Neutral>  (271) 
4.74996e-07

>  <r_epik_State_Penalty>  (271) 
-0

>  <r_epik_Charging_Adjusted_Penalty>  (271) 
0

>  <i_epik_Tot_Q>  (271) 
0

>  <i_epik_Tot_abs_Q>  (271) 
0

>  <s_lp_Force_Field>  (271) 
OPLS3e

>  <r_lp_Energy>  (271) 
11.9452

>  <b_lp_Chiralities_Consistent>  (271) 
1

>  <s_lp_Variant>  (271) 
74:0-1

>  <s_i_glide_gridfile>  (271) 
pfpi4k_grid

>  <i_i_glide_lignum>  (271) 
22

>  <i_i_glide_rotatable_bonds>  (271) 
0

>  <r_i_docking_score>  (271) 
-4.1319

>  <r_i_glide_ligand_efficiency>  (271) 
-0.41319

>  <r_i_glide_ligand_efficiency_sa>  (271) 
-0.890191

>  <r_i_glide_ligand_efficiency_ln>  (271) 
-1.25111

>  <r_i_glide_gscore>  (271) 
-4.1319

>  <r_i_glide_lipo>  (271) 
-0.565766

>  <r_i_glide_hbond>  (271) 
-0.0616743

>  <r_i_glide_metal>  (271) 
-0

>  <r_i_glide_rewards>  (271) 
-2.25

>  <r_i_glide_evdw>  (271) 
-17.6277

>  <r_i_glide_ecoul>  (271) 
-2.26935

>  <r_i_glide_erotb>  (271) 
0

>  <r_i_glide_esite>  (271) 
-0.0326753

>  <r_i_glide_emodel>  (271) 
-26.1487

>  <r_i_glide_energy>  (271) 
-19.897

>  <r_i_glide_einternal>  (271) 
0

>  <r_i_glide_intrahb_reward>  (271) 
-0

>  <i_i_glide_confnum>  (271) 
2

>  <i_i_glide_posenum>  (271) 
19

>  <r_i_glide_eff_state_penalty>  (271) 
0

>  <ligand_id>  (271) 
74

>  <original_smiles>  (271) 
Cc1nc2ncccc2s1

>  <smiles>  (271) 
[H]c1nc2nc(C([H])([H])[H])sc2c([H])c1[H]

$$$$
74:0:1
     RDKit          3D

 16 17  0  0  1  0  0  0  0  0999 V2000
   -2.1363   -8.5732    3.1007 C   0  0  0  0  0  0  0  0  0  0  0  0
   -0.7571   -8.2305    2.6599 C   0  0  0  0  0  0  0  0  0  0  0  0
   -0.4726   -7.0574    2.0785 N   0  0  0  0  0  0  0  0  0  0  0  0
    0.8817   -7.0019    1.7599 C   0  0  0  0  0  0  0  0  0  0  0  0
    1.4157   -5.9323    1.1608 N   0  0  0  0  0  0  0  0  0  0  0  0
    2.7484   -5.9659    0.9204 C   0  0  0  0  0  0  0  0  0  0  0  0
    3.5947   -7.0439    1.2478 C   0  0  0  0  0  0  0  0  0  0  0  0
    3.0230   -8.1713    1.8608 C   0  0  0  0  0  0  0  0  0  0  0  0
    1.6444   -8.1451    2.1257 C   0  0  0  0  0  0  0  0  0  0  0  0
    0.5957   -9.3498    2.8763 S   0  0  0  0  0  0  0  0  0  0  0  0
   -2.8061   -7.7481    2.8735 H   0  0  0  0  0  0  0  0  0  0  0  0
   -2.1570   -8.7549    4.1755 H   0  0  0  0  0  0  0  0  0  0  0  0
   -2.4864   -9.4661    2.5822 H   0  0  0  0  0  0  0  0  0  0  0  0
    3.1567   -5.0914    0.4376 H   0  0  0  0  0  0  0  0  0  0  0  0
    4.6474   -7.0117    1.0136 H   0  0  0  0  0  0  0  0  0  0  0  0
    3.6248   -9.0289    2.1179 H   0  0  0  0  0  0  0  0  0  0  0  0
  1  2  1  0
  1 11  1  0
  1 12  1  0
  1 13  1  0
  2 10  1  0
  2  3  2  0
  3  4  1  0
  4  9  2  0
  4  5  1  0
  5  6  2  0
  6  7  1  0
  6 14  1  0
  7  8  2  0
  7 15  1  0
  8  9  1  0
  8 16  1  0
  9 10  1  0
M  END
>  <i_m_ct_stereo_status>  (272) 
1

>  <s_m_source_file>  (272) 
/var/tmp/pbs.5076255.sched01/tmpz7l6rxva/92z_h6r8yo.sdf

>  <i_m_source_file_index>  (272) 
22

>  <i_lp_mmshare_version>  (272) 
48012

>  <i_f3d_flags>  (272) 
0

>  <s_epik_input>  (272) 
W0NIM11jKG4xKXNjKGMxMilbY0hdW2NIXVtjSF1uMg==

>  <s_epik_cmdline>  (272) 
J2VwaWtfcHl0aG9uJywgJy1waHQnLCAnMi4wJywgJy1waCcsICc3LjAnLCAnLXRuJywgJzgnLCAnLW1hJywgJzIwMCcsICctaW1hZScsICc8aW5maWxlLm1hZT4nLCAnLW9tYWUnLCAnPG91dGZpbGUubWFlPic=

>  <r_lp_tautomer_probability>  (272) 
1

>  <r_epik_Ionization_Penalty>  (272) 
4.74996e-07

>  <r_epik_Ionization_Penalty_Charging>  (272) 
0

>  <r_epik_Ionization_Penalty_Neutral>  (272) 
4.74996e-07

>  <r_epik_State_Penalty>  (272) 
-0

>  <r_epik_Charging_Adjusted_Penalty>  (272) 
0

>  <i_epik_Tot_Q>  (272) 
0

>  <i_epik_Tot_abs_Q>  (272) 
0

>  <s_lp_Force_Field>  (272) 
OPLS3e

>  <r_lp_Energy>  (272) 
11.9452

>  <b_lp_Chiralities_Consistent>  (272) 
1

>  <s_lp_Variant>  (272) 
74:0-1

>  <s_i_glide_gridfile>  (272) 
pfpi4k_grid

>  <i_i_glide_lignum>  (272) 
22

>  <i_i_glide_rotatable_bonds>  (272) 
0

>  <r_i_docking_score>  (272) 
-4.08

>  <r_i_glide_ligand_efficiency>  (272) 
-0.408

>  <r_i_glide_ligand_efficiency_sa>  (272) 
-0.879009

>  <r_i_glide_ligand_efficiency_ln>  (272) 
-1.23539

>  <r_i_glide_gscore>  (272) 
-4.08

>  <r_i_glide_lipo>  (272) 
-0.0743384

>  <r_i_glide_hbond>  (272) 
-0.268255

>  <r_i_glide_metal>  (272) 
-0

>  <r_i_glide_rewards>  (272) 
-2.25

>  <r_i_glide_evdw>  (272) 
-16.3035

>  <r_i_glide_ecoul>  (272) 
-4.05284

>  <r_i_glide_erotb>  (272) 
0

>  <r_i_glide_esite>  (272) 
-0.0643005

>  <r_i_glide_emodel>  (272) 
-26.529

>  <r_i_glide_energy>  (272) 
-20.3564

>  <r_i_glide_einternal>  (272) 
0

>  <r_i_glide_intrahb_reward>  (272) 
-0

>  <i_i_glide_confnum>  (272) 
1

>  <i_i_glide_posenum>  (272) 
1

>  <r_i_glide_eff_state_penalty>  (272) 
0

>  <ligand_id>  (272) 
74

>  <original_smiles>  (272) 
Cc1nc2ncccc2s1

>  <smiles>  (272) 
[H]c1nc2nc(C([H])([H])[H])sc2c([H])c1[H]

$$$$
74:0:2
     RDKit          3D

 16 17  0  0  1  0  0  0  0  0999 V2000
    0.5858   -4.9943    7.0960 C   0  0  0  0  0  0  0  0  0  0  0  0
    0.3772   -6.0811    6.1001 C   0  0  0  0  0  0  0  0  0  0  0  0
   -0.1863   -5.8490    4.9081 N   0  0  0  0  0  0  0  0  0  0  0  0
   -0.2741   -7.0277    4.1743 C   0  0  0  0  0  0  0  0  0  0  0  0
   -0.8118   -7.0566    2.9479 N   0  0  0  0  0  0  0  0  0  0  0  0
   -0.8414   -8.2591    2.3269 C   0  0  0  0  0  0  0  0  0  0  0  0
   -0.3464   -9.4573    2.8774 C   0  0  0  0  0  0  0  0  0  0  0  0
    0.2133   -9.4214    4.1631 C   0  0  0  0  0  0  0  0  0  0  0  0
    0.2458   -8.1824    4.8243 C   0  0  0  0  0  0  0  0  0  0  0  0
    0.8515   -7.7552    6.4235 S   0  0  0  0  0  0  0  0  0  0  0  0
    0.2152   -4.0498    6.6969 H   0  0  0  0  0  0  0  0  0  0  0  0
    1.6481   -4.8858    7.3162 H   0  0  0  0  0  0  0  0  0  0  0  0
    0.0495   -5.2184    8.0187 H   0  0  0  0  0  0  0  0  0  0  0  0
   -1.2718   -8.2644    1.3371 H   0  0  0  0  0  0  0  0  0  0  0  0
   -0.3953  -10.3810    2.3184 H   0  0  0  0  0  0  0  0  0  0  0  0
    0.5952  -10.3146    4.6305 H   0  0  0  0  0  0  0  0  0  0  0  0
  1  2  1  0
  1 11  1  0
  1 12  1  0
  1 13  1  0
  2 10  1  0
  2  3  2  0
  3  4  1  0
  4  9  2  0
  4  5  1  0
  5  6  2  0
  6  7  1  0
  6 14  1  0
  7  8  2  0
  7 15  1  0
  8  9  1  0
  8 16  1  0
  9 10  1  0
M  END
>  <i_m_ct_stereo_status>  (273) 
1

>  <s_m_source_file>  (273) 
/var/tmp/pbs.5076255.sched01/tmpz7l6rxva/92z_h6r8yo.sdf

>  <i_m_source_file_index>  (273) 
22

>  <i_lp_mmshare_version>  (273) 
48012

>  <i_f3d_flags>  (273) 
0

>  <s_epik_input>  (273) 
W0NIM11jKG4xKXNjKGMxMilbY0hdW2NIXVtjSF1uMg==

>  <s_epik_cmdline>  (273) 
J2VwaWtfcHl0aG9uJywgJy1waHQnLCAnMi4wJywgJy1waCcsICc3LjAnLCAnLXRuJywgJzgnLCAnLW1hJywgJzIwMCcsICctaW1hZScsICc8aW5maWxlLm1hZT4nLCAnLW9tYWUnLCAnPG91dGZpbGUubWFlPic=

>  <r_lp_tautomer_probability>  (273) 
1

>  <r_epik_Ionization_Penalty>  (273) 
4.74996e-07

>  <r_epik_Ionization_Penalty_Charging>  (273) 
0

>  <r_epik_Ionization_Penalty_Neutral>  (273) 
4.74996e-07

>  <r_epik_State_Penalty>  (273) 
-0

>  <r_epik_Charging_Adjusted_Penalty>  (273) 
0

>  <i_epik_Tot_Q>  (273) 
0

>  <i_epik_Tot_abs_Q>  (273) 
0

>  <s_lp_Force_Field>  (273) 
OPLS3e

>  <r_lp_Energy>  (273) 
11.9452

>  <b_lp_Chiralities_Consistent>  (273) 
1

>  <s_lp_Variant>  (273) 
74:0-1

>  <s_i_glide_gridfile>  (273) 
pfpi4k_grid

>  <i_i_glide_lignum>  (273) 
22

>  <i_i_glide_rotatable_bonds>  (273) 
0

>  <r_i_docking_score>  (273) 
-3.49014

>  <r_i_glide_ligand_efficiency>  (273) 
-0.349014

>  <r_i_glide_ligand_efficiency_sa>  (273) 
-0.751928

>  <r_i_glide_ligand_efficiency_ln>  (273) 
-1.05679

>  <r_i_glide_gscore>  (273) 
-3.49014

>  <r_i_glide_lipo>  (273) 
0

>  <r_i_glide_hbond>  (273) 
-0.151829

>  <r_i_glide_metal>  (273) 
-0

>  <r_i_glide_rewards>  (273) 
-2.25

>  <r_i_glide_evdw>  (273) 
-13.1053

>  <r_i_glide_ecoul>  (273) 
-2.61168

>  <r_i_glide_erotb>  (273) 
0

>  <r_i_glide_esite>  (273) 
-0.0412944

>  <r_i_glide_emodel>  (273) 
-20.9983

>  <r_i_glide_energy>  (273) 
-15.717

>  <r_i_glide_einternal>  (273) 
0

>  <r_i_glide_intrahb_reward>  (273) 
-0

>  <i_i_glide_confnum>  (273) 
1

>  <i_i_glide_posenum>  (273) 
2

>  <r_i_glide_eff_state_penalty>  (273) 
0

>  <ligand_id>  (273) 
74

>  <original_smiles>  (273) 
Cc1nc2ncccc2s1

>  <smiles>  (273) 
[H]c1nc2nc(C([H])([H])[H])sc2c([H])c1[H]

$$$$
75:0:0
     RDKit          3D

 35 38  0  0  1  0  0  0  0  0999 V2000
    6.1165   -7.6790    2.0938 C   0  0  0  0  0  0  0  0  0  0  0  0
    4.6296   -6.8562    1.3742 S   0  0  0  0  0  0  0  0  0  0  0  0
    3.9541   -6.0823    2.4259 O   0  0  0  0  0  0  0  0  0  0  0  0
    5.0185   -6.2268    0.1053 O   0  0  0  0  0  0  0  0  0  0  0  0
    3.6534   -8.1845    0.9833 O   0  0  0  0  0  0  0  0  0  0  0  0
    3.0589   -8.8799    2.0093 C   0  0  0  0  0  0  0  0  0  0  0  0
    3.8964   -9.8763    2.5321 C   0  0  0  0  0  0  0  0  0  0  0  0
    3.6741  -10.7625    3.5908 C   0  0  0  0  0  0  0  0  0  0  0  0
    4.5793  -11.7107    4.0880 C   0  0  0  0  0  0  0  0  0  0  0  0
    5.8952  -12.0302    3.7163 C   0  0  0  0  0  0  0  0  0  0  0  0
    6.5090  -13.0647    4.4562 C   0  0  0  0  0  0  0  0  0  0  0  0
    5.9098  -13.7207    5.4818 N   0  0  0  0  0  0  0  0  0  0  0  0
    4.6426  -13.3836    5.8256 C   0  0  0  0  0  0  0  0  0  0  0  0
    3.9575  -12.3708    5.1284 C   0  0  0  0  0  0  0  0  0  0  0  0
    2.7200  -11.8652    5.2777 N   0  0  0  0  0  0  0  0  0  0  0  0
    2.4987  -10.8873    4.3787 C   0  0  0  0  0  0  0  0  0  0  0  0
    1.3559  -10.1746    4.2714 N   0  0  0  0  0  0  0  0  0  0  0  0
    0.9631   -9.1922    3.4422 C   0  0  0  0  0  0  0  0  0  0  0  0
   -0.3632   -8.7505    3.6611 C   0  0  0  0  0  0  0  0  0  0  0  0
   -0.9728   -7.7535    2.8839 C   0  0  0  0  0  0  0  0  0  0  0  0
   -0.2408   -7.1600    1.8519 C   0  0  0  0  0  0  0  0  0  0  0  0
    1.0847   -7.5599    1.6250 C   0  0  0  0  0  0  0  0  0  0  0  0
    1.7164   -8.5719    2.3932 C   0  0  0  0  0  0  0  0  0  0  0  0
    6.8914   -6.9329    2.2688 H   0  0  0  0  0  0  0  0  0  0  0  0
    6.4943   -8.4304    1.4002 H   0  0  0  0  0  0  0  0  0  0  0  0
    5.8646   -8.1294    3.0530 H   0  0  0  0  0  0  0  0  0  0  0  0
    4.8558   -9.9878    2.0482 H   0  0  0  0  0  0  0  0  0  0  0  0
    6.3960  -11.5242    2.9084 H   0  0  0  0  0  0  0  0  0  0  0  0
    7.5157  -13.3672    4.2179 H   0  0  0  0  0  0  0  0  0  0  0  0
    4.2096  -13.9168    6.6545 H   0  0  0  0  0  0  0  0  0  0  0  0
   -0.9459   -9.2040    4.4453 H   0  0  0  0  0  0  0  0  0  0  0  0
   -1.9963   -7.4643    3.0751 H   0  0  0  0  0  0  0  0  0  0  0  0
   -0.6846   -6.4167    1.2071 H   0  0  0  0  0  0  0  0  0  0  0  0
    1.6070   -7.0912    0.8077 H   0  0  0  0  0  0  0  0  0  0  0  0
    2.0651  -12.1760    6.0048 H   0  0  0  0  0  0  0  0  0  0  0  0
  1  2  1  0
  1 24  1  0
  1 25  1  0
  1 26  1  0
  2  3  2  0
  2  4  2  0
  2  5  1  0
  5  6  1  0
  6 23  2  0
  6  7  1  0
  7  8  2  0
  7 27  1  0
  8 16  1  0
  8  9  1  0
  9 14  2  0
  9 10  1  0
 10 11  2  0
 10 28  1  0
 11 12  1  0
 11 29  1  0
 12 13  2  0
 13 14  1  0
 13 30  1  0
 14 15  1  0
 15 16  2  0
 15 35  1  0
 16 17  1  0
 17 18  2  0
 18 23  1  0
 18 19  1  0
 19 20  2  0
 19 31  1  0
 20 21  1  0
 20 32  1  0
 21 22  2  0
 21 33  1  0
 22 23  1  0
 22 34  1  0
M  CHG  1  15   1
M  END
>  <i_m_ct_stereo_status>  (274) 
1

>  <s_m_source_file>  (274) 
/var/tmp/pbs.5076255.sched01/tmpz7l6rxva/92z_h6r8yo.sdf

>  <i_m_source_file_index>  (274) 
23

>  <i_lp_mmshare_version>  (274) 
48012

>  <i_f3d_flags>  (274) 
0

>  <s_epik_input>  (274) 
W0NIM11TKD1PKSg9TylPYyhbY0hdMSljKFtjSF1bY0hdW2NIXVtjSF0yKWMybmMzbmMoYzRjMTMpW2NIXW5bY0hdW2NIXTQ=

>  <s_epik_cmdline>  (274) 
J2VwaWtfcHl0aG9uJywgJy1waHQnLCAnMi4wJywgJy1waCcsICc3LjAnLCAnLXRuJywgJzgnLCAnLW1hJywgJzIwMCcsICctaW1hZScsICc8aW5maWxlLm1hZT4nLCAnLW9tYWUnLCAnPG91dGZpbGUubWFlPic=

>  <r_lp_tautomer_probability>  (274) 
1

>  <r_epik_Ionization_Penalty>  (274) 
4.83899e-08

>  <r_epik_Ionization_Penalty_Charging>  (274) 
1.00241e-08

>  <r_epik_Ionization_Penalty_Neutral>  (274) 
3.83658e-08

>  <r_epik_State_Penalty>  (274) 
-0

>  <r_epik_Charging_Adjusted_Penalty>  (274) 
1.00241e-08

>  <i_epik_Tot_Q>  (274) 
1

>  <i_epik_Tot_abs_Q>  (274) 
1

>  <s_lp_Force_Field>  (274) 
OPLS3e

>  <r_lp_Energy>  (274) 
33.2612

>  <b_lp_Chiralities_Consistent>  (274) 
1

>  <s_lp_Variant>  (274) 
75:0-1

>  <s_i_glide_gridfile>  (274) 
pfpi4k_grid

>  <i_i_glide_lignum>  (274) 
23

>  <i_i_glide_rotatable_bonds>  (274) 
2

>  <r_i_docking_score>  (274) 
-3.98752

>  <r_i_glide_ligand_efficiency>  (274) 
-0.17337

>  <r_i_glide_ligand_efficiency_sa>  (274) 
-0.493042

>  <r_i_glide_ligand_efficiency_ln>  (274) 
-0.964218

>  <r_i_glide_gscore>  (274) 
-3.98752

>  <r_i_glide_lipo>  (274) 
-0.0532973

>  <r_i_glide_hbond>  (274) 
-0.234264

>  <r_i_glide_metal>  (274) 
-0

>  <r_i_glide_rewards>  (274) 
-1.82677

>  <r_i_glide_evdw>  (274) 
-23.3032

>  <r_i_glide_ecoul>  (274) 
-3.94227

>  <r_i_glide_erotb>  (274) 
0

>  <r_i_glide_esite>  (274) 
-0.11668

>  <r_i_glide_emodel>  (274) 
-38.247

>  <r_i_glide_energy>  (274) 
-27.2455

>  <r_i_glide_einternal>  (274) 
0.487489

>  <r_i_glide_intrahb_reward>  (274) 
-0

>  <i_i_glide_confnum>  (274) 
1

>  <i_i_glide_posenum>  (274) 
39

>  <r_i_glide_eff_state_penalty>  (274) 
0

>  <ligand_id>  (274) 
75

>  <original_smiles>  (274) 
CS(=O)(=O)Oc1cc2c3ccncc3nc-2nc2ccccc12

>  <smiles>  (274) 
[H]c1nc([H])c2c(c1[H])c1c([H])c(OS(=O)(=O)C([H])([H])[H])c3c([H])c([H])c([H])c([H])c3nc-1[n+]2[H]

$$$$
75:0:1
     RDKit          3D

 35 38  0  0  1  0  0  0  0  0999 V2000
    2.1994   -9.3460    8.8792 C   0  0  0  0  0  0  0  0  0  0  0  0
    0.7804   -8.4775    8.0825 S   0  0  0  0  0  0  0  0  0  0  0  0
   -0.2522   -9.4539    7.7109 O   0  0  0  0  0  0  0  0  0  0  0  0
    0.4279   -7.3037    8.8997 O   0  0  0  0  0  0  0  0  0  0  0  0
    1.4891   -7.9037    6.6565 O   0  0  0  0  0  0  0  0  0  0  0  0
    1.5219   -8.7574    5.5775 C   0  0  0  0  0  0  0  0  0  0  0  0
    2.6620   -9.5761    5.5752 C   0  0  0  0  0  0  0  0  0  0  0  0
    3.0348  -10.5650    4.6537 C   0  0  0  0  0  0  0  0  0  0  0  0
    4.1913  -11.3567    4.7026 C   0  0  0  0  0  0  0  0  0  0  0  0
    5.2513  -11.4022    5.6192 C   0  0  0  0  0  0  0  0  0  0  0  0
    6.2663  -12.3454    5.3408 C   0  0  0  0  0  0  0  0  0  0  0  0
    6.2598  -13.1690    4.2568 N   0  0  0  0  0  0  0  0  0  0  0  0
    5.2218  -13.0981    3.3850 C   0  0  0  0  0  0  0  0  0  0  0  0
    4.1747  -12.1901    3.5968 C   0  0  0  0  0  0  0  0  0  0  0  0
    3.0659  -11.9377    2.8802 N   0  0  0  0  0  0  0  0  0  0  0  0
    2.3366  -10.9699    3.4749 C   0  0  0  0  0  0  0  0  0  0  0  0
    1.1712  -10.4796    3.0009 N   0  0  0  0  0  0  0  0  0  0  0  0
    0.3379   -9.5155    3.4343 C   0  0  0  0  0  0  0  0  0  0  0  0
   -0.7815   -9.3025    2.5979 C   0  0  0  0  0  0  0  0  0  0  0  0
   -1.7459   -8.3240    2.8600 C   0  0  0  0  0  0  0  0  0  0  0  0
   -1.6128   -7.5180    3.9944 C   0  0  0  0  0  0  0  0  0  0  0  0
   -0.5170   -7.7126    4.8480 C   0  0  0  0  0  0  0  0  0  0  0  0
    0.4733   -8.6999    4.6062 C   0  0  0  0  0  0  0  0  0  0  0  0
    1.9070   -9.6529    9.8830 H   0  0  0  0  0  0  0  0  0  0  0  0
    3.0587   -8.6790    8.9410 H   0  0  0  0  0  0  0  0  0  0  0  0
    2.4536  -10.2473    8.3202 H   0  0  0  0  0  0  0  0  0  0  0  0
    3.3532   -9.4220    6.3913 H   0  0  0  0  0  0  0  0  0  0  0  0
    5.2848  -10.7610    6.4848 H   0  0  0  0  0  0  0  0  0  0  0  0
    7.1048  -12.4328    6.0104 H   0  0  0  0  0  0  0  0  0  0  0  0
    5.2335  -13.7639    2.5327 H   0  0  0  0  0  0  0  0  0  0  0  0
   -0.9102   -9.9081    1.7148 H   0  0  0  0  0  0  0  0  0  0  0  0
   -2.5833   -8.1983    2.1909 H   0  0  0  0  0  0  0  0  0  0  0  0
   -2.3471   -6.7619    4.2283 H   0  0  0  0  0  0  0  0  0  0  0  0
   -0.4534   -7.0699    5.7117 H   0  0  0  0  0  0  0  0  0  0  0  0
    2.8251  -12.4060    2.0062 H   0  0  0  0  0  0  0  0  0  0  0  0
  1  2  1  0
  1 24  1  0
  1 25  1  0
  1 26  1  0
  2  3  2  0
  2  4  2  0
  2  5  1  0
  5  6  1  0
  6 23  2  0
  6  7  1  0
  7  8  2  0
  7 27  1  0
  8 16  1  0
  8  9  1  0
  9 14  2  0
  9 10  1  0
 10 11  2  0
 10 28  1  0
 11 12  1  0
 11 29  1  0
 12 13  2  0
 13 14  1  0
 13 30  1  0
 14 15  1  0
 15 16  2  0
 15 35  1  0
 16 17  1  0
 17 18  2  0
 18 23  1  0
 18 19  1  0
 19 20  2  0
 19 31  1  0
 20 21  1  0
 20 32  1  0
 21 22  2  0
 21 33  1  0
 22 23  1  0
 22 34  1  0
M  CHG  1  15   1
M  END
>  <i_m_ct_stereo_status>  (275) 
1

>  <s_m_source_file>  (275) 
/var/tmp/pbs.5076255.sched01/tmpz7l6rxva/92z_h6r8yo.sdf

>  <i_m_source_file_index>  (275) 
23

>  <i_lp_mmshare_version>  (275) 
48012

>  <i_f3d_flags>  (275) 
0

>  <s_epik_input>  (275) 
W0NIM11TKD1PKSg9TylPYyhbY0hdMSljKFtjSF1bY0hdW2NIXVtjSF0yKWMybmMzbmMoYzRjMTMpW2NIXW5bY0hdW2NIXTQ=

>  <s_epik_cmdline>  (275) 
J2VwaWtfcHl0aG9uJywgJy1waHQnLCAnMi4wJywgJy1waCcsICc3LjAnLCAnLXRuJywgJzgnLCAnLW1hJywgJzIwMCcsICctaW1hZScsICc8aW5maWxlLm1hZT4nLCAnLW9tYWUnLCAnPG91dGZpbGUubWFlPic=

>  <r_lp_tautomer_probability>  (275) 
1

>  <r_epik_Ionization_Penalty>  (275) 
4.83899e-08

>  <r_epik_Ionization_Penalty_Charging>  (275) 
1.00241e-08

>  <r_epik_Ionization_Penalty_Neutral>  (275) 
3.83658e-08

>  <r_epik_State_Penalty>  (275) 
-0

>  <r_epik_Charging_Adjusted_Penalty>  (275) 
1.00241e-08

>  <i_epik_Tot_Q>  (275) 
1

>  <i_epik_Tot_abs_Q>  (275) 
1

>  <s_lp_Force_Field>  (275) 
OPLS3e

>  <r_lp_Energy>  (275) 
33.2612

>  <b_lp_Chiralities_Consistent>  (275) 
1

>  <s_lp_Variant>  (275) 
75:0-1

>  <s_i_glide_gridfile>  (275) 
pfpi4k_grid

>  <i_i_glide_lignum>  (275) 
23

>  <i_i_glide_rotatable_bonds>  (275) 
2

>  <r_i_docking_score>  (275) 
-3.90163

>  <r_i_glide_ligand_efficiency>  (275) 
-0.169636

>  <r_i_glide_ligand_efficiency_sa>  (275) 
-0.482423

>  <r_i_glide_ligand_efficiency_ln>  (275) 
-0.94345

>  <r_i_glide_gscore>  (275) 
-3.90163

>  <r_i_glide_lipo>  (275) 
-0.108275

>  <r_i_glide_hbond>  (275) 
-0.0655488

>  <r_i_glide_metal>  (275) 
-0

>  <r_i_glide_rewards>  (275) 
-1.24019

>  <r_i_glide_evdw>  (275) 
-23.1357

>  <r_i_glide_ecoul>  (275) 
-7.39847

>  <r_i_glide_erotb>  (275) 
0

>  <r_i_glide_esite>  (275) 
-0.221065

>  <r_i_glide_emodel>  (275) 
-41.268

>  <r_i_glide_energy>  (275) 
-30.5341

>  <r_i_glide_einternal>  (275) 
0.811252

>  <r_i_glide_intrahb_reward>  (275) 
-0

>  <i_i_glide_confnum>  (275) 
1

>  <i_i_glide_posenum>  (275) 
32

>  <r_i_glide_eff_state_penalty>  (275) 
0

>  <ligand_id>  (275) 
75

>  <original_smiles>  (275) 
CS(=O)(=O)Oc1cc2c3ccncc3nc-2nc2ccccc12

>  <smiles>  (275) 
[H]c1nc([H])c2c(c1[H])c1c([H])c(OS(=O)(=O)C([H])([H])[H])c3c([H])c([H])c([H])c([H])c3nc-1[n+]2[H]

$$$$
75:0:2
     RDKit          3D

 35 38  0  0  1  0  0  0  0  0999 V2000
    0.0277   -9.3080    2.6029 C   0  0  0  0  0  0  0  0  0  0  0  0
   -0.1519   -7.4662    2.4172 S   0  0  0  0  0  0  0  0  0  0  0  0
    0.1291   -7.0549    1.0298 O   0  0  0  0  0  0  0  0  0  0  0  0
   -1.4077   -7.0520    3.0537 O   0  0  0  0  0  0  0  0  0  0  0  0
    1.1103   -6.8605    3.3832 O   0  0  0  0  0  0  0  0  0  0  0  0
    1.9097   -7.7441    4.0725 C   0  0  0  0  0  0  0  0  0  0  0  0
    1.5092   -7.9232    5.4101 C   0  0  0  0  0  0  0  0  0  0  0  0
    2.0633   -8.7723    6.3889 C   0  0  0  0  0  0  0  0  0  0  0  0
    1.6500   -8.9066    7.7262 C   0  0  0  0  0  0  0  0  0  0  0  0
    0.6246   -8.2792    8.4472 C   0  0  0  0  0  0  0  0  0  0  0  0
    0.5045   -8.6622    9.8048 C   0  0  0  0  0  0  0  0  0  0  0  0
    1.2993   -9.5861   10.4121 N   0  0  0  0  0  0  0  0  0  0  0  0
    2.2854  -10.1751    9.6857 C   0  0  0  0  0  0  0  0  0  0  0  0
    2.4765   -9.8353    8.3387 C   0  0  0  0  0  0  0  0  0  0  0  0
    3.3576  -10.2905    7.4299 N   0  0  0  0  0  0  0  0  0  0  0  0
    3.1578   -9.6833    6.2384 C   0  0  0  0  0  0  0  0  0  0  0  0
    3.8967   -9.9019    5.1289 N   0  0  0  0  0  0  0  0  0  0  0  0
    3.8854   -9.3626    3.8936 C   0  0  0  0  0  0  0  0  0  0  0  0
    4.8717   -9.8823    3.0202 C   0  0  0  0  0  0  0  0  0  0  0  0
    5.0162   -9.4582    1.6927 C   0  0  0  0  0  0  0  0  0  0  0  0
    4.1567   -8.4810    1.1906 C   0  0  0  0  0  0  0  0  0  0  0  0
    3.1799   -7.9380    2.0352 C   0  0  0  0  0  0  0  0  0  0  0  0
    3.0009   -8.3594    3.3801 C   0  0  0  0  0  0  0  0  0  0  0  0
   -0.7853   -9.8214    2.0834 H   0  0  0  0  0  0  0  0  0  0  0  0
   -0.0329   -9.5978    3.6506 H   0  0  0  0  0  0  0  0  0  0  0  0
    0.9668   -9.6408    2.1653 H   0  0  0  0  0  0  0  0  0  0  0  0
    0.6535   -7.3373    5.7268 H   0  0  0  0  0  0  0  0  0  0  0  0
   -0.0276   -7.5593    7.9849 H   0  0  0  0  0  0  0  0  0  0  0  0
   -0.2690   -8.2231   10.4102 H   0  0  0  0  0  0  0  0  0  0  0  0
    2.9077  -10.9121   10.1766 H   0  0  0  0  0  0  0  0  0  0  0  0
    5.5393  -10.6447    3.3792 H   0  0  0  0  0  0  0  0  0  0  0  0
    5.7742   -9.8840    1.0519 H   0  0  0  0  0  0  0  0  0  0  0  0
    4.2264   -8.1438    0.1652 H   0  0  0  0  0  0  0  0  0  0  0  0
    2.5449   -7.1902    1.5930 H   0  0  0  0  0  0  0  0  0  0  0  0
    4.0606  -11.0004    7.6155 H   0  0  0  0  0  0  0  0  0  0  0  0
  1  2  1  0
  1 24  1  0
  1 25  1  0
  1 26  1  0
  2  3  2  0
  2  4  2  0
  2  5  1  0
  5  6  1  0
  6 23  2  0
  6  7  1  0
  7  8  2  0
  7 27  1  0
  8 16  1  0
  8  9  1  0
  9 14  2  0
  9 10  1  0
 10 11  2  0
 10 28  1  0
 11 12  1  0
 11 29  1  0
 12 13  2  0
 13 14  1  0
 13 30  1  0
 14 15  1  0
 15 16  2  0
 15 35  1  0
 16 17  1  0
 17 18  2  0
 18 23  1  0
 18 19  1  0
 19 20  2  0
 19 31  1  0
 20 21  1  0
 20 32  1  0
 21 22  2  0
 21 33  1  0
 22 23  1  0
 22 34  1  0
M  CHG  1  15   1
M  END
>  <i_m_ct_stereo_status>  (276) 
1

>  <s_m_source_file>  (276) 
/var/tmp/pbs.5076255.sched01/tmpz7l6rxva/92z_h6r8yo.sdf

>  <i_m_source_file_index>  (276) 
23

>  <i_lp_mmshare_version>  (276) 
48012

>  <i_f3d_flags>  (276) 
0

>  <s_epik_input>  (276) 
W0NIM11TKD1PKSg9TylPYyhbY0hdMSljKFtjSF1bY0hdW2NIXVtjSF0yKWMybmMzbmMoYzRjMTMpW2NIXW5bY0hdW2NIXTQ=

>  <s_epik_cmdline>  (276) 
J2VwaWtfcHl0aG9uJywgJy1waHQnLCAnMi4wJywgJy1waCcsICc3LjAnLCAnLXRuJywgJzgnLCAnLW1hJywgJzIwMCcsICctaW1hZScsICc8aW5maWxlLm1hZT4nLCAnLW9tYWUnLCAnPG91dGZpbGUubWFlPic=

>  <r_lp_tautomer_probability>  (276) 
1

>  <r_epik_Ionization_Penalty>  (276) 
4.83899e-08

>  <r_epik_Ionization_Penalty_Charging>  (276) 
1.00241e-08

>  <r_epik_Ionization_Penalty_Neutral>  (276) 
3.83658e-08

>  <r_epik_State_Penalty>  (276) 
-0

>  <r_epik_Charging_Adjusted_Penalty>  (276) 
1.00241e-08

>  <i_epik_Tot_Q>  (276) 
1

>  <i_epik_Tot_abs_Q>  (276) 
1

>  <s_lp_Force_Field>  (276) 
OPLS3e

>  <r_lp_Energy>  (276) 
33.2612

>  <b_lp_Chiralities_Consistent>  (276) 
1

>  <s_lp_Variant>  (276) 
75:0-1

>  <s_i_glide_gridfile>  (276) 
pfpi4k_grid

>  <i_i_glide_lignum>  (276) 
23

>  <i_i_glide_rotatable_bonds>  (276) 
2

>  <r_i_docking_score>  (276) 
-3.65338

>  <r_i_glide_ligand_efficiency>  (276) 
-0.158843

>  <r_i_glide_ligand_efficiency_sa>  (276) 
-0.451727

>  <r_i_glide_ligand_efficiency_ln>  (276) 
-0.883421

>  <r_i_glide_gscore>  (276) 
-3.65338

>  <r_i_glide_lipo>  (276) 
0

>  <r_i_glide_hbond>  (276) 
0

>  <r_i_glide_metal>  (276) 
-0

>  <r_i_glide_rewards>  (276) 
-1.18397

>  <r_i_glide_evdw>  (276) 
-21.7934

>  <r_i_glide_ecoul>  (276) 
-6.54564

>  <r_i_glide_erotb>  (276) 
0

>  <r_i_glide_esite>  (276) 
-0.397891

>  <r_i_glide_emodel>  (276) 
-36.632

>  <r_i_glide_energy>  (276) 
-28.3391

>  <r_i_glide_einternal>  (276) 
3.79481

>  <r_i_glide_intrahb_reward>  (276) 
-0

>  <i_i_glide_confnum>  (276) 
1

>  <i_i_glide_posenum>  (276) 
5

>  <r_i_glide_eff_state_penalty>  (276) 
0

>  <ligand_id>  (276) 
75

>  <original_smiles>  (276) 
CS(=O)(=O)Oc1cc2c3ccncc3nc-2nc2ccccc12

>  <smiles>  (276) 
[H]c1nc([H])c2c(c1[H])c1c([H])c(OS(=O)(=O)C([H])([H])[H])c3c([H])c([H])c([H])c([H])c3nc-1[n+]2[H]

$$$$
76:0:0
     RDKit          3D

 68 73  0  0  1  0  0  0  0  0999 V2000
    0.9343    5.3161    3.6562 C   0  0  0  0  0  0  0  0  0  0  0  0
    0.9801    4.5333    4.9823 C   0  0  2  0  0  0  0  0  0  0  0  0
    2.0778    5.0604    5.9556 C   0  0  0  0  0  0  0  0  0  0  0  0
    2.9085    3.8416    6.4859 C   0  0  0  0  0  0  0  0  0  0  0  0
    4.2634    3.7388    5.7345 C   0  0  0  0  0  0  0  0  0  0  0  0
    3.2840    4.0271    7.9780 C   0  0  0  0  0  0  0  0  0  0  0  0
    1.9261    2.6478    6.2038 C   0  0  2  0  0  0  0  0  0  0  0  0
    0.8599    2.6131    7.3494 C   0  0  0  0  0  0  0  0  0  0  0  0
    2.5055    1.2309    5.9664 C   0  0  0  0  0  0  0  0  0  0  0  0
    1.3713    0.2105    5.7102 C   0  0  1  0  0  0  0  0  0  0  0  0
    0.2273    0.7631    4.8628 C   0  0  1  0  0  0  0  0  0  0  0  0
   -1.2080    0.6386    5.3038 C   0  0  0  0  0  0  0  0  0  0  0  0
    0.5380    2.0272    4.0869 C   0  0  0  0  0  0  0  0  0  0  0  0
    0.6296    1.9336    2.7715 C   0  0  0  0  0  0  0  0  0  0  0  0
    0.5759    0.5748    2.1045 C   0  0  0  0  0  0  0  0  0  0  0  0
    1.4445   -0.4320    2.9378 C   0  0  1  0  0  0  0  0  0  0  0  0
    2.9996   -0.2525    2.7730 C   0  0  2  0  0  0  0  0  0  0  0  0
    3.5403   -0.4958    1.3510 C   0  0  2  0  0  0  0  0  0  0  0  0
    3.3207   -2.0000    1.1466 C   0  0  0  0  0  0  0  0  0  0  0  0
    3.5248   -2.5692    2.5680 C   0  0  1  0  0  0  0  0  0  0  0  0
    4.4964   -3.5963    2.6007 O   0  0  0  0  0  0  0  0  0  0  0  0
    3.9609   -1.3027    3.3661 C   0  0  2  0  0  0  0  0  0  0  0  0
    3.9934   -1.5219    4.9080 C   0  0  0  0  0  0  0  0  0  0  0  0
    5.2921   -0.7636    2.8086 C   0  0  0  0  0  0  0  0  0  0  0  0
    4.9409   -0.2845    1.5102 O   0  0  0  0  0  0  0  0  0  0  0  0
    0.9229   -0.5165    4.3871 C   0  0  1  0  0  0  0  0  0  0  0  0
    0.2582   -1.8661    4.6200 C   0  0  0  0  0  0  0  0  0  0  0  0
    1.3722    3.0694    4.8283 C   0  0  1  0  0  0  0  0  0  0  0  0
    1.8942    5.2779    3.1310 H   0  0  0  0  0  0  0  0  0  0  0  0
    0.6868    6.3647    3.8335 H   0  0  0  0  0  0  0  0  0  0  0  0
    0.1776    4.8998    2.9879 H   0  0  0  0  0  0  0  0  0  0  0  0
   -0.0024    4.5745    5.4581 H   0  0  0  0  0  0  0  0  0  0  0  0
    2.7283    5.7992    5.4792 H   0  0  0  0  0  0  0  0  0  0  0  0
    1.5770    5.5685    6.7850 H   0  0  0  0  0  0  0  0  0  0  0  0
    4.8246    2.8569    6.0415 H   0  0  0  0  0  0  0  0  0  0  0  0
    4.8995    4.5959    5.9588 H   0  0  0  0  0  0  0  0  0  0  0  0
    4.1752    3.7109    4.6516 H   0  0  0  0  0  0  0  0  0  0  0  0
    3.7412    3.1215    8.3829 H   0  0  0  0  0  0  0  0  0  0  0  0
    2.4261    4.2777    8.6051 H   0  0  0  0  0  0  0  0  0  0  0  0
    4.0009    4.8424    8.1065 H   0  0  0  0  0  0  0  0  0  0  0  0
    0.0305    1.9394    7.1585 H   0  0  0  0  0  0  0  0  0  0  0  0
    0.4142    3.5903    7.5583 H   0  0  0  0  0  0  0  0  0  0  0  0
    1.3143    2.2486    8.2773 H   0  0  0  0  0  0  0  0  0  0  0  0
    3.2248    1.2290    5.1584 H   0  0  0  0  0  0  0  0  0  0  0  0
    3.0397    0.9145    6.8594 H   0  0  0  0  0  0  0  0  0  0  0  0
    1.0693   -0.3016    6.6196 H   0  0  0  0  0  0  0  0  0  0  0  0
   -1.2998   -0.1224    6.0811 H   0  0  0  0  0  0  0  0  0  0  0  0
   -1.8417    0.3428    4.4586 H   0  0  0  0  0  0  0  0  0  0  0  0
   -1.6085    1.5794    5.7044 H   0  0  0  0  0  0  0  0  0  0  0  0
    1.0791    2.7392    2.1846 H   0  0  0  0  0  0  0  0  0  0  0  0
   -0.4663    0.2522    2.0627 H   0  0  0  0  0  0  0  0  0  0  0  0
    0.9392    0.6478    1.0926 H   0  0  0  0  0  0  0  0  0  0  0  0
    1.1912   -1.3753    2.4530 H   0  0  0  0  0  0  0  0  0  0  0  0
    3.2470    0.7631    3.0778 H   0  0  0  0  0  0  0  0  0  0  0  0
    3.1359    0.1460    0.5636 H   0  0  0  0  0  0  0  0  0  0  0  0
    2.2853   -2.2059    0.8029 H   0  0  0  0  0  0  0  0  0  0  0  0
    4.0207   -2.3954    0.4068 H   0  0  0  0  0  0  0  0  0  0  0  0
    2.5830   -2.9759    2.9494 H   0  0  0  0  0  0  0  0  0  0  0  0
    4.1678   -4.3366    2.0878 H   0  0  0  0  0  0  0  0  0  0  0  0
    4.6992   -2.3368    5.1400 H   0  0  0  0  0  0  0  0  0  0  0  0
    2.9981   -1.7629    5.3132 H   0  0  0  0  0  0  0  0  0  0  0  0
    4.3372   -0.6112    5.3997 H   0  0  0  0  0  0  0  0  0  0  0  0
    5.6587    0.0745    3.3871 H   0  0  0  0  0  0  0  0  0  0  0  0
    6.0392   -1.5378    2.7415 H   0  0  0  0  0  0  0  0  0  0  0  0
   -0.5784   -1.9846    3.9367 H   0  0  0  0  0  0  0  0  0  0  0  0
   -0.0972   -1.9945    5.6385 H   0  0  0  0  0  0  0  0  0  0  0  0
    0.9747   -2.6575    4.4077 H   0  0  0  0  0  0  0  0  0  0  0  0
    2.2352    3.0852    4.1628 H   0  0  0  0  0  0  0  0  0  0  0  0
  1  2  1  0
  1 29  1  0
  1 30  1  0
  1 31  1  0
  2 28  1  0
  2  3  1  0
  2 32  1  1
  3  4  1  0
  3 33  1  0
  3 34  1  0
  4  5  1  0
  4  6  1  0
  4  7  1  0
  5 35  1  0
  5 36  1  0
  5 37  1  0
  6 38  1  0
  6 39  1  0
  6 40  1  0
  7 28  1  0
  7  8  1  1
  7  9  1  0
  8 41  1  0
  8 42  1  0
  8 43  1  0
  9 10  1  0
  9 44  1  0
  9 45  1  0
 10 26  1  0
 10 11  1  0
 10 46  1  1
 11 26  1  0
 11 12  1  1
 11 13  1  0
 12 47  1  0
 12 48  1  0
 12 49  1  0
 13 14  2  0
 13 28  1  0
 14 15  1  0
 14 50  1  0
 15 16  1  0
 15 51  1  0
 15 52  1  0
 16 17  1  0
 16 26  1  0
 16 53  1  6
 17 22  1  0
 17 18  1  0
 17 54  1  1
 18 25  1  0
 18 19  1  0
 18 55  1  6
 19 20  1  0
 19 56  1  0
 19 57  1  0
 20 21  1  0
 20 22  1  0
 20 58  1  1
 21 59  1  0
 22 23  1  1
 22 24  1  0
 23 60  1  0
 23 61  1  0
 23 62  1  0
 24 25  1  0
 24 63  1  0
 24 64  1  0
 26 27  1  1
 27 65  1  0
 27 66  1  0
 27 67  1  0
 28 68  1  6
M  END
>  <i_m_ct_stereo_status>  (277) 
1

>  <s_m_source_file>  (277) 
/var/tmp/pbs.5076255.sched01/tmpz7l6rxva/92z_h6r8yo.sdf

>  <i_m_source_file_index>  (277) 
24

>  <i_lp_mmshare_version>  (277) 
48012

>  <i_f3d_flags>  (277) 
0

>  <s_epik_input>  (277) 
W0NIM11DMShbQ0gzXSlbQ0gyXVtDQEBIXShbQ0gzXSlbQ0BASF0oW0NAXTEyW0NIM10pQz0zW0NAXTQoW0NIM10pW0NASF0oW0NIMl0yKVtDQF00KFtDSDNdKVtDQEBIXShbQ0gyXVtDSF0zKVtDQEBIXShbQ0BAXTU2W0NIM10pW0NAQEhdKE9bQ0gyXTYpW0NIMl1bQ0BIXTVbT0hd

>  <s_epik_cmdline>  (277) 
J2VwaWtfcHl0aG9uJywgJy1waHQnLCAnMi4wJywgJy1waCcsICc3LjAnLCAnLXRuJywgJzgnLCAnLW1hJywgJzIwMCcsICctaW1hZScsICc8aW5maWxlLm1hZT4nLCAnLW9tYWUnLCAnPG91dGZpbGUubWFlPic=

>  <r_lp_tautomer_probability>  (277) 
1

>  <r_epik_Ionization_Penalty>  (277) 
2.02405e-07

>  <r_epik_Ionization_Penalty_Charging>  (277) 
0

>  <r_epik_Ionization_Penalty_Neutral>  (277) 
2.02405e-07

>  <r_epik_State_Penalty>  (277) 
-0

>  <r_epik_Charging_Adjusted_Penalty>  (277) 
0

>  <i_epik_Tot_Q>  (277) 
0

>  <i_epik_Tot_abs_Q>  (277) 
0

>  <s_lp_Force_Field>  (277) 
OPLS3e

>  <r_lp_Energy>  (277) 
95.3782

>  <b_lp_Chiralities_Consistent>  (277) 
1

>  <s_lp_Variant>  (277) 
76:0-1

>  <s_i_glide_gridfile>  (277) 
pfpi4k_grid

>  <i_i_glide_lignum>  (277) 
24

>  <i_i_glide_rotatable_bonds>  (277) 
2

>  <r_i_docking_score>  (277) 
-2.29889

>  <r_i_glide_ligand_efficiency>  (277) 
-0.0821031

>  <r_i_glide_ligand_efficiency_sa>  (277) 
-0.249313

>  <r_i_glide_ligand_efficiency_ln>  (277) 
-0.530651

>  <r_i_glide_gscore>  (277) 
-2.29889

>  <r_i_glide_lipo>  (277) 
-0.128921

>  <r_i_glide_hbond>  (277) 
-0.0581019

>  <r_i_glide_metal>  (277) 
-0

>  <r_i_glide_rewards>  (277) 
-0.786855

>  <r_i_glide_evdw>  (277) 
-24.0033

>  <r_i_glide_ecoul>  (277) 
-1.70869

>  <r_i_glide_erotb>  (277) 
0.131457

>  <r_i_glide_esite>  (277) 
0

>  <r_i_glide_emodel>  (277) 
-28.8822

>  <r_i_glide_energy>  (277) 
-25.712

>  <r_i_glide_einternal>  (277) 
0.475477

>  <r_i_glide_intrahb_reward>  (277) 
-0

>  <i_i_glide_confnum>  (277) 
2

>  <i_i_glide_posenum>  (277) 
7

>  <r_i_glide_eff_state_penalty>  (277) 
0

>  <ligand_id>  (277) 
76

>  <original_smiles>  (277) 
CC1CC(C)(C)C2(C)CC3C4(C)C(=CCC(C5C6CC(O)C5(C)CO6)C34C)C12

>  <smiles>  (277) 
[H]OC1([H])C([H])([H])C2([H])OC([H])([H])C1(C([H])([H])[H])C2([H])C1([H])C([H])([H])C([H])=C2C3([H])C([H])(C([H])([H])[H])C([H])([H])C(C([H])([H])[H])(C([H])([H])[H])C3(C([H])([H])[H])C([H])([H])C3([H])C2(C([H])([H])[H])C13C([H])([H])[H]

$$$$
76:0:1
     RDKit          3D

 68 73  0  0  1  0  0  0  0  0999 V2000
    0.8498    5.3570    3.6858 C   0  0  0  0  0  0  0  0  0  0  0  0
    0.9077    4.5940    5.0191 C   0  0  2  0  0  0  0  0  0  0  0  0
    2.0229    5.1160    5.9758 C   0  0  0  0  0  0  0  0  0  0  0  0
    2.8473    3.8947    6.5089 C   0  0  0  0  0  0  0  0  0  0  0  0
    4.1936    3.7693    5.7394 C   0  0  0  0  0  0  0  0  0  0  0  0
    3.2453    4.0932    7.9942 C   0  0  0  0  0  0  0  0  0  0  0  0
    1.8494    2.7111    6.2540 C   0  0  2  0  0  0  0  0  0  0  0  0
    0.7972    2.6962    7.4131 C   0  0  0  0  0  0  0  0  0  0  0  0
    2.4045    1.2813    6.0321 C   0  0  0  0  0  0  0  0  0  0  0  0
    1.2595    0.2757    5.7956 C   0  0  1  0  0  0  0  0  0  0  0  0
    0.1047    0.8346    4.9607 C   0  0  1  0  0  0  0  0  0  0  0  0
   -1.3251    0.7244    5.4224 C   0  0  0  0  0  0  0  0  0  0  0  0
    0.4226    2.0835    4.1698 C   0  0  0  0  0  0  0  0  0  0  0  0
    0.4914    1.9746    2.8521 C   0  0  0  0  0  0  0  0  0  0  0  0
    0.4119    0.6076    2.2093 C   0  0  0  0  0  0  0  0  0  0  0  0
    1.2808   -0.3957    3.0338 C   0  0  1  0  0  0  0  0  0  0  0  0
    2.8317   -0.2291    2.8363 C   0  0  2  0  0  0  0  0  0  0  0  0
    3.3423   -0.4936    1.4113 C   0  0  2  0  0  0  0  0  0  0  0  0
    3.0964   -1.9940    1.2095 C   0  0  0  0  0  0  0  0  0  0  0  0
    3.3223   -2.5613    2.6289 C   0  0  1  0  0  0  0  0  0  0  0  0
    4.2925   -3.5960    2.6459 O   0  0  0  0  0  0  0  0  0  0  0  0
    3.7760   -1.3003    3.4190 C   0  0  2  0  0  0  0  0  0  0  0  0
    3.8296   -1.5055    4.9552 C   0  0  0  0  0  0  0  0  0  0  0  0
    5.1155   -0.7814    2.8471 C   0  0  0  0  0  0  0  0  0  0  0  0
    4.7598   -0.3039    1.5400 O   0  0  0  0  0  0  0  0  0  0  0  0
    0.7825   -0.4645    4.4884 C   0  0  1  0  0  0  0  0  0  0  0  0
    0.1019   -1.8011    4.7429 C   0  0  0  0  0  0  0  0  0  0  0  0
    1.2840    3.1260    4.8829 C   0  0  1  0  0  0  0  0  0  0  0  0
    1.7998    5.3050    3.1442 H   0  0  0  0  0  0  0  0  0  0  0  0
    0.6174    6.4087    3.8528 H   0  0  0  0  0  0  0  0  0  0  0  0
    0.0779    4.9455    3.0302 H   0  0  0  0  0  0  0  0  0  0  0  0
   -0.0669    4.6487    5.5085 H   0  0  0  0  0  0  0  0  0  0  0  0
    2.6711    5.8450    5.4861 H   0  0  0  0  0  0  0  0  0  0  0  0
    1.5368    5.6354    6.8045 H   0  0  0  0  0  0  0  0  0  0  0  0
    4.7477    2.8833    6.0477 H   0  0  0  0  0  0  0  0  0  0  0  0
    4.8415    4.6217    5.9465 H   0  0  0  0  0  0  0  0  0  0  0  0
    4.0894    3.7312    4.6574 H   0  0  0  0  0  0  0  0  0  0  0  0
    3.6962    3.1868    8.4032 H   0  0  0  0  0  0  0  0  0  0  0  0
    2.3977    4.3599    8.6277 H   0  0  0  0  0  0  0  0  0  0  0  0
    3.9716    4.9003    8.1038 H   0  0  0  0  0  0  0  0  0  0  0  0
   -0.0403    2.0326    7.2384 H   0  0  0  0  0  0  0  0  0  0  0  0
    0.3676    3.6820    7.6128 H   0  0  0  0  0  0  0  0  0  0  0  0
    1.2591    2.3377    8.3373 H   0  0  0  0  0  0  0  0  0  0  0  0
    3.1136    1.2745    5.2129 H   0  0  0  0  0  0  0  0  0  0  0  0
    2.9496    0.9669    6.9217 H   0  0  0  0  0  0  0  0  0  0  0  0
    0.9709   -0.2331    6.7094 H   0  0  0  0  0  0  0  0  0  0  0  0
   -1.4131   -0.0276    6.2094 H   0  0  0  0  0  0  0  0  0  0  0  0
   -1.9707    0.4289    4.5845 H   0  0  0  0  0  0  0  0  0  0  0  0
   -1.7029    1.6787    5.8170 H   0  0  0  0  0  0  0  0  0  0  0  0
    0.9529    2.7603    2.2493 H   0  0  0  0  0  0  0  0  0  0  0  0
   -0.6334    0.2939    2.1861 H   0  0  0  0  0  0  0  0  0  0  0  0
    0.7563    0.6638    1.1870 H   0  0  0  0  0  0  0  0  0  0  0  0
    1.0028   -1.3411    2.5625 H   0  0  0  0  0  0  0  0  0  0  0  0
    3.1056    0.7824    3.1322 H   0  0  0  0  0  0  0  0  0  0  0  0
    2.9440    0.1485    0.6246 H   0  0  0  0  0  0  0  0  0  0  0  0
    2.0561   -2.1732    0.8777 H   0  0  0  0  0  0  0  0  0  0  0  0
    3.7719   -2.4022    0.4518 H   0  0  0  0  0  0  0  0  0  0  0  0
    2.3804   -2.9600    3.0280 H   0  0  0  0  0  0  0  0  0  0  0  0
    5.0959   -3.2815    2.2364 H   0  0  0  0  0  0  0  0  0  0  0  0
    4.5214   -2.3272    5.1963 H   0  0  0  0  0  0  0  0  0  0  0  0
    2.8371   -1.7383    5.3664 H   0  0  0  0  0  0  0  0  0  0  0  0
    4.1970   -0.5987    5.4391 H   0  0  0  0  0  0  0  0  0  0  0  0
    5.5068    0.0565    3.4138 H   0  0  0  0  0  0  0  0  0  0  0  0
    5.8599   -1.5634    2.7744 H   0  0  0  0  0  0  0  0  0  0  0  0
   -0.7587   -1.9182    4.0835 H   0  0  0  0  0  0  0  0  0  0  0  0
   -0.2308   -1.9204    5.7691 H   0  0  0  0  0  0  0  0  0  0  0  0
    0.7991   -2.6096    4.5238 H   0  0  0  0  0  0  0  0  0  0  0  0
    2.1360    3.1195    4.2019 H   0  0  0  0  0  0  0  0  0  0  0  0
  1  2  1  0
  1 29  1  0
  1 30  1  0
  1 31  1  0
  2 28  1  0
  2  3  1  0
  2 32  1  1
  3  4  1  0
  3 33  1  0
  3 34  1  0
  4  5  1  0
  4  6  1  0
  4  7  1  0
  5 35  1  0
  5 36  1  0
  5 37  1  0
  6 38  1  0
  6 39  1  0
  6 40  1  0
  7 28  1  0
  7  8  1  1
  7  9  1  0
  8 41  1  0
  8 42  1  0
  8 43  1  0
  9 10  1  0
  9 44  1  0
  9 45  1  0
 10 26  1  0
 10 11  1  0
 10 46  1  1
 11 26  1  0
 11 12  1  1
 11 13  1  0
 12 47  1  0
 12 48  1  0
 12 49  1  0
 13 14  2  0
 13 28  1  0
 14 15  1  0
 14 50  1  0
 15 16  1  0
 15 51  1  0
 15 52  1  0
 16 17  1  0
 16 26  1  0
 16 53  1  6
 17 22  1  0
 17 18  1  0
 17 54  1  1
 18 25  1  0
 18 19  1  0
 18 55  1  6
 19 20  1  0
 19 56  1  0
 19 57  1  0
 20 21  1  0
 20 22  1  0
 20 58  1  1
 21 59  1  0
 22 23  1  1
 22 24  1  0
 23 60  1  0
 23 61  1  0
 23 62  1  0
 24 25  1  0
 24 63  1  0
 24 64  1  0
 26 27  1  1
 27 65  1  0
 27 66  1  0
 27 67  1  0
 28 68  1  6
M  END
>  <i_m_ct_stereo_status>  (278) 
1

>  <s_m_source_file>  (278) 
/var/tmp/pbs.5076255.sched01/tmpz7l6rxva/92z_h6r8yo.sdf

>  <i_m_source_file_index>  (278) 
24

>  <i_lp_mmshare_version>  (278) 
48012

>  <i_f3d_flags>  (278) 
0

>  <s_epik_input>  (278) 
W0NIM11DMShbQ0gzXSlbQ0gyXVtDQEBIXShbQ0gzXSlbQ0BASF0oW0NAXTEyW0NIM10pQz0zW0NAXTQoW0NIM10pW0NASF0oW0NIMl0yKVtDQF00KFtDSDNdKVtDQEBIXShbQ0gyXVtDSF0zKVtDQEBIXShbQ0BAXTU2W0NIM10pW0NAQEhdKE9bQ0gyXTYpW0NIMl1bQ0BIXTVbT0hd

>  <s_epik_cmdline>  (278) 
J2VwaWtfcHl0aG9uJywgJy1waHQnLCAnMi4wJywgJy1waCcsICc3LjAnLCAnLXRuJywgJzgnLCAnLW1hJywgJzIwMCcsICctaW1hZScsICc8aW5maWxlLm1hZT4nLCAnLW9tYWUnLCAnPG91dGZpbGUubWFlPic=

>  <r_lp_tautomer_probability>  (278) 
1

>  <r_epik_Ionization_Penalty>  (278) 
2.02405e-07

>  <r_epik_Ionization_Penalty_Charging>  (278) 
0

>  <r_epik_Ionization_Penalty_Neutral>  (278) 
2.02405e-07

>  <r_epik_State_Penalty>  (278) 
-0

>  <r_epik_Charging_Adjusted_Penalty>  (278) 
0

>  <i_epik_Tot_Q>  (278) 
0

>  <i_epik_Tot_abs_Q>  (278) 
0

>  <s_lp_Force_Field>  (278) 
OPLS3e

>  <r_lp_Energy>  (278) 
95.3782

>  <b_lp_Chiralities_Consistent>  (278) 
1

>  <s_lp_Variant>  (278) 
76:0-1

>  <s_i_glide_gridfile>  (278) 
pfpi4k_grid

>  <i_i_glide_lignum>  (278) 
24

>  <i_i_glide_rotatable_bonds>  (278) 
2

>  <r_i_docking_score>  (278) 
-2.19956

>  <r_i_glide_ligand_efficiency>  (278) 
-0.0785557

>  <r_i_glide_ligand_efficiency_sa>  (278) 
-0.238541

>  <r_i_glide_ligand_efficiency_ln>  (278) 
-0.507723

>  <r_i_glide_gscore>  (278) 
-2.19956

>  <r_i_glide_lipo>  (278) 
-0.128567

>  <r_i_glide_hbond>  (278) 
-0.01208

>  <r_i_glide_metal>  (278) 
-0

>  <r_i_glide_rewards>  (278) 
-0.786855

>  <r_i_glide_evdw>  (278) 
-23.9312

>  <r_i_glide_ecoul>  (278) 
-1.37971

>  <r_i_glide_erotb>  (278) 
0.131457

>  <r_i_glide_esite>  (278) 
0

>  <r_i_glide_emodel>  (278) 
-28.5779

>  <r_i_glide_energy>  (278) 
-25.3109

>  <r_i_glide_einternal>  (278) 
0.103529

>  <r_i_glide_intrahb_reward>  (278) 
-0

>  <i_i_glide_confnum>  (278) 
2

>  <i_i_glide_posenum>  (278) 
1

>  <r_i_glide_eff_state_penalty>  (278) 
0

>  <ligand_id>  (278) 
76

>  <original_smiles>  (278) 
CC1CC(C)(C)C2(C)CC3C4(C)C(=CCC(C5C6CC(O)C5(C)CO6)C34C)C12

>  <smiles>  (278) 
[H]OC1([H])C([H])([H])C2([H])OC([H])([H])C1(C([H])([H])[H])C2([H])C1([H])C([H])([H])C([H])=C2C3([H])C([H])(C([H])([H])[H])C([H])([H])C(C([H])([H])[H])(C([H])([H])[H])C3(C([H])([H])[H])C([H])([H])C3([H])C2(C([H])([H])[H])C13C([H])([H])[H]

$$$$
76:0:2
     RDKit          3D

 68 73  0  0  1  0  0  0  0  0999 V2000
    3.0023  -10.1361    2.4911 C   0  0  0  0  0  0  0  0  0  0  0  0
    2.1593   -9.1947    3.3631 C   0  0  2  0  0  0  0  0  0  0  0  0
    0.6481   -9.1924    2.9796 C   0  0  0  0  0  0  0  0  0  0  0  0
    0.1592   -7.7115    2.8445 C   0  0  0  0  0  0  0  0  0  0  0  0
    0.0865   -7.2928    1.3496 C   0  0  0  0  0  0  0  0  0  0  0  0
   -1.2826   -7.5596    3.3947 C   0  0  0  0  0  0  0  0  0  0  0  0
    1.2545   -6.9424    3.6545 C   0  0  2  0  0  0  0  0  0  0  0  0
    0.9181   -7.0775    5.1792 C   0  0  0  0  0  0  0  0  0  0  0  0
    1.5591   -5.4546    3.3370 C   0  0  0  0  0  0  0  0  0  0  0  0
    2.6904   -4.9247    4.2362 C   0  0  1  0  0  0  0  0  0  0  0  0
    3.7826   -5.9352    4.5515 C   0  0  1  0  0  0  0  0  0  0  0  0
    4.2218   -6.2068    5.9805 C   0  0  0  0  0  0  0  0  0  0  0  0
    3.8471   -7.1280    3.6523 C   0  0  0  0  0  0  0  0  0  0  0  0
    4.8990   -7.2233    2.8136 C   0  0  0  0  0  0  0  0  0  0  0  0
    5.8646   -6.0669    2.7317 C   0  0  0  0  0  0  0  0  0  0  0  0
    5.0753   -4.7258    2.6870 C   0  0  1  0  0  0  0  0  0  0  0  0
    4.3502   -4.4389    1.3206 C   0  0  2  0  0  0  0  0  0  0  0  0
    5.2671   -4.3708    0.0983 C   0  0  2  0  0  0  0  0  0  0  0  0
    6.1455   -3.1319    0.3541 C   0  0  0  0  0  0  0  0  0  0  0  0
    5.1504   -2.1938    1.0844 C   0  0  1  0  0  0  0  0  0  0  0  0
    5.0239   -0.9345    0.4432 O   0  0  0  0  0  0  0  0  0  0  0  0
    3.8314   -3.0106    1.0559 C   0  0  2  0  0  0  0  0  0  0  0  0
    2.7133   -2.4721    1.9782 C   0  0  0  0  0  0  0  0  0  0  0  0
    3.3733   -3.1775   -0.4092 C   0  0  0  0  0  0  0  0  0  0  0  0
    4.3634   -4.0358   -0.9685 O   0  0  0  0  0  0  0  0  0  0  0  0
    4.1923   -4.5838    3.9621 C   0  0  1  0  0  0  0  0  0  0  0  0
    4.7960   -3.5061    4.8499 C   0  0  0  0  0  0  0  0  0  0  0  0
    2.5085   -7.7226    3.2152 C   0  0  1  0  0  0  0  0  0  0  0  0
    2.9289   -9.8868    1.4259 H   0  0  0  0  0  0  0  0  0  0  0  0
    2.6695  -11.1695    2.6070 H   0  0  0  0  0  0  0  0  0  0  0  0
    4.0575  -10.1014    2.7657 H   0  0  0  0  0  0  0  0  0  0  0  0
    2.2750   -9.4830    4.4111 H   0  0  0  0  0  0  0  0  0  0  0  0
    0.4631   -9.7589    2.0642 H   0  0  0  0  0  0  0  0  0  0  0  0
    0.0965   -9.7119    3.7673 H   0  0  0  0  0  0  0  0  0  0  0  0
   -0.1816   -6.2488    1.2409 H   0  0  0  0  0  0  0  0  0  0  0  0
   -0.6909   -7.8510    0.8363 H   0  0  0  0  0  0  0  0  0  0  0  0
    1.0054   -7.4684    0.7919 H   0  0  0  0  0  0  0  0  0  0  0  0
   -1.5707   -6.5118    3.4567 H   0  0  0  0  0  0  0  0  0  0  0  0
   -1.4021   -7.9938    4.3908 H   0  0  0  0  0  0  0  0  0  0  0  0
   -2.0004   -8.0710    2.7516 H   0  0  0  0  0  0  0  0  0  0  0  0
    1.7118   -6.7481    5.8344 H   0  0  0  0  0  0  0  0  0  0  0  0
    0.6980   -8.1088    5.4639 H   0  0  0  0  0  0  0  0  0  0  0  0
    0.0522   -6.4631    5.4314 H   0  0  0  0  0  0  0  0  0  0  0  0
    1.8105   -5.3381    2.2821 H   0  0  0  0  0  0  0  0  0  0  0  0
    0.6770   -4.8427    3.5054 H   0  0  0  0  0  0  0  0  0  0  0  0
    2.2809   -4.3828    5.0981 H   0  0  0  0  0  0  0  0  0  0  0  0
    3.8760   -5.4072    6.6335 H   0  0  0  0  0  0  0  0  0  0  0  0
    5.3112   -6.2527    6.0138 H   0  0  0  0  0  0  0  0  0  0  0  0
    3.8173   -7.1582    6.3371 H   0  0  0  0  0  0  0  0  0  0  0  0
    4.8739   -7.8999    1.9786 H   0  0  0  0  0  0  0  0  0  0  0  0
    6.5338   -6.0974    3.6008 H   0  0  0  0  0  0  0  0  0  0  0  0
    6.4789   -6.1774    1.8434 H   0  0  0  0  0  0  0  0  0  0  0  0
    5.8785   -3.9928    2.7887 H   0  0  0  0  0  0  0  0  0  0  0  0
    3.6019   -5.1969    1.1455 H   0  0  0  0  0  0  0  0  0  0  0  0
    5.7994   -5.2850   -0.1560 H   0  0  0  0  0  0  0  0  0  0  0  0
    6.9851   -3.3895    0.9985 H   0  0  0  0  0  0  0  0  0  0  0  0
    6.5270   -2.7336   -0.5879 H   0  0  0  0  0  0  0  0  0  0  0  0
    5.4871   -2.0247    2.1186 H   0  0  0  0  0  0  0  0  0  0  0  0
    4.3029   -0.4661    0.8346 H   0  0  0  0  0  0  0  0  0  0  0  0
    2.4246   -1.4504    1.7002 H   0  0  0  0  0  0  0  0  0  0  0  0
    3.0015   -2.4746    3.0374 H   0  0  0  0  0  0  0  0  0  0  0  0
    1.8144   -3.0828    1.8773 H   0  0  0  0  0  0  0  0  0  0  0  0
    2.4094   -3.6773   -0.4856 H   0  0  0  0  0  0  0  0  0  0  0  0
    3.3482   -2.2335   -0.9468 H   0  0  0  0  0  0  0  0  0  0  0  0
    5.8060   -3.7774    5.1514 H   0  0  0  0  0  0  0  0  0  0  0  0
    4.2015   -3.3365    5.7472 H   0  0  0  0  0  0  0  0  0  0  0  0
    4.8539   -2.5665    4.3096 H   0  0  0  0  0  0  0  0  0  0  0  0
    2.5965   -7.5541    2.1419 H   0  0  0  0  0  0  0  0  0  0  0  0
  1  2  1  0
  1 29  1  0
  1 30  1  0
  1 31  1  0
  2 28  1  0
  2  3  1  0
  2 32  1  1
  3  4  1  0
  3 33  1  0
  3 34  1  0
  4  5  1  0
  4  6  1  0
  4  7  1  0
  5 35  1  0
  5 36  1  0
  5 37  1  0
  6 38  1  0
  6 39  1  0
  6 40  1  0
  7 28  1  0
  7  8  1  1
  7  9  1  0
  8 41  1  0
  8 42  1  0
  8 43  1  0
  9 10  1  0
  9 44  1  0
  9 45  1  0
 10 26  1  0
 10 11  1  0
 10 46  1  1
 11 26  1  0
 11 12  1  1
 11 13  1  0
 12 47  1  0
 12 48  1  0
 12 49  1  0
 13 14  2  0
 13 28  1  0
 14 15  1  0
 14 50  1  0
 15 16  1  0
 15 51  1  0
 15 52  1  0
 16 17  1  0
 16 26  1  0
 16 53  1  1
 17 22  1  0
 17 18  1  0
 17 54  1  6
 18 25  1  0
 18 19  1  0
 18 55  1  6
 19 20  1  0
 19 56  1  0
 19 57  1  0
 20 21  1  0
 20 22  1  0
 20 58  1  1
 21 59  1  0
 22 23  1  1
 22 24  1  0
 23 60  1  0
 23 61  1  0
 23 62  1  0
 24 25  1  0
 24 63  1  0
 24 64  1  0
 26 27  1  1
 27 65  1  0
 27 66  1  0
 27 67  1  0
 28 68  1  6
M  END
>  <i_m_ct_stereo_status>  (279) 
1

>  <s_m_source_file>  (279) 
/var/tmp/pbs.5076255.sched01/tmpz7l6rxva/92z_h6r8yo.sdf

>  <i_m_source_file_index>  (279) 
24

>  <i_lp_mmshare_version>  (279) 
48012

>  <i_f3d_flags>  (279) 
0

>  <s_epik_input>  (279) 
W0NIM11DMShbQ0gzXSlbQ0gyXVtDQEBIXShbQ0gzXSlbQ0BASF0oW0NAXTEyW0NIM10pQz0zW0NAXTQoW0NIM10pW0NASF0oW0NIMl0yKVtDQF00KFtDSDNdKVtDQEBIXShbQ0gyXVtDSF0zKVtDQEBIXShbQ0BAXTU2W0NIM10pW0NAQEhdKE9bQ0gyXTYpW0NIMl1bQ0BIXTVbT0hd

>  <s_epik_cmdline>  (279) 
J2VwaWtfcHl0aG9uJywgJy1waHQnLCAnMi4wJywgJy1waCcsICc3LjAnLCAnLXRuJywgJzgnLCAnLW1hJywgJzIwMCcsICctaW1hZScsICc8aW5maWxlLm1hZT4nLCAnLW9tYWUnLCAnPG91dGZpbGUubWFlPic=

>  <r_lp_tautomer_probability>  (279) 
1

>  <r_epik_Ionization_Penalty>  (279) 
2.02405e-07

>  <r_epik_Ionization_Penalty_Charging>  (279) 
0

>  <r_epik_Ionization_Penalty_Neutral>  (279) 
2.02405e-07

>  <r_epik_State_Penalty>  (279) 
-0

>  <r_epik_Charging_Adjusted_Penalty>  (279) 
0

>  <i_epik_Tot_Q>  (279) 
0

>  <i_epik_Tot_abs_Q>  (279) 
0

>  <s_lp_Force_Field>  (279) 
OPLS3e

>  <r_lp_Energy>  (279) 
95.3782

>  <b_lp_Chiralities_Consistent>  (279) 
1

>  <s_lp_Variant>  (279) 
76:0-1

>  <s_i_glide_gridfile>  (279) 
pfpi4k_grid

>  <i_i_glide_lignum>  (279) 
24

>  <i_i_glide_rotatable_bonds>  (279) 
2

>  <r_i_docking_score>  (279) 
-2.19905

>  <r_i_glide_ligand_efficiency>  (279) 
-0.0785375

>  <r_i_glide_ligand_efficiency_sa>  (279) 
-0.238486

>  <r_i_glide_ligand_efficiency_ln>  (279) 
-0.507605

>  <r_i_glide_gscore>  (279) 
-2.19905

>  <r_i_glide_lipo>  (279) 
-0.247656

>  <r_i_glide_hbond>  (279) 
0

>  <r_i_glide_metal>  (279) 
-0

>  <r_i_glide_rewards>  (279) 
-0.786855

>  <r_i_glide_evdw>  (279) 
-28.1776

>  <r_i_glide_ecoul>  (279) 
0.752579

>  <r_i_glide_erotb>  (279) 
0.131457

>  <r_i_glide_esite>  (279) 
0

>  <r_i_glide_emodel>  (279) 
-30.5048

>  <r_i_glide_energy>  (279) 
-27.4251

>  <r_i_glide_einternal>  (279) 
0.481684

>  <r_i_glide_intrahb_reward>  (279) 
-0

>  <i_i_glide_confnum>  (279) 
3

>  <i_i_glide_posenum>  (279) 
40

>  <r_i_glide_eff_state_penalty>  (279) 
0

>  <ligand_id>  (279) 
76

>  <original_smiles>  (279) 
CC1CC(C)(C)C2(C)CC3C4(C)C(=CCC(C5C6CC(O)C5(C)CO6)C34C)C12

>  <smiles>  (279) 
[H]OC1([H])C([H])([H])C2([H])OC([H])([H])C1(C([H])([H])[H])C2([H])C1([H])C([H])([H])C([H])=C2C3([H])C([H])(C([H])([H])[H])C([H])([H])C(C([H])([H])[H])(C([H])([H])[H])C3(C([H])([H])[H])C([H])([H])C3([H])C2(C([H])([H])[H])C13C([H])([H])[H]

$$$$
77:0:0
     RDKit          3D

 29 31  0  0  1  0  0  0  0  0999 V2000
    2.1808   -4.0112    3.8544 C   0  0  0  0  0  0  0  0  0  0  0  0
    1.0623   -3.5218    4.7506 C   0  0  0  0  0  0  0  0  0  0  0  0
    0.4370   -4.3747    5.6782 C   0  0  0  0  0  0  0  0  0  0  0  0
   -0.5859   -3.8383    6.4834 C   0  0  0  0  0  0  0  0  0  0  0  0
   -1.3055   -4.6869    7.5070 C   0  0  0  0  0  0  0  0  0  0  0  0
   -0.9963   -2.5557    6.4042 N   0  0  0  0  0  0  0  0  0  0  0  0
   -0.4034   -1.7242    5.5114 C   0  0  0  0  0  0  0  0  0  0  0  0
   -0.8472   -0.3717    5.4446 N   0  0  0  0  0  0  0  0  0  0  0  0
   -1.5541    0.1832    6.4799 N   0  0  0  0  0  0  0  0  0  0  0  0
   -1.7881    1.4564    6.1586 C   0  0  0  0  0  0  0  0  0  0  0  0
   -1.2644    1.7154    4.8739 C   0  0  0  0  0  0  0  0  0  0  0  0
   -1.2695    2.9408    4.0377 C   0  0  0  0  0  0  0  0  0  0  0  0
   -1.8055    3.9889    4.3938 O   0  0  0  0  0  0  0  0  0  0  0  0
   -0.6193    2.7525    2.8752 N   0  0  0  0  0  0  0  0  0  0  0  0
   -0.0625    1.5216    2.4718 C   0  0  0  0  0  0  0  0  0  0  0  0
   -0.0810    0.4373    3.1996 N   0  0  0  0  0  0  0  0  0  0  0  0
   -0.6867    0.5704    4.4353 C   0  0  0  0  0  0  0  0  0  0  0  0
    0.6379   -2.1847    4.6736 C   0  0  0  0  0  0  0  0  0  0  0  0
   -0.5497    3.5119    2.1969 H   0  0  0  0  0  0  0  0  0  0  0  0
    2.4190   -5.0531    4.0626 H   0  0  0  0  0  0  0  0  0  0  0  0
    3.0809   -3.4157    4.0148 H   0  0  0  0  0  0  0  0  0  0  0  0
    1.8928   -3.9254    2.8056 H   0  0  0  0  0  0  0  0  0  0  0  0
    0.7445   -5.4061    5.7763 H   0  0  0  0  0  0  0  0  0  0  0  0
   -0.8998   -5.6971    7.5256 H   0  0  0  0  0  0  0  0  0  0  0  0
   -2.3685   -4.7420    7.2703 H   0  0  0  0  0  0  0  0  0  0  0  0
   -1.1947   -4.2528    8.5008 H   0  0  0  0  0  0  0  0  0  0  0  0
   -2.3306    2.1029    6.8376 H   0  0  0  0  0  0  0  0  0  0  0  0
    0.3962    1.5428    1.4790 H   0  0  0  0  0  0  0  0  0  0  0  0
    1.1460   -1.5438    3.9733 H   0  0  0  0  0  0  0  0  0  0  0  0
  1  2  1  0
  1 20  1  0
  1 21  1  0
  1 22  1  0
  2 18  2  0
  2  3  1  0
  3  4  2  0
  3 23  1  0
  4  5  1  0
  4  6  1  0
  5 24  1  0
  5 25  1  0
  5 26  1  0
  6  7  2  0
  7  8  1  0
  7 18  1  0
  8 17  1  0
  8  9  1  0
  9 10  2  0
 10 11  1  0
 10 27  1  0
 11 17  2  0
 11 12  1  0
 12 13  2  0
 12 14  1  0
 14 19  1  0
 14 15  1  0
 15 16  2  0
 15 28  1  0
 16 17  1  0
 18 29  1  0
M  END
>  <i_m_ct_stereo_status>  (280) 
1

>  <s_m_source_file>  (280) 
/var/tmp/pbs.5076255.sched01/tmpz7l6rxva/92z_h6r8yo.sdf

>  <i_m_source_file_index>  (280) 
25

>  <i_lp_mmshare_version>  (280) 
48012

>  <i_f3d_flags>  (280) 
0

>  <s_epik_input>  (280) 
W0NIM11jMVtjSF1jKFtDSDNdKW5jKFtjSF0xKS1uKG5bY0hdMiljKGMyMyluW2NIXVtuSF1jMz1P

>  <s_epik_cmdline>  (280) 
J2VwaWtfcHl0aG9uJywgJy1waHQnLCAnMi4wJywgJy1waCcsICc3LjAnLCAnLXRuJywgJzgnLCAnLW1hJywgJzIwMCcsICctaW1hZScsICc8aW5maWxlLm1hZT4nLCAnLW9tYWUnLCAnPG91dGZpbGUubWFlPic=

>  <r_epik_Ionization_Penalty>  (280) 
0.0220355

>  <r_epik_Ionization_Penalty_Charging>  (280) 
0.0130532

>  <r_epik_Ionization_Penalty_Neutral>  (280) 
0.00898233

>  <r_epik_State_Penalty>  (280) 
0.0168213

>  <r_epik_Charging_Adjusted_Penalty>  (280) 
0.0298745

>  <i_epik_Tot_Q>  (280) 
0

>  <i_epik_Tot_abs_Q>  (280) 
0

>  <s_lp_Force_Field>  (280) 
OPLS3e

>  <r_lp_Energy>  (280) 
19.8606

>  <b_lp_Chiralities_Consistent>  (280) 
1

>  <s_lp_Variant>  (280) 
77:0-1

>  <s_i_glide_gridfile>  (280) 
pfpi4k_grid

>  <i_i_glide_lignum>  (280) 
25

>  <i_i_glide_rotatable_bonds>  (280) 
1

>  <r_i_docking_score>  (280) 
-4.50758

>  <r_i_glide_ligand_efficiency>  (280) 
-0.250421

>  <r_i_glide_ligand_efficiency_sa>  (280) 
-0.656289

>  <r_i_glide_ligand_efficiency_ln>  (280) 
-1.15865

>  <r_i_glide_gscore>  (280) 
-4.50758

>  <r_i_glide_lipo>  (280) 
-0.0619208

>  <r_i_glide_hbond>  (280) 
-0.32

>  <r_i_glide_metal>  (280) 
-0

>  <r_i_glide_rewards>  (280) 
-1.76421

>  <r_i_glide_evdw>  (280) 
-18.6725

>  <r_i_glide_ecoul>  (280) 
-9.92057

>  <r_i_glide_erotb>  (280) 
0.297598

>  <r_i_glide_esite>  (280) 
-0.237337

>  <r_i_glide_emodel>  (280) 
-39.0496

>  <r_i_glide_energy>  (280) 
-28.593

>  <r_i_glide_einternal>  (280) 
0.804854

>  <r_i_glide_intrahb_reward>  (280) 
-0

>  <i_i_glide_confnum>  (280) 
3

>  <i_i_glide_posenum>  (280) 
1

>  <r_i_glide_eff_state_penalty>  (280) 
0

>  <ligand_id>  (280) 
77

>  <original_smiles>  (280) 
Cc1cc(C)nc(-n2ncc3c(=O)[nH]cnc32)c1

>  <smiles>  (280) 
[H]c1c(-n2nc([H])c3c(=O)n([H])c([H])nc32)nc(C([H])([H])[H])c([H])c1C([H])([H])[H]

$$$$
77:0:1
     RDKit          3D

 29 31  0  0  1  0  0  0  0  0999 V2000
    2.0299  -11.3011    3.3706 C   0  0  0  0  0  0  0  0  0  0  0  0
    1.3436  -10.0087    2.9684 C   0  0  0  0  0  0  0  0  0  0  0  0
   -0.0091   -9.7789    3.2599 C   0  0  0  0  0  0  0  0  0  0  0  0
   -0.5871   -8.5553    2.8744 C   0  0  0  0  0  0  0  0  0  0  0  0
   -2.0365   -8.2447    3.1624 C   0  0  0  0  0  0  0  0  0  0  0  0
    0.0965   -7.5837    2.2389 N   0  0  0  0  0  0  0  0  0  0  0  0
    1.4018   -7.8025    1.9424 C   0  0  0  0  0  0  0  0  0  0  0  0
    2.1235   -6.7749    1.2820 N   0  0  0  0  0  0  0  0  0  0  0  0
    1.4602   -5.8572    0.5084 N   0  0  0  0  0  0  0  0  0  0  0  0
    2.3824   -4.9958    0.0748 C   0  0  0  0  0  0  0  0  0  0  0  0
    3.6594   -5.3936    0.5295 C   0  0  0  0  0  0  0  0  0  0  0  0
    5.0158   -4.8285    0.3050 C   0  0  0  0  0  0  0  0  0  0  0  0
    5.2113   -3.8258   -0.3694 O   0  0  0  0  0  0  0  0  0  0  0  0
    5.9883   -5.5392    0.9262 N   0  0  0  0  0  0  0  0  0  0  0  0
    5.7187   -6.6814    1.7052 C   0  0  0  0  0  0  0  0  0  0  0  0
    4.5251   -7.1707    1.9130 N   0  0  0  0  0  0  0  0  0  0  0  0
    3.4854   -6.5018    1.2842 C   0  0  0  0  0  0  0  0  0  0  0  0
    2.0546   -9.0076    2.2916 C   0  0  0  0  0  0  0  0  0  0  0  0
    6.9440   -5.2283    0.8439 H   0  0  0  0  0  0  0  0  0  0  0  0
    1.3452  -11.9641    3.9006 H   0  0  0  0  0  0  0  0  0  0  0  0
    2.8818  -11.0965    4.0216 H   0  0  0  0  0  0  0  0  0  0  0  0
    2.4045  -11.8348    2.4918 H   0  0  0  0  0  0  0  0  0  0  0  0
   -0.5856  -10.5346    3.7711 H   0  0  0  0  0  0  0  0  0  0  0  0
   -2.5078   -9.0634    3.7012 H   0  0  0  0  0  0  0  0  0  0  0  0
   -2.5740   -8.0855    2.2279 H   0  0  0  0  0  0  0  0  0  0  0  0
   -2.1105   -7.3420    3.7685 H   0  0  0  0  0  0  0  0  0  0  0  0
    2.0968   -4.1585   -0.5493 H   0  0  0  0  0  0  0  0  0  0  0  0
    6.6103   -7.1439    2.1365 H   0  0  0  0  0  0  0  0  0  0  0  0
    3.0866   -9.1999    2.0506 H   0  0  0  0  0  0  0  0  0  0  0  0
  1  2  1  0
  1 20  1  0
  1 21  1  0
  1 22  1  0
  2 18  2  0
  2  3  1  0
  3  4  2  0
  3 23  1  0
  4  5  1  0
  4  6  1  0
  5 24  1  0
  5 25  1  0
  5 26  1  0
  6  7  2  0
  7  8  1  0
  7 18  1  0
  8 17  1  0
  8  9  1  0
  9 10  2  0
 10 11  1  0
 10 27  1  0
 11 17  2  0
 11 12  1  0
 12 13  2  0
 12 14  1  0
 14 19  1  0
 14 15  1  0
 15 16  2  0
 15 28  1  0
 16 17  1  0
 18 29  1  0
M  END
>  <i_m_ct_stereo_status>  (281) 
1

>  <s_m_source_file>  (281) 
/var/tmp/pbs.5076255.sched01/tmpz7l6rxva/92z_h6r8yo.sdf

>  <i_m_source_file_index>  (281) 
25

>  <i_lp_mmshare_version>  (281) 
48012

>  <i_f3d_flags>  (281) 
0

>  <s_epik_input>  (281) 
W0NIM11jMVtjSF1jKFtDSDNdKW5jKFtjSF0xKS1uKG5bY0hdMiljKGMyMyluW2NIXVtuSF1jMz1P

>  <s_epik_cmdline>  (281) 
J2VwaWtfcHl0aG9uJywgJy1waHQnLCAnMi4wJywgJy1waCcsICc3LjAnLCAnLXRuJywgJzgnLCAnLW1hJywgJzIwMCcsICctaW1hZScsICc8aW5maWxlLm1hZT4nLCAnLW9tYWUnLCAnPG91dGZpbGUubWFlPic=

>  <r_epik_Ionization_Penalty>  (281) 
0.0220355

>  <r_epik_Ionization_Penalty_Charging>  (281) 
0.0130532

>  <r_epik_Ionization_Penalty_Neutral>  (281) 
0.00898233

>  <r_epik_State_Penalty>  (281) 
0.0168213

>  <r_epik_Charging_Adjusted_Penalty>  (281) 
0.0298745

>  <i_epik_Tot_Q>  (281) 
0

>  <i_epik_Tot_abs_Q>  (281) 
0

>  <s_lp_Force_Field>  (281) 
OPLS3e

>  <r_lp_Energy>  (281) 
19.8606

>  <b_lp_Chiralities_Consistent>  (281) 
1

>  <s_lp_Variant>  (281) 
77:0-1

>  <s_i_glide_gridfile>  (281) 
pfpi4k_grid

>  <i_i_glide_lignum>  (281) 
25

>  <i_i_glide_rotatable_bonds>  (281) 
1

>  <r_i_docking_score>  (281) 
-3.96838

>  <r_i_glide_ligand_efficiency>  (281) 
-0.220466

>  <r_i_glide_ligand_efficiency_sa>  (281) 
-0.577784

>  <r_i_glide_ligand_efficiency_ln>  (281) 
-1.02005

>  <r_i_glide_gscore>  (281) 
-3.96838

>  <r_i_glide_lipo>  (281) 
-0.322466

>  <r_i_glide_hbond>  (281) 
-0.153593

>  <r_i_glide_metal>  (281) 
-0

>  <r_i_glide_rewards>  (281) 
-1.93755

>  <r_i_glide_evdw>  (281) 
-24.2389

>  <r_i_glide_ecoul>  (281) 
-3.90196

>  <r_i_glide_erotb>  (281) 
0.297598

>  <r_i_glide_esite>  (281) 
-0.0551328

>  <r_i_glide_emodel>  (281) 
-37.3896

>  <r_i_glide_energy>  (281) 
-28.1408

>  <r_i_glide_einternal>  (281) 
0.649992

>  <r_i_glide_intrahb_reward>  (281) 
-0

>  <i_i_glide_confnum>  (281) 
2

>  <i_i_glide_posenum>  (281) 
2

>  <r_i_glide_eff_state_penalty>  (281) 
0

>  <ligand_id>  (281) 
77

>  <original_smiles>  (281) 
Cc1cc(C)nc(-n2ncc3c(=O)[nH]cnc32)c1

>  <smiles>  (281) 
[H]c1c(-n2nc([H])c3c(=O)n([H])c([H])nc32)nc(C([H])([H])[H])c([H])c1C([H])([H])[H]

$$$$
77:0:2
     RDKit          3D

 29 31  0  0  1  0  0  0  0  0999 V2000
   -2.2897    3.4110    3.1583 C   0  0  0  0  0  0  0  0  0  0  0  0
   -1.9837    2.5447    4.3614 C   0  0  0  0  0  0  0  0  0  0  0  0
   -2.2980    2.9667    5.6675 C   0  0  0  0  0  0  0  0  0  0  0  0
   -2.0077    2.1015    6.7400 C   0  0  0  0  0  0  0  0  0  0  0  0
   -2.3181    2.4918    8.1676 C   0  0  0  0  0  0  0  0  0  0  0  0
   -1.4635    0.8775    6.5769 N   0  0  0  0  0  0  0  0  0  0  0  0
   -1.1411    0.4719    5.3250 C   0  0  0  0  0  0  0  0  0  0  0  0
   -0.5590   -0.8081    5.1588 N   0  0  0  0  0  0  0  0  0  0  0  0
   -0.8860   -1.8386    6.0054 N   0  0  0  0  0  0  0  0  0  0  0  0
   -0.1709   -2.8958    5.6117 C   0  0  0  0  0  0  0  0  0  0  0  0
    0.6184   -2.5391    4.4918 C   0  0  0  0  0  0  0  0  0  0  0  0
    1.5754   -3.3200    3.6637 C   0  0  0  0  0  0  0  0  0  0  0  0
    1.8031   -4.5113    3.8605 O   0  0  0  0  0  0  0  0  0  0  0  0
    2.1307   -2.5776    2.6794 N   0  0  0  0  0  0  0  0  0  0  0  0
    1.8259   -1.2144    2.4717 C   0  0  0  0  0  0  0  0  0  0  0  0
    0.9912   -0.5242    3.2042 N   0  0  0  0  0  0  0  0  0  0  0  0
    0.3772   -1.2343    4.2279 C   0  0  0  0  0  0  0  0  0  0  0  0
   -1.3874    1.2804    4.1927 C   0  0  0  0  0  0  0  0  0  0  0  0
    2.7868   -3.0259    2.0591 H   0  0  0  0  0  0  0  0  0  0  0  0
   -2.7798    4.3379    3.4507 H   0  0  0  0  0  0  0  0  0  0  0  0
   -2.9488    2.8845    2.4669 H   0  0  0  0  0  0  0  0  0  0  0  0
   -1.3726    3.6687    2.6282 H   0  0  0  0  0  0  0  0  0  0  0  0
   -2.7661    3.9248    5.8434 H   0  0  0  0  0  0  0  0  0  0  0  0
   -2.8014    3.4680    8.2147 H   0  0  0  0  0  0  0  0  0  0  0  0
   -1.4012    2.5301    8.7563 H   0  0  0  0  0  0  0  0  0  0  0  0
   -2.9833    1.7585    8.6206 H   0  0  0  0  0  0  0  0  0  0  0  0
   -0.2620   -3.8369    6.1347 H   0  0  0  0  0  0  0  0  0  0  0  0
    2.3553   -0.7731    1.6249 H   0  0  0  0  0  0  0  0  0  0  0  0
   -1.1561    0.9417    3.1948 H   0  0  0  0  0  0  0  0  0  0  0  0
  1  2  1  0
  1 20  1  0
  1 21  1  0
  1 22  1  0
  2 18  2  0
  2  3  1  0
  3  4  2  0
  3 23  1  0
  4  5  1  0
  4  6  1  0
  5 24  1  0
  5 25  1  0
  5 26  1  0
  6  7  2  0
  7  8  1  0
  7 18  1  0
  8 17  1  0
  8  9  1  0
  9 10  2  0
 10 11  1  0
 10 27  1  0
 11 17  2  0
 11 12  1  0
 12 13  2  0
 12 14  1  0
 14 19  1  0
 14 15  1  0
 15 16  2  0
 15 28  1  0
 16 17  1  0
 18 29  1  0
M  END
>  <i_m_ct_stereo_status>  (282) 
1

>  <s_m_source_file>  (282) 
/var/tmp/pbs.5076255.sched01/tmpz7l6rxva/92z_h6r8yo.sdf

>  <i_m_source_file_index>  (282) 
25

>  <i_lp_mmshare_version>  (282) 
48012

>  <i_f3d_flags>  (282) 
0

>  <s_epik_input>  (282) 
W0NIM11jMVtjSF1jKFtDSDNdKW5jKFtjSF0xKS1uKG5bY0hdMiljKGMyMyluW2NIXVtuSF1jMz1P

>  <s_epik_cmdline>  (282) 
J2VwaWtfcHl0aG9uJywgJy1waHQnLCAnMi4wJywgJy1waCcsICc3LjAnLCAnLXRuJywgJzgnLCAnLW1hJywgJzIwMCcsICctaW1hZScsICc8aW5maWxlLm1hZT4nLCAnLW9tYWUnLCAnPG91dGZpbGUubWFlPic=

>  <r_epik_Ionization_Penalty>  (282) 
0.0220355

>  <r_epik_Ionization_Penalty_Charging>  (282) 
0.0130532

>  <r_epik_Ionization_Penalty_Neutral>  (282) 
0.00898233

>  <r_epik_State_Penalty>  (282) 
0.0168213

>  <r_epik_Charging_Adjusted_Penalty>  (282) 
0.0298745

>  <i_epik_Tot_Q>  (282) 
0

>  <i_epik_Tot_abs_Q>  (282) 
0

>  <s_lp_Force_Field>  (282) 
OPLS3e

>  <r_lp_Energy>  (282) 
19.8606

>  <b_lp_Chiralities_Consistent>  (282) 
1

>  <s_lp_Variant>  (282) 
77:0-1

>  <s_i_glide_gridfile>  (282) 
pfpi4k_grid

>  <i_i_glide_lignum>  (282) 
25

>  <i_i_glide_rotatable_bonds>  (282) 
1

>  <r_i_docking_score>  (282) 
-3.46257

>  <r_i_glide_ligand_efficiency>  (282) 
-0.192365

>  <r_i_glide_ligand_efficiency_sa>  (282) 
-0.504139

>  <r_i_glide_ligand_efficiency_ln>  (282) 
-0.890037

>  <r_i_glide_gscore>  (282) 
-3.46257

>  <r_i_glide_lipo>  (282) 
-0.0945556

>  <r_i_glide_hbond>  (282) 
-0.0747544

>  <r_i_glide_metal>  (282) 
-0

>  <r_i_glide_rewards>  (282) 
-1.76421

>  <r_i_glide_evdw>  (282) 
-20.5347

>  <r_i_glide_ecoul>  (282) 
-4.67834

>  <r_i_glide_erotb>  (282) 
0.297598

>  <r_i_glide_esite>  (282) 
-0.0981609

>  <r_i_glide_emodel>  (282) 
-33.3489

>  <r_i_glide_energy>  (282) 
-25.213

>  <r_i_glide_einternal>  (282) 
0.47986

>  <r_i_glide_intrahb_reward>  (282) 
-0

>  <i_i_glide_confnum>  (282) 
3

>  <i_i_glide_posenum>  (282) 
10

>  <r_i_glide_eff_state_penalty>  (282) 
0

>  <ligand_id>  (282) 
77

>  <original_smiles>  (282) 
Cc1cc(C)nc(-n2ncc3c(=O)[nH]cnc32)c1

>  <smiles>  (282) 
[H]c1c(-n2nc([H])c3c(=O)n([H])c([H])nc32)nc(C([H])([H])[H])c([H])c1C([H])([H])[H]

$$$$
77:1:0
     RDKit          3D

 28 30  0  0  1  0  0  0  0  0999 V2000
    2.0264  -11.3102    3.3715 C   0  0  0  0  0  0  0  0  0  0  0  0
    1.3444  -10.0157    2.9731 C   0  0  0  0  0  0  0  0  0  0  0  0
   -0.0057   -9.7831    3.2747 C   0  0  0  0  0  0  0  0  0  0  0  0
   -0.5857   -8.5584    2.8910 C   0  0  0  0  0  0  0  0  0  0  0  0
   -2.0313   -8.2411    3.1895 C   0  0  0  0  0  0  0  0  0  0  0  0
    0.0933   -7.5865    2.2506 N   0  0  0  0  0  0  0  0  0  0  0  0
    1.3991   -7.8057    1.9480 C   0  0  0  0  0  0  0  0  0  0  0  0
    2.1229   -6.7817    1.2836 N   0  0  0  0  0  0  0  0  0  0  0  0
    1.4626   -5.8532    0.5166 N   0  0  0  0  0  0  0  0  0  0  0  0
    2.3918   -4.9981    0.0777 C   0  0  0  0  0  0  0  0  0  0  0  0
    3.6725   -5.4104    0.5116 C   0  0  0  0  0  0  0  0  0  0  0  0
    5.0387   -4.8454    0.2709 C   0  0  0  0  0  0  0  0  0  0  0  0
    5.1612   -3.8329   -0.4170 O   0  0  0  0  0  0  0  0  0  0  0  0
    6.0244   -5.5776    0.8893 N   0  0  0  0  0  0  0  0  0  0  0  0
    5.7178   -6.7015    1.6517 C   0  0  0  0  0  0  0  0  0  0  0  0
    4.5465   -7.1799    1.8669 N   0  0  0  0  0  0  0  0  0  0  0  0
    3.4882   -6.5206    1.2638 C   0  0  0  0  0  0  0  0  0  0  0  0
    2.0544   -9.0130    2.2954 C   0  0  0  0  0  0  0  0  0  0  0  0
    1.3395  -11.9751    3.8943 H   0  0  0  0  0  0  0  0  0  0  0  0
    2.8746  -11.1084    4.0241 H   0  0  0  0  0  0  0  0  0  0  0  0
    2.4017  -11.8370    2.4887 H   0  0  0  0  0  0  0  0  0  0  0  0
   -0.5788  -10.5328    3.7912 H   0  0  0  0  0  0  0  0  0  0  0  0
   -2.5036   -9.0613    3.7246 H   0  0  0  0  0  0  0  0  0  0  0  0
   -2.5747   -8.0719    2.2600 H   0  0  0  0  0  0  0  0  0  0  0  0
   -2.0985   -7.3420    3.8024 H   0  0  0  0  0  0  0  0  0  0  0  0
    2.1020   -4.1664   -0.5467 H   0  0  0  0  0  0  0  0  0  0  0  0
    6.6029   -7.1864    2.0800 H   0  0  0  0  0  0  0  0  0  0  0  0
    3.0870   -9.2037    2.0488 H   0  0  0  0  0  0  0  0  0  0  0  0
  1  2  1  0
  1 19  1  0
  1 20  1  0
  1 21  1  0
  2 18  2  0
  2  3  1  0
  3  4  2  0
  3 22  1  0
  4  5  1  0
  4  6  1  0
  5 23  1  0
  5 24  1  0
  5 25  1  0
  6  7  2  0
  7  8  1  0
  7 18  1  0
  8 17  1  0
  8  9  1  0
  9 10  2  0
 10 11  1  0
 10 26  1  0
 11 17  2  0
 11 12  1  0
 12 13  2  0
 12 14  1  0
 14 15  1  0
 15 16  2  0
 15 27  1  0
 16 17  1  0
 18 28  1  0
M  CHG  1  14  -1
M  END
>  <i_m_ct_stereo_status>  (283) 
1

>  <s_m_source_file>  (283) 
/var/tmp/pbs.5076255.sched01/tmpz7l6rxva/92z_h6r8yo.sdf

>  <i_m_source_file_index>  (283) 
26

>  <i_lp_mmshare_version>  (283) 
48012

>  <i_f3d_flags>  (283) 
0

>  <s_epik_input>  (283) 
W0NIM11jMVtjSF1jKFtDSDNdKW5jKFtjSF0xKS1uKG5bY0hdMiljKGMyMyluW2NIXVtuSF1jMz1P

>  <s_epik_cmdline>  (283) 
J2VwaWtfcHl0aG9uJywgJy1waHQnLCAnMi4wJywgJy1waCcsICc3LjAnLCAnLXRuJywgJzgnLCAnLW1hJywgJzIwMCcsICctaW1hZScsICc8aW5maWxlLm1hZT4nLCAnLW9tYWUnLCAnPG91dGZpbGUubWFlPic=

>  <r_epik_Ionization_Penalty>  (283) 
2.276

>  <r_epik_Ionization_Penalty_Charging>  (283) 
1.62139e-10

>  <r_epik_Ionization_Penalty_Neutral>  (283) 
2.276

>  <r_epik_State_Penalty>  (283) 
2.42199

>  <r_epik_Charging_Adjusted_Penalty>  (283) 
2.42199

>  <i_epik_Tot_Q>  (283) 
-1

>  <i_epik_Tot_abs_Q>  (283) 
1

>  <s_lp_Force_Field>  (283) 
OPLS3e

>  <r_lp_Energy>  (283) 
41.9064

>  <b_lp_Chiralities_Consistent>  (283) 
1

>  <s_lp_Variant>  (283) 
77:0-2

>  <s_i_glide_gridfile>  (283) 
pfpi4k_grid

>  <i_i_glide_lignum>  (283) 
26

>  <i_i_glide_rotatable_bonds>  (283) 
1

>  <r_i_docking_score>  (283) 
-3.8514

>  <r_i_glide_ligand_efficiency>  (283) 
-0.213967

>  <r_i_glide_ligand_efficiency_sa>  (283) 
-0.560752

>  <r_i_glide_ligand_efficiency_ln>  (283) 
-0.989984

>  <r_i_glide_gscore>  (283) 
-3.8514

>  <r_i_glide_lipo>  (283) 
-0.323301

>  <r_i_glide_hbond>  (283) 
-0.153248

>  <r_i_glide_metal>  (283) 
-0

>  <r_i_glide_rewards>  (283) 
-1.95066

>  <r_i_glide_evdw>  (283) 
-23.3675

>  <r_i_glide_ecoul>  (283) 
-3.33665

>  <r_i_glide_erotb>  (283) 
0.299732

>  <r_i_glide_esite>  (283) 
-0.0550553

>  <r_i_glide_emodel>  (283) 
-35.5001

>  <r_i_glide_energy>  (283) 
-26.7041

>  <r_i_glide_einternal>  (283) 
0.627953

>  <r_i_glide_intrahb_reward>  (283) 
-0

>  <i_i_glide_confnum>  (283) 
2

>  <i_i_glide_posenum>  (283) 
10

>  <r_i_glide_eff_state_penalty>  (283) 
0

>  <ligand_id>  (283) 
77

>  <original_smiles>  (283) 
Cc1cc(C)nc(-n2ncc3c(=O)[nH]cnc32)c1

>  <smiles>  (283) 
[H]c1nc2c(c([H])nn2-c2nc(C([H])([H])[H])c([H])c(C([H])([H])[H])c2[H])c(=O)[n-]1

$$$$
77:1:1
     RDKit          3D

 28 30  0  0  1  0  0  0  0  0999 V2000
    2.3537   -4.1535    4.7683 C   0  0  0  0  0  0  0  0  0  0  0  0
    1.0771   -3.4758    5.2199 C   0  0  0  0  0  0  0  0  0  0  0  0
    0.1846   -4.1292    6.0908 C   0  0  0  0  0  0  0  0  0  0  0  0
   -0.9817   -3.4445    6.4802 C   0  0  0  0  0  0  0  0  0  0  0  0
   -1.9883   -4.0877    7.4100 C   0  0  0  0  0  0  0  0  0  0  0  0
   -1.2828   -2.1974    6.0607 N   0  0  0  0  0  0  0  0  0  0  0  0
   -0.4325   -1.5611    5.2186 C   0  0  0  0  0  0  0  0  0  0  0  0
   -0.7496   -0.2509    4.7872 N   0  0  0  0  0  0  0  0  0  0  0  0
   -0.5117    0.1639    3.5039 N   0  0  0  0  0  0  0  0  0  0  0  0
   -0.9456    1.4243    3.4136 C   0  0  0  0  0  0  0  0  0  0  0  0
   -1.4460    1.8345    4.6738 C   0  0  0  0  0  0  0  0  0  0  0  0
   -2.0367    3.1311    5.1415 C   0  0  0  0  0  0  0  0  0  0  0  0
   -2.1523    4.0685    4.3572 O   0  0  0  0  0  0  0  0  0  0  0  0
   -2.3957    3.0992    6.4659 N   0  0  0  0  0  0  0  0  0  0  0  0
   -2.1878    1.9630    7.2412 C   0  0  0  0  0  0  0  0  0  0  0  0
   -1.6915    0.8450    6.8436 N   0  0  0  0  0  0  0  0  0  0  0  0
   -1.3133    0.7813    5.5135 C   0  0  0  0  0  0  0  0  0  0  0  0
    0.7615   -2.1753    4.7714 C   0  0  0  0  0  0  0  0  0  0  0  0
    2.4514   -5.1440    5.2125 H   0  0  0  0  0  0  0  0  0  0  0  0
    3.2192   -3.5603    5.0652 H   0  0  0  0  0  0  0  0  0  0  0  0
    2.3583   -4.2635    3.6834 H   0  0  0  0  0  0  0  0  0  0  0  0
    0.3848   -5.1255    6.4553 H   0  0  0  0  0  0  0  0  0  0  0  0
   -1.6732   -5.0879    7.7099 H   0  0  0  0  0  0  0  0  0  0  0  0
   -2.9655   -4.1642    6.9249 H   0  0  0  0  0  0  0  0  0  0  0  0
   -2.0879   -3.4991    8.3154 H   0  0  0  0  0  0  0  0  0  0  0  0
   -0.8786    1.9627    2.4751 H   0  0  0  0  0  0  0  0  0  0  0  0
   -2.5057    2.0848    8.2817 H   0  0  0  0  0  0  0  0  0  0  0  0
    1.4299   -1.6460    4.1090 H   0  0  0  0  0  0  0  0  0  0  0  0
  1  2  1  0
  1 19  1  0
  1 20  1  0
  1 21  1  0
  2 18  2  0
  2  3  1  0
  3  4  2  0
  3 22  1  0
  4  5  1  0
  4  6  1  0
  5 23  1  0
  5 24  1  0
  5 25  1  0
  6  7  2  0
  7  8  1  0
  7 18  1  0
  8 17  1  0
  8  9  1  0
  9 10  2  0
 10 11  1  0
 10 26  1  0
 11 17  2  0
 11 12  1  0
 12 13  2  0
 12 14  1  0
 14 15  1  0
 15 16  2  0
 15 27  1  0
 16 17  1  0
 18 28  1  0
M  CHG  1  14  -1
M  END
>  <i_m_ct_stereo_status>  (284) 
1

>  <s_m_source_file>  (284) 
/var/tmp/pbs.5076255.sched01/tmpz7l6rxva/92z_h6r8yo.sdf

>  <i_m_source_file_index>  (284) 
26

>  <i_lp_mmshare_version>  (284) 
48012

>  <i_f3d_flags>  (284) 
0

>  <s_epik_input>  (284) 
W0NIM11jMVtjSF1jKFtDSDNdKW5jKFtjSF0xKS1uKG5bY0hdMiljKGMyMyluW2NIXVtuSF1jMz1P

>  <s_epik_cmdline>  (284) 
J2VwaWtfcHl0aG9uJywgJy1waHQnLCAnMi4wJywgJy1waCcsICc3LjAnLCAnLXRuJywgJzgnLCAnLW1hJywgJzIwMCcsICctaW1hZScsICc8aW5maWxlLm1hZT4nLCAnLW9tYWUnLCAnPG91dGZpbGUubWFlPic=

>  <r_epik_Ionization_Penalty>  (284) 
2.276

>  <r_epik_Ionization_Penalty_Charging>  (284) 
1.62139e-10

>  <r_epik_Ionization_Penalty_Neutral>  (284) 
2.276

>  <r_epik_State_Penalty>  (284) 
2.42199

>  <r_epik_Charging_Adjusted_Penalty>  (284) 
2.42199

>  <i_epik_Tot_Q>  (284) 
-1

>  <i_epik_Tot_abs_Q>  (284) 
1

>  <s_lp_Force_Field>  (284) 
OPLS3e

>  <r_lp_Energy>  (284) 
41.9064

>  <b_lp_Chiralities_Consistent>  (284) 
1

>  <s_lp_Variant>  (284) 
77:0-2

>  <s_i_glide_gridfile>  (284) 
pfpi4k_grid

>  <i_i_glide_lignum>  (284) 
26

>  <i_i_glide_rotatable_bonds>  (284) 
1

>  <r_i_docking_score>  (284) 
-3.14378

>  <r_i_glide_ligand_efficiency>  (284) 
-0.174655

>  <r_i_glide_ligand_efficiency_sa>  (284) 
-0.457724

>  <r_i_glide_ligand_efficiency_ln>  (284) 
-0.808093

>  <r_i_glide_gscore>  (284) 
-3.14378

>  <r_i_glide_lipo>  (284) 
-0.0168691

>  <r_i_glide_hbond>  (284) 
-0.191997

>  <r_i_glide_metal>  (284) 
-0

>  <r_i_glide_rewards>  (284) 
-1.77109

>  <r_i_glide_evdw>  (284) 
-18.156

>  <r_i_glide_ecoul>  (284) 
-3.00582

>  <r_i_glide_erotb>  (284) 
0.299732

>  <r_i_glide_esite>  (284) 
-0.10489

>  <r_i_glide_emodel>  (284) 
-28.3618

>  <r_i_glide_energy>  (284) 
-21.1618

>  <r_i_glide_einternal>  (284) 
0.517411

>  <r_i_glide_intrahb_reward>  (284) 
-0

>  <i_i_glide_confnum>  (284) 
3

>  <i_i_glide_posenum>  (284) 
2

>  <r_i_glide_eff_state_penalty>  (284) 
0

>  <ligand_id>  (284) 
77

>  <original_smiles>  (284) 
Cc1cc(C)nc(-n2ncc3c(=O)[nH]cnc32)c1

>  <smiles>  (284) 
[H]c1nc2c(c([H])nn2-c2nc(C([H])([H])[H])c([H])c(C([H])([H])[H])c2[H])c(=O)[n-]1

$$$$
77:1:2
     RDKit          3D

 28 30  0  0  1  0  0  0  0  0999 V2000
    6.5357   -5.2061    1.7554 C   0  0  0  0  0  0  0  0  0  0  0  0
    5.1671   -4.9382    1.1674 C   0  0  0  0  0  0  0  0  0  0  0  0
    5.0050   -4.0517    0.0836 C   0  0  0  0  0  0  0  0  0  0  0  0
    3.7046   -3.8485   -0.4228 C   0  0  0  0  0  0  0  0  0  0  0  0
    3.4595   -2.9162   -1.5914 C   0  0  0  0  0  0  0  0  0  0  0  0
    2.6142   -4.4632    0.0787 N   0  0  0  0  0  0  0  0  0  0  0  0
    2.7668   -5.3287    1.1043 C   0  0  0  0  0  0  0  0  0  0  0  0
    1.6240   -5.9902    1.6051 N   0  0  0  0  0  0  0  0  0  0  0  0
    0.7616   -6.6412    0.7644 N   0  0  0  0  0  0  0  0  0  0  0  0
   -0.1840   -7.1852    1.5294 C   0  0  0  0  0  0  0  0  0  0  0  0
    0.0281   -6.8025    2.8751 C   0  0  0  0  0  0  0  0  0  0  0  0
   -0.7594   -7.0700    4.1184 C   0  0  0  0  0  0  0  0  0  0  0  0
   -1.7835   -7.7386    4.0474 O   0  0  0  0  0  0  0  0  0  0  0  0
   -0.2200   -6.4559    5.2197 N   0  0  0  0  0  0  0  0  0  0  0  0
    0.9628   -5.7282    5.1302 C   0  0  0  0  0  0  0  0  0  0  0  0
    1.6494   -5.5001    4.0655 N   0  0  0  0  0  0  0  0  0  0  0  0
    1.1604   -6.0625    2.9023 C   0  0  0  0  0  0  0  0  0  0  0  0
    4.0271   -5.5839    1.6879 C   0  0  0  0  0  0  0  0  0  0  0  0
    7.3108   -4.6469    1.2312 H   0  0  0  0  0  0  0  0  0  0  0  0
    6.7741   -6.2678    1.6853 H   0  0  0  0  0  0  0  0  0  0  0  0
    6.5542   -4.9160    2.8055 H   0  0  0  0  0  0  0  0  0  0  0  0
    5.8526   -3.5416   -0.3499 H   0  0  0  0  0  0  0  0  0  0  0  0
    4.3892   -2.4730   -1.9458 H   0  0  0  0  0  0  0  0  0  0  0  0
    2.7874   -2.1114   -1.2949 H   0  0  0  0  0  0  0  0  0  0  0  0
    3.0006   -3.4579   -2.4193 H   0  0  0  0  0  0  0  0  0  0  0  0
   -0.9684   -7.7783    1.0800 H   0  0  0  0  0  0  0  0  0  0  0  0
    1.2885   -5.3372    6.0997 H   0  0  0  0  0  0  0  0  0  0  0  0
    4.1197   -6.2727    2.5161 H   0  0  0  0  0  0  0  0  0  0  0  0
  1  2  1  0
  1 19  1  0
  1 20  1  0
  1 21  1  0
  2 18  2  0
  2  3  1  0
  3  4  2  0
  3 22  1  0
  4  5  1  0
  4  6  1  0
  5 23  1  0
  5 24  1  0
  5 25  1  0
  6  7  2  0
  7  8  1  0
  7 18  1  0
  8 17  1  0
  8  9  1  0
  9 10  2  0
 10 11  1  0
 10 26  1  0
 11 17  2  0
 11 12  1  0
 12 13  2  0
 12 14  1  0
 14 15  1  0
 15 16  2  0
 15 27  1  0
 16 17  1  0
 18 28  1  0
M  CHG  1  14  -1
M  END
>  <i_m_ct_stereo_status>  (285) 
1

>  <s_m_source_file>  (285) 
/var/tmp/pbs.5076255.sched01/tmpz7l6rxva/92z_h6r8yo.sdf

>  <i_m_source_file_index>  (285) 
26

>  <i_lp_mmshare_version>  (285) 
48012

>  <i_f3d_flags>  (285) 
0

>  <s_epik_input>  (285) 
W0NIM11jMVtjSF1jKFtDSDNdKW5jKFtjSF0xKS1uKG5bY0hdMiljKGMyMyluW2NIXVtuSF1jMz1P

>  <s_epik_cmdline>  (285) 
J2VwaWtfcHl0aG9uJywgJy1waHQnLCAnMi4wJywgJy1waCcsICc3LjAnLCAnLXRuJywgJzgnLCAnLW1hJywgJzIwMCcsICctaW1hZScsICc8aW5maWxlLm1hZT4nLCAnLW9tYWUnLCAnPG91dGZpbGUubWFlPic=

>  <r_epik_Ionization_Penalty>  (285) 
2.276

>  <r_epik_Ionization_Penalty_Charging>  (285) 
1.62139e-10

>  <r_epik_Ionization_Penalty_Neutral>  (285) 
2.276

>  <r_epik_State_Penalty>  (285) 
2.42199

>  <r_epik_Charging_Adjusted_Penalty>  (285) 
2.42199

>  <i_epik_Tot_Q>  (285) 
-1

>  <i_epik_Tot_abs_Q>  (285) 
1

>  <s_lp_Force_Field>  (285) 
OPLS3e

>  <r_lp_Energy>  (285) 
41.9064

>  <b_lp_Chiralities_Consistent>  (285) 
1

>  <s_lp_Variant>  (285) 
77:0-2

>  <s_i_glide_gridfile>  (285) 
pfpi4k_grid

>  <i_i_glide_lignum>  (285) 
26

>  <i_i_glide_rotatable_bonds>  (285) 
1

>  <r_i_docking_score>  (285) 
-3.1315

>  <r_i_glide_ligand_efficiency>  (285) 
-0.173972

>  <r_i_glide_ligand_efficiency_sa>  (285) 
-0.455936

>  <r_i_glide_ligand_efficiency_ln>  (285) 
-0.804936

>  <r_i_glide_gscore>  (285) 
-3.1315

>  <r_i_glide_lipo>  (285) 
-0.189106

>  <r_i_glide_hbond>  (285) 
-0.109194

>  <r_i_glide_metal>  (285) 
-0

>  <r_i_glide_rewards>  (285) 
-1.77109

>  <r_i_glide_evdw>  (285) 
-20.7704

>  <r_i_glide_ecoul>  (285) 
-1.35017

>  <r_i_glide_erotb>  (285) 
0.299732

>  <r_i_glide_esite>  (285) 
-0.120803

>  <r_i_glide_emodel>  (285) 
-28.8976

>  <r_i_glide_energy>  (285) 
-22.1205

>  <r_i_glide_einternal>  (285) 
1.2421

>  <r_i_glide_intrahb_reward>  (285) 
-0

>  <i_i_glide_confnum>  (285) 
3

>  <i_i_glide_posenum>  (285) 
4

>  <r_i_glide_eff_state_penalty>  (285) 
0

>  <ligand_id>  (285) 
77

>  <original_smiles>  (285) 
Cc1cc(C)nc(-n2ncc3c(=O)[nH]cnc32)c1

>  <smiles>  (285) 
[H]c1nc2c(c([H])nn2-c2nc(C([H])([H])[H])c([H])c(C([H])([H])[H])c2[H])c(=O)[n-]1

$$$$
77:2:0
     RDKit          3D

 30 32  0  0  1  0  0  0  0  0999 V2000
    2.7119   -4.2013    3.3087 C   0  0  0  0  0  0  0  0  0  0  0  0
    1.5776   -3.7658    4.2163 C   0  0  0  0  0  0  0  0  0  0  0  0
    1.0376   -4.6491    5.1753 C   0  0  0  0  0  0  0  0  0  0  0  0
   -0.0101   -4.1982    6.0044 C   0  0  0  0  0  0  0  0  0  0  0  0
   -0.6476   -5.0700    7.0629 C   0  0  0  0  0  0  0  0  0  0  0  0
   -0.4788   -2.9396    5.8621 N   0  0  0  0  0  0  0  0  0  0  0  0
   -0.0024   -2.0448    4.9656 C   0  0  0  0  0  0  0  0  0  0  0  0
   -0.5749   -0.7431    4.9143 N   0  0  0  0  0  0  0  0  0  0  0  0
   -1.4209   -0.3224    5.9141 N   0  0  0  0  0  0  0  0  0  0  0  0
   -1.7827    0.9259    5.6156 C   0  0  0  0  0  0  0  0  0  0  0  0
   -1.1855    1.2995    4.3855 C   0  0  0  0  0  0  0  0  0  0  0  0
   -1.2596    2.5614    3.6004 C   0  0  0  0  0  0  0  0  0  0  0  0
   -1.9335    3.5225    3.9691 O   0  0  0  0  0  0  0  0  0  0  0  0
   -0.5020    2.5027    2.4864 N   0  0  0  0  0  0  0  0  0  0  0  0
    0.2167    1.3544    2.0928 C   0  0  0  0  0  0  0  0  0  0  0  0
    0.2792    0.2469    2.7793 N   0  0  0  0  0  0  0  0  0  0  0  0
   -0.4426    0.2532    3.9635 C   0  0  0  0  0  0  0  0  0  0  0  0
    1.0562   -2.4581    4.1146 C   0  0  0  0  0  0  0  0  0  0  0  0
   -0.4649    3.3065    1.8489 H   0  0  0  0  0  0  0  0  0  0  0  0
    2.9156   -5.2659    3.4180 H   0  0  0  0  0  0  0  0  0  0  0  0
    3.6232   -3.6538    3.5540 H   0  0  0  0  0  0  0  0  0  0  0  0
    2.4581   -4.0091    2.2651 H   0  0  0  0  0  0  0  0  0  0  0  0
    1.4287   -5.6525    5.2818 H   0  0  0  0  0  0  0  0  0  0  0  0
   -0.1690   -6.0481    7.0983 H   0  0  0  0  0  0  0  0  0  0  0  0
   -1.7078   -5.2094    6.8493 H   0  0  0  0  0  0  0  0  0  0  0  0
   -0.5489   -4.6056    8.0444 H   0  0  0  0  0  0  0  0  0  0  0  0
   -2.4491    1.4764    6.2674 H   0  0  0  0  0  0  0  0  0  0  0  0
    0.7253    1.4739    1.1375 H   0  0  0  0  0  0  0  0  0  0  0  0
    1.4970   -1.7987    3.3815 H   0  0  0  0  0  0  0  0  0  0  0  0
   -1.2374   -2.6230    6.4647 H   0  0  0  0  0  0  0  0  0  0  0  0
  1  2  1  0
  1 20  1  0
  1 21  1  0
  1 22  1  0
  2 18  2  0
  2  3  1  0
  3  4  2  0
  3 23  1  0
  4  5  1  0
  4  6  1  0
  5 24  1  0
  5 25  1  0
  5 26  1  0
  6  7  2  0
  6 30  1  0
  7  8  1  0
  7 18  1  0
  8 17  1  0
  8  9  1  0
  9 10  2  0
 10 11  1  0
 10 27  1  0
 11 17  2  0
 11 12  1  0
 12 13  2  0
 12 14  1  0
 14 19  1  0
 14 15  1  0
 15 16  2  0
 15 28  1  0
 16 17  1  0
 18 29  1  0
M  CHG  1   6   1
M  END
>  <i_m_ct_stereo_status>  (286) 
1

>  <s_m_source_file>  (286) 
/var/tmp/pbs.5076255.sched01/tmpz7l6rxva/92z_h6r8yo.sdf

>  <i_m_source_file_index>  (286) 
27

>  <i_lp_mmshare_version>  (286) 
48012

>  <i_f3d_flags>  (286) 
0

>  <s_epik_input>  (286) 
W0NIM11jMVtjSF1jKFtDSDNdKW5jKFtjSF0xKS1uKG5bY0hdMiljKGMyMyluW2NIXVtuSF1jMz1P

>  <s_epik_cmdline>  (286) 
J2VwaWtfcHl0aG9uJywgJy1waHQnLCAnMi4wJywgJy1waCcsICc3LjAnLCAnLXRuJywgJzgnLCAnLW1hJywgJzIwMCcsICctaW1hZScsICc8aW5maWxlLm1hZT4nLCAnLW9tYWUnLCAnPG91dGZpbGUubWFlPic=

>  <r_epik_Ionization_Penalty>  (286) 
2.50993

>  <r_epik_Ionization_Penalty_Charging>  (286) 
2.50993

>  <r_epik_Ionization_Penalty_Neutral>  (286) 
8.22488e-08

>  <r_epik_State_Penalty>  (286) 
2.66049

>  <r_epik_Charging_Adjusted_Penalty>  (286) 
5.17042

>  <i_epik_Tot_Q>  (286) 
1

>  <i_epik_Tot_abs_Q>  (286) 
1

>  <s_lp_Force_Field>  (286) 
OPLS3e

>  <r_lp_Energy>  (286) 
18.3217

>  <b_lp_Chiralities_Consistent>  (286) 
1

>  <s_lp_Variant>  (286) 
77:0-3

>  <s_i_glide_gridfile>  (286) 
pfpi4k_grid

>  <i_i_glide_lignum>  (286) 
27

>  <i_i_glide_rotatable_bonds>  (286) 
1

>  <r_i_docking_score>  (286) 
-4.26348

>  <r_i_glide_ligand_efficiency>  (286) 
-0.23686

>  <r_i_glide_ligand_efficiency_sa>  (286) 
-0.620749

>  <r_i_glide_ligand_efficiency_ln>  (286) 
-1.09591

>  <r_i_glide_gscore>  (286) 
-4.26348

>  <r_i_glide_lipo>  (286) 
-0.0836532

>  <r_i_glide_hbond>  (286) 
-0.219985

>  <r_i_glide_metal>  (286) 
-0

>  <r_i_glide_rewards>  (286) 
-1.75734

>  <r_i_glide_evdw>  (286) 
-17.3501

>  <r_i_glide_ecoul>  (286) 
-9.261

>  <r_i_glide_erotb>  (286) 
0.295487

>  <r_i_glide_esite>  (286) 
-0.241337

>  <r_i_glide_emodel>  (286) 
-35.7776

>  <r_i_glide_energy>  (286) 
-26.6111

>  <r_i_glide_einternal>  (286) 
0.621793

>  <r_i_glide_intrahb_reward>  (286) 
-0

>  <i_i_glide_confnum>  (286) 
5

>  <i_i_glide_posenum>  (286) 
3

>  <r_i_glide_eff_state_penalty>  (286) 
0

>  <ligand_id>  (286) 
77

>  <original_smiles>  (286) 
Cc1cc(C)nc(-n2ncc3c(=O)[nH]cnc32)c1

>  <smiles>  (286) 
[H]c1c(C([H])([H])[H])c([H])c(C([H])([H])[H])[n+]([H])c1-n1nc([H])c2c(=O)n([H])c([H])nc21

$$$$
77:2:1
     RDKit          3D

 30 32  0  0  1  0  0  0  0  0999 V2000
    0.5302    1.5426   10.6244 C   0  0  0  0  0  0  0  0  0  0  0  0
   -0.0285    1.7192    9.2273 C   0  0  0  0  0  0  0  0  0  0  0  0
   -1.3390    2.2060    9.0360 C   0  0  0  0  0  0  0  0  0  0  0  0
   -1.8229    2.3574    7.7232 C   0  0  0  0  0  0  0  0  0  0  0  0
   -3.2050    2.8898    7.4208 C   0  0  0  0  0  0  0  0  0  0  0  0
   -1.0306    2.0299    6.6828 N   0  0  0  0  0  0  0  0  0  0  0  0
    0.2388    1.5709    6.7977 C   0  0  0  0  0  0  0  0  0  0  0  0
    1.0054    1.2763    5.6361 N   0  0  0  0  0  0  0  0  0  0  0  0
    2.3450    0.9974    5.7043 N   0  0  0  0  0  0  0  0  0  0  0  0
    2.7566    0.7992    4.4480 C   0  0  0  0  0  0  0  0  0  0  0  0
    1.6580    0.9347    3.5677 C   0  0  0  0  0  0  0  0  0  0  0  0
    1.5484    0.8168    2.0949 C   0  0  0  0  0  0  0  0  0  0  0  0
    2.5124    0.5429    1.3842 O   0  0  0  0  0  0  0  0  0  0  0  0
    0.2880    1.0300    1.6620 N   0  0  0  0  0  0  0  0  0  0  0  0
   -0.7905    1.3445    2.5068 C   0  0  0  0  0  0  0  0  0  0  0  0
   -0.6991    1.4425    3.8070 N   0  0  0  0  0  0  0  0  0  0  0  0
    0.5750    1.2312    4.3208 C   0  0  0  0  0  0  0  0  0  0  0  0
    0.7636    1.3997    8.1008 C   0  0  0  0  0  0  0  0  0  0  0  0
    0.1025    0.9492    0.6638 H   0  0  0  0  0  0  0  0  0  0  0  0
   -0.2364    1.7020   11.3817 H   0  0  0  0  0  0  0  0  0  0  0  0
    1.3375    2.2536   10.7973 H   0  0  0  0  0  0  0  0  0  0  0  0
    0.9237    0.5333   10.7471 H   0  0  0  0  0  0  0  0  0  0  0  0
   -1.9578    2.4704    9.8848 H   0  0  0  0  0  0  0  0  0  0  0  0
   -3.7421    3.1467    8.3350 H   0  0  0  0  0  0  0  0  0  0  0  0
   -3.7814    2.1435    6.8841 H   0  0  0  0  0  0  0  0  0  0  0  0
   -3.1326    3.7780    6.7950 H   0  0  0  0  0  0  0  0  0  0  0  0
    3.7980    0.5760    4.2396 H   0  0  0  0  0  0  0  0  0  0  0  0
   -1.7311    1.4948    1.9747 H   0  0  0  0  0  0  0  0  0  0  0  0
    1.7704    1.0315    8.2415 H   0  0  0  0  0  0  0  0  0  0  0  0
   -1.3963    2.1508    5.7357 H   0  0  0  0  0  0  0  0  0  0  0  0
  1  2  1  0
  1 20  1  0
  1 21  1  0
  1 22  1  0
  2 18  2  0
  2  3  1  0
  3  4  2  0
  3 23  1  0
  4  5  1  0
  4  6  1  0
  5 24  1  0
  5 25  1  0
  5 26  1  0
  6  7  2  0
  6 30  1  0
  7  8  1  0
  7 18  1  0
  8 17  1  0
  8  9  1  0
  9 10  2  0
 10 11  1  0
 10 27  1  0
 11 17  2  0
 11 12  1  0
 12 13  2  0
 12 14  1  0
 14 19  1  0
 14 15  1  0
 15 16  2  0
 15 28  1  0
 16 17  1  0
 18 29  1  0
M  CHG  1   6   1
M  END
>  <i_m_ct_stereo_status>  (287) 
1

>  <s_m_source_file>  (287) 
/var/tmp/pbs.5076255.sched01/tmpz7l6rxva/92z_h6r8yo.sdf

>  <i_m_source_file_index>  (287) 
27

>  <i_lp_mmshare_version>  (287) 
48012

>  <i_f3d_flags>  (287) 
0

>  <s_epik_input>  (287) 
W0NIM11jMVtjSF1jKFtDSDNdKW5jKFtjSF0xKS1uKG5bY0hdMiljKGMyMyluW2NIXVtuSF1jMz1P

>  <s_epik_cmdline>  (287) 
J2VwaWtfcHl0aG9uJywgJy1waHQnLCAnMi4wJywgJy1waCcsICc3LjAnLCAnLXRuJywgJzgnLCAnLW1hJywgJzIwMCcsICctaW1hZScsICc8aW5maWxlLm1hZT4nLCAnLW9tYWUnLCAnPG91dGZpbGUubWFlPic=

>  <r_epik_Ionization_Penalty>  (287) 
2.50993

>  <r_epik_Ionization_Penalty_Charging>  (287) 
2.50993

>  <r_epik_Ionization_Penalty_Neutral>  (287) 
8.22488e-08

>  <r_epik_State_Penalty>  (287) 
2.66049

>  <r_epik_Charging_Adjusted_Penalty>  (287) 
5.17042

>  <i_epik_Tot_Q>  (287) 
1

>  <i_epik_Tot_abs_Q>  (287) 
1

>  <s_lp_Force_Field>  (287) 
OPLS3e

>  <r_lp_Energy>  (287) 
18.3217

>  <b_lp_Chiralities_Consistent>  (287) 
1

>  <s_lp_Variant>  (287) 
77:0-3

>  <s_i_glide_gridfile>  (287) 
pfpi4k_grid

>  <i_i_glide_lignum>  (287) 
27

>  <i_i_glide_rotatable_bonds>  (287) 
1

>  <r_i_docking_score>  (287) 
-4.05124

>  <r_i_glide_ligand_efficiency>  (287) 
-0.225069

>  <r_i_glide_ligand_efficiency_sa>  (287) 
-0.589847

>  <r_i_glide_ligand_efficiency_ln>  (287) 
-1.04135

>  <r_i_glide_gscore>  (287) 
-4.05124

>  <r_i_glide_lipo>  (287) 
-0.151327

>  <r_i_glide_hbond>  (287) 
-0.158235

>  <r_i_glide_metal>  (287) 
-0

>  <r_i_glide_rewards>  (287) 
-2.25734

>  <r_i_glide_evdw>  (287) 
-17.3194

>  <r_i_glide_ecoul>  (287) 
-4.95494

>  <r_i_glide_erotb>  (287) 
0.295487

>  <r_i_glide_esite>  (287) 
-0.170609

>  <r_i_glide_emodel>  (287) 
-36.2453

>  <r_i_glide_energy>  (287) 
-22.2743

>  <r_i_glide_einternal>  (287) 
0.0378852

>  <r_i_glide_intrahb_reward>  (287) 
-0.5

>  <i_i_glide_confnum>  (287) 
4

>  <i_i_glide_posenum>  (287) 
4

>  <r_i_glide_eff_state_penalty>  (287) 
0

>  <ligand_id>  (287) 
77

>  <original_smiles>  (287) 
Cc1cc(C)nc(-n2ncc3c(=O)[nH]cnc32)c1

>  <smiles>  (287) 
[H]c1c(C([H])([H])[H])c([H])c(C([H])([H])[H])[n+]([H])c1-n1nc([H])c2c(=O)n([H])c([H])nc21

$$$$
77:2:2
     RDKit          3D

 30 32  0  0  1  0  0  0  0  0999 V2000
    6.5781  -11.0750    1.8793 C   0  0  0  0  0  0  0  0  0  0  0  0
    6.0058   -9.6697    1.8814 C   0  0  0  0  0  0  0  0  0  0  0  0
    6.8505   -8.5395    1.8301 C   0  0  0  0  0  0  0  0  0  0  0  0
    6.2793   -7.2525    1.8263 C   0  0  0  0  0  0  0  0  0  0  0  0
    7.1111   -5.9905    1.7659 C   0  0  0  0  0  0  0  0  0  0  0  0
    4.9369   -7.1204    1.8672 N   0  0  0  0  0  0  0  0  0  0  0  0
    4.0774   -8.1628    1.9150 C   0  0  0  0  0  0  0  0  0  0  0  0
    2.6869   -7.9174    1.9450 N   0  0  0  0  0  0  0  0  0  0  0  0
    2.1719   -6.8370    1.2776 N   0  0  0  0  0  0  0  0  0  0  0  0
    0.8550   -6.8658    1.4805 C   0  0  0  0  0  0  0  0  0  0  0  0
    0.5326   -7.9390    2.3331 C   0  0  0  0  0  0  0  0  0  0  0  0
   -0.7599   -8.3856    2.8956 C   0  0  0  0  0  0  0  0  0  0  0  0
   -1.8172   -7.8010    2.6586 O   0  0  0  0  0  0  0  0  0  0  0  0
   -0.6099   -9.4584    3.6939 N   0  0  0  0  0  0  0  0  0  0  0  0
    0.6268  -10.0847    3.9507 C   0  0  0  0  0  0  0  0  0  0  0  0
    1.7680   -9.6977    3.4499 N   0  0  0  0  0  0  0  0  0  0  0  0
    1.6820   -8.5917    2.6144 C   0  0  0  0  0  0  0  0  0  0  0  0
    4.6074   -9.4736    1.9268 C   0  0  0  0  0  0  0  0  0  0  0  0
   -1.4228   -9.8867    4.1463 H   0  0  0  0  0  0  0  0  0  0  0  0
    7.6574  -11.0733    2.0055 H   0  0  0  0  0  0  0  0  0  0  0  0
    6.3371  -11.5820    0.9440 H   0  0  0  0  0  0  0  0  0  0  0  0
    6.1680  -11.6557    2.7047 H   0  0  0  0  0  0  0  0  0  0  0  0
    7.9247   -8.6483    1.7895 H   0  0  0  0  0  0  0  0  0  0  0  0
    8.1748   -6.2227    1.7032 H   0  0  0  0  0  0  0  0  0  0  0  0
    6.9428   -5.3870    2.6578 H   0  0  0  0  0  0  0  0  0  0  0  0
    6.8355   -5.4011    0.8911 H   0  0  0  0  0  0  0  0  0  0  0  0
    0.2147   -6.1258    1.0230 H   0  0  0  0  0  0  0  0  0  0  0  0
    0.5351  -10.9414    4.6241 H   0  0  0  0  0  0  0  0  0  0  0  0
    3.9575  -10.3388    1.9511 H   0  0  0  0  0  0  0  0  0  0  0  0
    4.5346   -6.1839    1.8614 H   0  0  0  0  0  0  0  0  0  0  0  0
  1  2  1  0
  1 20  1  0
  1 21  1  0
  1 22  1  0
  2 18  2  0
  2  3  1  0
  3  4  2  0
  3 23  1  0
  4  5  1  0
  4  6  1  0
  5 24  1  0
  5 25  1  0
  5 26  1  0
  6  7  2  0
  6 30  1  0
  7  8  1  0
  7 18  1  0
  8 17  1  0
  8  9  1  0
  9 10  2  0
 10 11  1  0
 10 27  1  0
 11 17  2  0
 11 12  1  0
 12 13  2  0
 12 14  1  0
 14 19  1  0
 14 15  1  0
 15 16  2  0
 15 28  1  0
 16 17  1  0
 18 29  1  0
M  CHG  1   6   1
M  END
>  <i_m_ct_stereo_status>  (288) 
1

>  <s_m_source_file>  (288) 
/var/tmp/pbs.5076255.sched01/tmpz7l6rxva/92z_h6r8yo.sdf

>  <i_m_source_file_index>  (288) 
27

>  <i_lp_mmshare_version>  (288) 
48012

>  <i_f3d_flags>  (288) 
0

>  <s_epik_input>  (288) 
W0NIM11jMVtjSF1jKFtDSDNdKW5jKFtjSF0xKS1uKG5bY0hdMiljKGMyMyluW2NIXVtuSF1jMz1P

>  <s_epik_cmdline>  (288) 
J2VwaWtfcHl0aG9uJywgJy1waHQnLCAnMi4wJywgJy1waCcsICc3LjAnLCAnLXRuJywgJzgnLCAnLW1hJywgJzIwMCcsICctaW1hZScsICc8aW5maWxlLm1hZT4nLCAnLW9tYWUnLCAnPG91dGZpbGUubWFlPic=

>  <r_epik_Ionization_Penalty>  (288) 
2.50993

>  <r_epik_Ionization_Penalty_Charging>  (288) 
2.50993

>  <r_epik_Ionization_Penalty_Neutral>  (288) 
8.22488e-08

>  <r_epik_State_Penalty>  (288) 
2.66049

>  <r_epik_Charging_Adjusted_Penalty>  (288) 
5.17042

>  <i_epik_Tot_Q>  (288) 
1

>  <i_epik_Tot_abs_Q>  (288) 
1

>  <s_lp_Force_Field>  (288) 
OPLS3e

>  <r_lp_Energy>  (288) 
18.3217

>  <b_lp_Chiralities_Consistent>  (288) 
1

>  <s_lp_Variant>  (288) 
77:0-3

>  <s_i_glide_gridfile>  (288) 
pfpi4k_grid

>  <i_i_glide_lignum>  (288) 
27

>  <i_i_glide_rotatable_bonds>  (288) 
1

>  <r_i_docking_score>  (288) 
-3.92337

>  <r_i_glide_ligand_efficiency>  (288) 
-0.217965

>  <r_i_glide_ligand_efficiency_sa>  (288) 
-0.57123

>  <r_i_glide_ligand_efficiency_ln>  (288) 
-1.00848

>  <r_i_glide_gscore>  (288) 
-3.92337

>  <r_i_glide_lipo>  (288) 
-0.252213

>  <r_i_glide_hbond>  (288) 
-0.16

>  <r_i_glide_metal>  (288) 
-0

>  <r_i_glide_rewards>  (288) 
-1.75734

>  <r_i_glide_evdw>  (288) 
-22.2144

>  <r_i_glide_ecoul>  (288) 
-5.2925

>  <r_i_glide_erotb>  (288) 
0.295487

>  <r_i_glide_esite>  (288) 
-0.144708

>  <r_i_glide_emodel>  (288) 
-35.7154

>  <r_i_glide_energy>  (288) 
-27.5069

>  <r_i_glide_einternal>  (288) 
0.998084

>  <r_i_glide_intrahb_reward>  (288) 
-0

>  <i_i_glide_confnum>  (288) 
2

>  <i_i_glide_posenum>  (288) 
1

>  <r_i_glide_eff_state_penalty>  (288) 
0

>  <ligand_id>  (288) 
77

>  <original_smiles>  (288) 
Cc1cc(C)nc(-n2ncc3c(=O)[nH]cnc32)c1

>  <smiles>  (288) 
[H]c1c(C([H])([H])[H])c([H])c(C([H])([H])[H])[n+]([H])c1-n1nc([H])c2c(=O)n([H])c([H])nc21

$$$$
78:0:0
     RDKit          3D

 86 91  0  0  1  0  0  0  0  0999 V2000
    2.7733    5.3803    6.0166 C   0  0  0  0  0  0  0  0  0  0  0  0
    1.6280    4.5659    5.3523 C   0  0  2  0  0  0  0  0  0  0  0  0
    0.6682    4.0797    6.4626 C   0  0  0  0  0  0  0  0  0  0  0  0
   -0.7865    3.8126    6.0779 C   0  0  0  0  0  0  0  0  0  0  0  0
   -1.0527    2.8201    4.9348 C   0  0  2  0  0  0  0  0  0  0  0  0
   -2.4708    2.7809    4.8733 O   0  0  0  0  0  0  0  0  0  0  0  0
   -0.4722    1.3851    5.0626 C   0  0  2  0  0  0  0  0  0  0  0  0
   -0.3344    0.8077    6.4775 C   0  0  0  0  0  0  0  0  0  0  0  0
   -1.3841    0.5416    7.0573 O   0  0  0  0  0  0  0  0  0  0  0  0
    0.9728    0.6707    7.3007 C   0  0  0  0  0  0  0  0  0  0  0  0
    2.4813    0.5321    6.8398 C   0  0  2  0  0  0  0  0  0  0  0  0
    3.1263    0.6494    8.2765 C   0  0  0  0  0  0  0  0  0  0  0  0
    3.1909    1.8447    6.2428 C   0  0  0  0  0  0  0  0  0  0  0  0
    3.1995    2.4815    4.8111 C   0  0  0  0  0  0  0  0  0  0  0  0
    2.1169    3.4992    4.2823 C   0  0  2  0  0  0  0  0  0  0  0  0
    2.8596    4.3657    3.2067 C   0  0  0  0  0  0  0  0  0  0  0  0
    0.9580    2.6940    3.5408 C   0  0  1  0  0  0  0  0  0  0  0  0
    1.3006    2.5098    2.1647 O   0  0  0  0  0  0  0  0  0  0  0  0
    0.7364    1.3299    4.1759 C   0  0  0  0  0  0  0  0  0  0  0  0
    1.3509    0.1970    3.7816 C   0  0  0  0  0  0  0  0  0  0  0  0
    1.1201   -1.1179    4.3286 C   0  0  0  0  0  0  0  0  0  0  0  0
    1.7702   -1.6617    5.3851 C   0  0  0  0  0  0  0  0  0  0  0  0
    1.5790   -3.1641    5.7169 C   0  0  2  0  0  0  0  0  0  0  0  0
    0.7245   -4.0296    4.7408 C   0  0  0  0  0  0  0  0  0  0  0  0
    0.8469   -5.5511    5.0193 C   0  0  0  0  0  0  0  0  0  0  0  0
   -0.1501   -6.3222    4.1336 C   0  0  0  0  0  0  0  0  0  0  0  0
    2.2673   -6.0728    4.6682 C   0  0  0  0  0  0  0  0  0  0  0  0
    0.5058   -5.8178    6.5019 C   0  0  0  0  0  0  0  0  0  0  0  0
    1.3465   -4.9651    7.4755 C   0  0  0  0  0  0  0  0  0  0  0  0
    1.2452   -3.4354    7.2183 C   0  0  2  0  0  0  0  0  0  0  0  0
   -0.1845   -2.9546    7.6165 C   0  0  0  0  0  0  0  0  0  0  0  0
   -0.9527   -2.4995    6.7451 O   0  0  0  0  0  0  0  0  0  0  0  0
   -0.5225   -3.0495    8.8169 O   0  0  0  0  0  0  0  0  0  0  0  0
    2.2768   -2.6884    8.1143 C   0  0  0  0  0  0  0  0  0  0  0  0
    3.3807   -1.9580    7.3198 C   0  0  0  0  0  0  0  0  0  0  0  0
    2.8849   -0.9306    6.2171 C   0  0  2  0  0  0  0  0  0  0  0  0
    4.1357   -0.8252    5.3028 C   0  0  0  0  0  0  0  0  0  0  0  0
   -0.4528    3.3468    3.6196 C   0  0  1  0  0  0  0  0  0  0  0  0
   -1.2880    2.8990    2.5646 O   0  0  0  0  0  0  0  0  0  0  0  0
    3.5493    4.7500    6.4476 H   0  0  0  0  0  0  0  0  0  0  0  0
    2.3995    6.0193    6.8202 H   0  0  0  0  0  0  0  0  0  0  0  0
    3.2531    6.0697    5.3216 H   0  0  0  0  0  0  0  0  0  0  0  0
    1.0682    5.3319    4.8143 H   0  0  0  0  0  0  0  0  0  0  0  0
    1.0641    3.2370    6.9954 H   0  0  0  0  0  0  0  0  0  0  0  0
    0.6049    4.8541    7.2253 H   0  0  0  0  0  0  0  0  0  0  0  0
   -1.3167    3.4800    6.9736 H   0  0  0  0  0  0  0  0  0  0  0  0
   -1.2471    4.7643    5.8138 H   0  0  0  0  0  0  0  0  0  0  0  0
   -2.6990    2.2602    4.1107 H   0  0  0  0  0  0  0  0  0  0  0  0
   -1.1648    0.7121    4.5478 H   0  0  0  0  0  0  0  0  0  0  0  0
    0.9002    1.4766    8.0299 H   0  0  0  0  0  0  0  0  0  0  0  0
    0.7794   -0.2145    7.9031 H   0  0  0  0  0  0  0  0  0  0  0  0
    4.2165    0.5661    8.2712 H   0  0  0  0  0  0  0  0  0  0  0  0
    2.7465   -0.0749    8.9961 H   0  0  0  0  0  0  0  0  0  0  0  0
    2.9142    1.6083    8.7537 H   0  0  0  0  0  0  0  0  0  0  0  0
    3.0342    2.6692    6.9296 H   0  0  0  0  0  0  0  0  0  0  0  0
    4.2565    1.6582    6.3828 H   0  0  0  0  0  0  0  0  0  0  0  0
    4.1266    3.0540    4.8265 H   0  0  0  0  0  0  0  0  0  0  0  0
    3.4263    1.7537    4.0412 H   0  0  0  0  0  0  0  0  0  0  0  0
    3.3297    3.7547    2.4336 H   0  0  0  0  0  0  0  0  0  0  0  0
    3.6945    4.9336    3.6128 H   0  0  0  0  0  0  0  0  0  0  0  0
    2.1903    5.0732    2.7110 H   0  0  0  0  0  0  0  0  0  0  0  0
    0.9018    3.2093    1.6415 H   0  0  0  0  0  0  0  0  0  0  0  0
    2.1060    0.2742    3.0099 H   0  0  0  0  0  0  0  0  0  0  0  0
    0.4072   -1.7151    3.7859 H   0  0  0  0  0  0  0  0  0  0  0  0
    2.5741   -3.5549    5.5313 H   0  0  0  0  0  0  0  0  0  0  0  0
   -0.3234   -3.7481    4.8070 H   0  0  0  0  0  0  0  0  0  0  0  0
    1.0132   -3.8405    3.7064 H   0  0  0  0  0  0  0  0  0  0  0  0
   -0.0956   -7.3975    4.3065 H   0  0  0  0  0  0  0  0  0  0  0  0
    0.0446   -6.1457    3.0768 H   0  0  0  0  0  0  0  0  0  0  0  0
   -1.1719   -6.0177    4.3487 H   0  0  0  0  0  0  0  0  0  0  0  0
    2.3324   -7.1588    4.7834 H   0  0  0  0  0  0  0  0  0  0  0  0
    3.0440   -5.6456    5.3042 H   0  0  0  0  0  0  0  0  0  0  0  0
    2.5309   -5.8290    3.6350 H   0  0  0  0  0  0  0  0  0  0  0  0
   -0.5492   -5.6006    6.6686 H   0  0  0  0  0  0  0  0  0  0  0  0
    0.6291   -6.8753    6.7310 H   0  0  0  0  0  0  0  0  0  0  0  0
    1.0471   -5.2012    8.4961 H   0  0  0  0  0  0  0  0  0  0  0  0
    2.3906   -5.2763    7.4146 H   0  0  0  0  0  0  0  0  0  0  0  0
    1.7860   -1.9828    8.7799 H   0  0  0  0  0  0  0  0  0  0  0  0
    2.7621   -3.3934    8.7925 H   0  0  0  0  0  0  0  0  0  0  0  0
    4.1301   -1.5581    7.9972 H   0  0  0  0  0  0  0  0  0  0  0  0
    3.9742   -2.7479    6.8569 H   0  0  0  0  0  0  0  0  0  0  0  0
    5.0006   -0.4179    5.8274 H   0  0  0  0  0  0  0  0  0  0  0  0
    3.9699   -0.2340    4.4105 H   0  0  0  0  0  0  0  0  0  0  0  0
    4.4343   -1.8058    4.9300 H   0  0  0  0  0  0  0  0  0  0  0  0
   -0.4490    4.4343    3.5438 H   0  0  0  0  0  0  0  0  0  0  0  0
   -0.9672    3.3291    1.7784 H   0  0  0  0  0  0  0  0  0  0  0  0
  1  2  1  0
  1 40  1  0
  1 41  1  0
  1 42  1  0
  2 15  1  0
  2  3  1  0
  2 43  1  6
  3  4  1  0
  3 44  1  0
  3 45  1  0
  4  5  1  0
  4 46  1  0
  4 47  1  0
  5 38  1  0
  5  6  1  6
  5  7  1  0
  6 48  1  0
  7 19  1  0
  7  8  1  0
  7 49  1  6
  8  9  2  0
  8 10  1  0
 10 11  1  0
 10 50  1  0
 10 51  1  0
 11 36  1  0
 11 12  1  1
 11 13  1  0
 12 52  1  0
 12 53  1  0
 12 54  1  0
 13 14  1  0
 13 55  1  0
 13 56  1  0
 14 15  1  0
 14 57  1  0
 14 58  1  0
 15 16  1  6
 15 17  1  0
 16 59  1  0
 16 60  1  0
 16 61  1  0
 17 18  1  6
 17 19  1  0
 17 38  1  0
 18 62  1  0
 19 20  2  3
 20 21  1  0
 20 63  1  0
 21 22  2  3
 21 64  1  0
 22 36  1  0
 22 23  1  0
 23 30  1  0
 23 24  1  0
 23 65  1  1
 24 25  1  0
 24 66  1  0
 24 67  1  0
 25 26  1  0
 25 27  1  0
 25 28  1  0
 26 68  1  0
 26 69  1  0
 26 70  1  0
 27 71  1  0
 27 72  1  0
 27 73  1  0
 28 29  1  0
 28 74  1  0
 28 75  1  0
 29 30  1  0
 29 76  1  0
 29 77  1  0
 30 31  1  1
 30 34  1  0
 31 32  2  0
 31 33  1  0
 34 35  1  0
 34 78  1  0
 34 79  1  0
 35 36  1  0
 35 80  1  0
 35 81  1  0
 36 37  1  6
 37 82  1  0
 37 83  1  0
 37 84  1  0
 38 39  1  0
 38 85  1  1
 39 86  1  0
M  CHG  1  33  -1
M  END
>  <i_m_ct_stereo_status>  (289) 
1

>  <s_m_source_file>  (289) 
/var/tmp/pbs.5076255.sched01/tmpz7l6rxva/92z_h6r8yo.sdf

>  <i_m_source_file_index>  (289) 
28

>  <i_lp_mmshare_version>  (289) 
48012

>  <i_f3d_flags>  (289) 
0

>  <s_epik_input>  (289) 
W09IXVtDQF0xMltDQEhdMy9DPTRbQ0BAXShbT0hdKShbQ0BIXTJbT0hdKVtDQEBdKFtDSDNdKShbQ0BIXShbQ0gzXSlbQ0gyXVtDSDJdMSlbQ0gyXVtDSDJdW0NAQF0oW0NIM10pKFtDSDJdQzM9TylbQ0BdNShbQ0gzXSlDKD1bQ0hdL1tDSF00KVxbQ0BIXTZbQ0BdKEMoPU8pW09IXSkoW0NIMl1bQ0gyXTUpW0NIMl1bQ0gyXUMoW0NIMl02KShbQ0gzXSlbQ0gzXQ==

>  <s_epik_cmdline>  (289) 
J2VwaWtfcHl0aG9uJywgJy1waHQnLCAnMi4wJywgJy1waCcsICc3LjAnLCAnLXRuJywgJzgnLCAnLW1hJywgJzIwMCcsICctaW1hZScsICc8aW5maWxlLm1hZT4nLCAnLW9tYWUnLCAnPG91dGZpbGUubWFlPic=

>  <r_epik_Ionization_Penalty>  (289) 
0.00589253

>  <r_epik_Ionization_Penalty_Charging>  (289) 
0.00589237

>  <r_epik_Ionization_Penalty_Neutral>  (289) 
1.52714e-07

>  <r_epik_State_Penalty>  (289) 
0.00433199

>  <r_epik_Charging_Adjusted_Penalty>  (289) 
0.0102244

>  <i_epik_Tot_Q>  (289) 
-1

>  <i_epik_Tot_abs_Q>  (289) 
1

>  <s_lp_Force_Field>  (289) 
OPLS3e

>  <r_lp_Energy>  (289) 
166.589

>  <b_lp_Chiralities_Consistent>  (289) 
1

>  <s_lp_Variant>  (289) 
78:0-1

>  <s_i_glide_gridfile>  (289) 
pfpi4k_grid

>  <i_i_glide_lignum>  (289) 
28

>  <i_i_glide_rotatable_bonds>  (289) 
4

>  <r_i_docking_score>  (289) 
-3.73038

>  <r_i_glide_ligand_efficiency>  (289) 
-0.0956507

>  <r_i_glide_ligand_efficiency_sa>  (289) 
-0.324372

>  <r_i_glide_ligand_efficiency_ln>  (289) 
-0.799899

>  <r_i_glide_gscore>  (289) 
-3.73038

>  <r_i_glide_lipo>  (289) 
-0.0119467

>  <r_i_glide_hbond>  (289) 
-0.352858

>  <r_i_glide_metal>  (289) 
-0

>  <r_i_glide_rewards>  (289) 
0

>  <r_i_glide_evdw>  (289) 
-21.1895

>  <r_i_glide_ecoul>  (289) 
-14.8799

>  <r_i_glide_erotb>  (289) 
0

>  <r_i_glide_esite>  (289) 
-0.0741185

>  <r_i_glide_emodel>  (289) 
-48.5718

>  <r_i_glide_energy>  (289) 
-36.0693

>  <r_i_glide_einternal>  (289) 
1.47969

>  <r_i_glide_intrahb_reward>  (289) 
-0

>  <i_i_glide_confnum>  (289) 
1

>  <i_i_glide_posenum>  (289) 
36

>  <r_i_glide_eff_state_penalty>  (289) 
0

>  <ligand_id>  (289) 
78

>  <original_smiles>  (289) 
CC1CCC2(O)C3C(=O)CC4(C)CCC1(C)C(O)(C3=CC=C1C3CC(C)(C)CCC3(C(=O)O)CCC14C)C2O

>  <smiles>  (289) 
[H]OC1([H])C2(O[H])C3=C([H])C([H])=C4C5([H])C([H])([H])C(C([H])([H])[H])(C([H])([H])[H])C([H])([H])C([H])([H])C5(C(=O)[O-])C([H])([H])C([H])([H])C4(C([H])([H])[H])C4(C([H])([H])[H])C([H])([H])C(=O)C3([H])C1(O[H])C([H])([H])C([H])([H])C([H])(C([H])([H])[H])C2(C([H])([H])[H])C([H])([H])C4([H])[H]

$$$$
78:0:1
     RDKit          3D

 86 91  0  0  1  0  0  0  0  0999 V2000
    8.5046   -2.3444    0.3961 C   0  0  0  0  0  0  0  0  0  0  0  0
    6.9707   -2.1243    0.2393 C   0  0  2  0  0  0  0  0  0  0  0  0
    6.3510   -1.6390    1.5649 C   0  0  0  0  0  0  0  0  0  0  0  0
    5.0856   -0.7883    1.4952 C   0  0  0  0  0  0  0  0  0  0  0  0
    3.8634   -1.3698    0.7565 C   0  0  2  0  0  0  0  0  0  0  0  0
    2.8961   -0.3562    0.9297 O   0  0  0  0  0  0  0  0  0  0  0  0
    3.3418   -2.7458    1.2642 C   0  0  2  0  0  0  0  0  0  0  0  0
    3.5176   -3.1104    2.7533 C   0  0  0  0  0  0  0  0  0  0  0  0
    2.8285   -2.4859    3.5547 O   0  0  0  0  0  0  0  0  0  0  0  0
    4.5773   -4.0701    3.3652 C   0  0  0  0  0  0  0  0  0  0  0  0
    5.3164   -5.3270    2.7513 C   0  0  2  0  0  0  0  0  0  0  0  0
    6.2556   -5.6204    3.9773 C   0  0  0  0  0  0  0  0  0  0  0  0
    6.4752   -5.0148    1.6835 C   0  0  0  0  0  0  0  0  0  0  0  0
    6.4354   -4.7140    0.1459 C   0  0  0  0  0  0  0  0  0  0  0  0
    6.2209   -3.2934   -0.5023 C   0  0  2  0  0  0  0  0  0  0  0  0
    6.9264   -3.3182   -1.8983 C   0  0  0  0  0  0  0  0  0  0  0  0
    4.6767   -3.0707   -0.7754 C   0  0  1  0  0  0  0  0  0  0  0  0
    4.3503   -3.5969   -2.0601 O   0  0  0  0  0  0  0  0  0  0  0  0
    3.8319   -3.7528    0.2807 C   0  0  0  0  0  0  0  0  0  0  0  0
    3.3538   -5.0089    0.1633 C   0  0  0  0  0  0  0  0  0  0  0  0
    2.4892   -5.6806    1.1013 C   0  0  0  0  0  0  0  0  0  0  0  0
    2.8950   -6.4144    2.1644 C   0  0  0  0  0  0  0  0  0  0  0  0
    1.8718   -7.2524    2.9668 C   0  0  2  0  0  0  0  0  0  0  0  0
    0.4066   -7.3002    2.4492 C   0  0  0  0  0  0  0  0  0  0  0  0
   -0.4366   -8.3769    3.1725 C   0  0  0  0  0  0  0  0  0  0  0  0
   -1.9023   -8.2606    2.7375 C   0  0  0  0  0  0  0  0  0  0  0  0
    0.0336   -9.8131    2.8017 C   0  0  0  0  0  0  0  0  0  0  0  0
   -0.3588   -8.1673    4.6912 C   0  0  0  0  0  0  0  0  0  0  0  0
    1.0907   -8.1215    5.2059 C   0  0  0  0  0  0  0  0  0  0  0  0
    1.9587   -7.0419    4.5126 C   0  0  2  0  0  0  0  0  0  0  0  0
    1.4644   -5.6369    4.9634 C   0  0  0  0  0  0  0  0  0  0  0  0
    1.4927   -5.4012    6.1976 O   0  0  0  0  0  0  0  0  0  0  0  0
    1.0411   -4.8357    4.1122 O   0  0  0  0  0  0  0  0  0  0  0  0
    3.4381   -7.2023    4.9601 C   0  0  0  0  0  0  0  0  0  0  0  0
    4.3925   -7.6075    3.8161 C   0  0  0  0  0  0  0  0  0  0  0  0
    4.3942   -6.6598    2.5444 C   0  0  2  0  0  0  0  0  0  0  0  0
    5.0031   -7.5912    1.4606 C   0  0  0  0  0  0  0  0  0  0  0  0
    4.2155   -1.5940   -0.7381 C   0  0  1  0  0  0  0  0  0  0  0  0
    3.0750   -1.4479   -1.6075 O   0  0  0  0  0  0  0  0  0  0  0  0
    8.7497   -3.2781    0.9018 H   0  0  0  0  0  0  0  0  0  0  0  0
    8.9638   -1.5183    0.9434 H   0  0  0  0  0  0  0  0  0  0  0  0
    9.0463   -2.3267   -0.5491 H   0  0  0  0  0  0  0  0  0  0  0  0
    6.9325   -1.2511   -0.4007 H   0  0  0  0  0  0  0  0  0  0  0  0
    6.2251   -2.4425    2.2661 H   0  0  0  0  0  0  0  0  0  0  0  0
    7.0757   -0.9834    2.0443 H   0  0  0  0  0  0  0  0  0  0  0  0
    4.8246   -0.5258    2.5280 H   0  0  0  0  0  0  0  0  0  0  0  0
    5.3522    0.1619    1.0332 H   0  0  0  0  0  0  0  0  0  0  0  0
    2.0841   -0.5922    0.4939 H   0  0  0  0  0  0  0  0  0  0  0  0
    2.2632   -2.7543    1.0948 H   0  0  0  0  0  0  0  0  0  0  0  0
    5.3144   -3.4022    3.8101 H   0  0  0  0  0  0  0  0  0  0  0  0
    4.0493   -4.4601    4.2319 H   0  0  0  0  0  0  0  0  0  0  0  0
    6.9508   -6.4481    3.8062 H   0  0  0  0  0  0  0  0  0  0  0  0
    5.7359   -5.7785    4.9176 H   0  0  0  0  0  0  0  0  0  0  0  0
    6.8636   -4.7854    4.2699 H   0  0  0  0  0  0  0  0  0  0  0  0
    7.1502   -4.2741    2.0903 H   0  0  0  0  0  0  0  0  0  0  0  0
    7.1055   -5.9048    1.7030 H   0  0  0  0  0  0  0  0  0  0  0  0
    7.4544   -4.9944   -0.1363 H   0  0  0  0  0  0  0  0  0  0  0  0
    5.8458   -5.4537   -0.3799 H   0  0  0  0  0  0  0  0  0  0  0  0
    6.5139   -4.0729   -2.5687 H   0  0  0  0  0  0  0  0  0  0  0  0
    7.9913   -3.5658   -1.8512 H   0  0  0  0  0  0  0  0  0  0  0  0
    6.8214   -2.3839   -2.4425 H   0  0  0  0  0  0  0  0  0  0  0  0
    3.5525   -4.0967   -2.0053 H   0  0  0  0  0  0  0  0  0  0  0  0
    3.6851   -5.5934   -0.6828 H   0  0  0  0  0  0  0  0  0  0  0  0
    1.4373   -5.6233    0.8862 H   0  0  0  0  0  0  0  0  0  0  0  0
    2.2054   -8.2626    2.7557 H   0  0  0  0  0  0  0  0  0  0  0  0
   -0.0661   -6.3321    2.5869 H   0  0  0  0  0  0  0  0  0  0  0  0
    0.3806   -7.5001    1.3798 H   0  0  0  0  0  0  0  0  0  0  0  0
   -2.5301   -9.0077    3.2245 H   0  0  0  0  0  0  0  0  0  0  0  0
   -1.9953   -8.4124    1.6695 H   0  0  0  0  0  0  0  0  0  0  0  0
   -2.3038   -7.2759    2.9785 H   0  0  0  0  0  0  0  0  0  0  0  0
   -0.6045  -10.5762    3.2477 H   0  0  0  0  0  0  0  0  0  0  0  0
    1.0471  -10.0318    3.1349 H   0  0  0  0  0  0  0  0  0  0  0  0
    0.0205   -9.9678    1.7241 H   0  0  0  0  0  0  0  0  0  0  0  0
   -0.8604   -7.2323    4.9415 H   0  0  0  0  0  0  0  0  0  0  0  0
   -0.9130   -8.9530    5.2033 H   0  0  0  0  0  0  0  0  0  0  0  0
    1.0645   -7.9564    6.2821 H   0  0  0  0  0  0  0  0  0  0  0  0
    1.5560   -9.1017    5.0866 H   0  0  0  0  0  0  0  0  0  0  0  0
    3.7960   -6.2950    5.4408 H   0  0  0  0  0  0  0  0  0  0  0  0
    3.5093   -7.9658    5.7366 H   0  0  0  0  0  0  0  0  0  0  0  0
    5.3775   -7.8316    4.2150 H   0  0  0  0  0  0  0  0  0  0  0  0
    4.1047   -8.6184    3.5311 H   0  0  0  0  0  0  0  0  0  0  0  0
    6.0208   -7.8960    1.7003 H   0  0  0  0  0  0  0  0  0  0  0  0
    4.9964   -7.1643    0.4654 H   0  0  0  0  0  0  0  0  0  0  0  0
    4.4193   -8.5088    1.3679 H   0  0  0  0  0  0  0  0  0  0  0  0
    4.9623   -0.8927   -1.0849 H   0  0  0  0  0  0  0  0  0  0  0  0
    2.2643   -1.3783   -1.1406 H   0  0  0  0  0  0  0  0  0  0  0  0
  1  2  1  0
  1 40  1  0
  1 41  1  0
  1 42  1  0
  2 15  1  0
  2  3  1  0
  2 43  1  6
  3  4  1  0
  3 44  1  0
  3 45  1  0
  4  5  1  0
  4 46  1  0
  4 47  1  0
  5 38  1  0
  5  6  1  6
  5  7  1  0
  6 48  1  0
  7 19  1  0
  7  8  1  0
  7 49  1  6
  8  9  2  0
  8 10  1  0
 10 11  1  0
 10 50  1  0
 10 51  1  0
 11 36  1  0
 11 12  1  1
 11 13  1  0
 12 52  1  0
 12 53  1  0
 12 54  1  0
 13 14  1  0
 13 55  1  0
 13 56  1  0
 14 15  1  0
 14 57  1  0
 14 58  1  0
 15 16  1  6
 15 17  1  0
 16 59  1  0
 16 60  1  0
 16 61  1  0
 17 18  1  6
 17 19  1  0
 17 38  1  0
 18 62  1  0
 19 20  2  3
 20 21  1  0
 20 63  1  0
 21 22  2  3
 21 64  1  0
 22 36  1  0
 22 23  1  0
 23 30  1  0
 23 24  1  0
 23 65  1  1
 24 25  1  0
 24 66  1  0
 24 67  1  0
 25 26  1  0
 25 27  1  0
 25 28  1  0
 26 68  1  0
 26 69  1  0
 26 70  1  0
 27 71  1  0
 27 72  1  0
 27 73  1  0
 28 29  1  0
 28 74  1  0
 28 75  1  0
 29 30  1  0
 29 76  1  0
 29 77  1  0
 30 31  1  6
 30 34  1  0
 31 32  2  0
 31 33  1  0
 34 35  1  0
 34 78  1  0
 34 79  1  0
 35 36  1  0
 35 80  1  0
 35 81  1  0
 36 37  1  6
 37 82  1  0
 37 83  1  0
 37 84  1  0
 38 39  1  0
 38 85  1  6
 39 86  1  0
M  CHG  1  33  -1
M  END
>  <i_m_ct_stereo_status>  (290) 
1

>  <s_m_source_file>  (290) 
/var/tmp/pbs.5076255.sched01/tmpz7l6rxva/92z_h6r8yo.sdf

>  <i_m_source_file_index>  (290) 
28

>  <i_lp_mmshare_version>  (290) 
48012

>  <i_f3d_flags>  (290) 
0

>  <s_epik_input>  (290) 
W09IXVtDQF0xMltDQEhdMy9DPTRbQ0BAXShbT0hdKShbQ0BIXTJbT0hdKVtDQEBdKFtDSDNdKShbQ0BIXShbQ0gzXSlbQ0gyXVtDSDJdMSlbQ0gyXVtDSDJdW0NAQF0oW0NIM10pKFtDSDJdQzM9TylbQ0BdNShbQ0gzXSlDKD1bQ0hdL1tDSF00KVxbQ0BIXTZbQ0BdKEMoPU8pW09IXSkoW0NIMl1bQ0gyXTUpW0NIMl1bQ0gyXUMoW0NIMl02KShbQ0gzXSlbQ0gzXQ==

>  <s_epik_cmdline>  (290) 
J2VwaWtfcHl0aG9uJywgJy1waHQnLCAnMi4wJywgJy1waCcsICc3LjAnLCAnLXRuJywgJzgnLCAnLW1hJywgJzIwMCcsICctaW1hZScsICc8aW5maWxlLm1hZT4nLCAnLW9tYWUnLCAnPG91dGZpbGUubWFlPic=

>  <r_epik_Ionization_Penalty>  (290) 
0.00589253

>  <r_epik_Ionization_Penalty_Charging>  (290) 
0.00589237

>  <r_epik_Ionization_Penalty_Neutral>  (290) 
1.52714e-07

>  <r_epik_State_Penalty>  (290) 
0.00433199

>  <r_epik_Charging_Adjusted_Penalty>  (290) 
0.0102244

>  <i_epik_Tot_Q>  (290) 
-1

>  <i_epik_Tot_abs_Q>  (290) 
1

>  <s_lp_Force_Field>  (290) 
OPLS3e

>  <r_lp_Energy>  (290) 
166.589

>  <b_lp_Chiralities_Consistent>  (290) 
1

>  <s_lp_Variant>  (290) 
78:0-1

>  <s_i_glide_gridfile>  (290) 
pfpi4k_grid

>  <i_i_glide_lignum>  (290) 
28

>  <i_i_glide_rotatable_bonds>  (290) 
4

>  <r_i_docking_score>  (290) 
-3.23654

>  <r_i_glide_ligand_efficiency>  (290) 
-0.0829883

>  <r_i_glide_ligand_efficiency_sa>  (290) 
-0.281431

>  <r_i_glide_ligand_efficiency_ln>  (290) 
-0.694007

>  <r_i_glide_gscore>  (290) 
-3.23654

>  <r_i_glide_lipo>  (290) 
-0.80222

>  <r_i_glide_hbond>  (290) 
0

>  <r_i_glide_metal>  (290) 
-0

>  <r_i_glide_rewards>  (290) 
-0.000727509

>  <r_i_glide_evdw>  (290) 
-28.6594

>  <r_i_glide_ecoul>  (290) 
-6.66032

>  <r_i_glide_erotb>  (290) 
0

>  <r_i_glide_esite>  (290) 
-0.00157734

>  <r_i_glide_emodel>  (290) 
-44.8641

>  <r_i_glide_energy>  (290) 
-35.3197

>  <r_i_glide_einternal>  (290) 
1.90801

>  <r_i_glide_intrahb_reward>  (290) 
-0

>  <i_i_glide_confnum>  (290) 
1

>  <i_i_glide_posenum>  (290) 
3

>  <r_i_glide_eff_state_penalty>  (290) 
0

>  <ligand_id>  (290) 
78

>  <original_smiles>  (290) 
CC1CCC2(O)C3C(=O)CC4(C)CCC1(C)C(O)(C3=CC=C1C3CC(C)(C)CCC3(C(=O)O)CCC14C)C2O

>  <smiles>  (290) 
[H]OC1([H])C2(O[H])C3=C([H])C([H])=C4C5([H])C([H])([H])C(C([H])([H])[H])(C([H])([H])[H])C([H])([H])C([H])([H])C5(C(=O)[O-])C([H])([H])C([H])([H])C4(C([H])([H])[H])C4(C([H])([H])[H])C([H])([H])C(=O)C3([H])C1(O[H])C([H])([H])C([H])([H])C([H])(C([H])([H])[H])C2(C([H])([H])[H])C([H])([H])C4([H])[H]

$$$$
78:0:2
     RDKit          3D

 86 91  0  0  1  0  0  0  0  0999 V2000
    3.9424    1.9235    6.6788 C   0  0  0  0  0  0  0  0  0  0  0  0
    2.5861    1.3970    6.1315 C   0  0  2  0  0  0  0  0  0  0  0  0
    1.8007    0.7569    7.2990 C   0  0  0  0  0  0  0  0  0  0  0  0
    0.2725    0.7280    7.2062 C   0  0  0  0  0  0  0  0  0  0  0  0
   -0.3517    0.0622    5.9683 C   0  0  2  0  0  0  0  0  0  0  0  0
   -1.7551    0.1382    6.1931 O   0  0  0  0  0  0  0  0  0  0  0  0
    0.0396   -1.4123    5.6585 C   0  0  2  0  0  0  0  0  0  0  0  0
    0.3745   -2.3355    6.8413 C   0  0  0  0  0  0  0  0  0  0  0  0
   -0.5686   -2.6629    7.5569 O   0  0  0  0  0  0  0  0  0  0  0  0
    1.7878   -2.7623    7.3073 C   0  0  0  0  0  0  0  0  0  0  0  0
    3.1381   -2.9292    6.4989 C   0  0  2  0  0  0  0  0  0  0  0  0
    4.0619   -3.2180    7.7447 C   0  0  0  0  0  0  0  0  0  0  0  0
    3.8968   -1.5862    6.0507 C   0  0  0  0  0  0  0  0  0  0  0  0
    3.7109   -0.6342    4.8227 C   0  0  0  0  0  0  0  0  0  0  0  0
    2.6917    0.5689    4.7797 C   0  0  2  0  0  0  0  0  0  0  0  0
    3.3154    1.5865    3.7690 C   0  0  0  0  0  0  0  0  0  0  0  0
    1.3027    0.0778    4.1733 C   0  0  1  0  0  0  0  0  0  0  0  0
    1.2906    0.2108    2.7526 O   0  0  0  0  0  0  0  0  0  0  0  0
    1.0263   -1.3718    4.5347 C   0  0  0  0  0  0  0  0  0  0  0  0
    1.3921   -2.4236    3.7823 C   0  0  0  0  0  0  0  0  0  0  0  0
    1.0951   -3.8015    4.0799 C   0  0  0  0  0  0  0  0  0  0  0  0
    1.8518   -4.6394    4.8163 C   0  0  0  0  0  0  0  0  0  0  0  0
    1.5107   -6.1524    4.8544 C   0  0  2  0  0  0  0  0  0  0  0  0
    0.3620   -6.6699    3.9373 C   0  0  0  0  0  0  0  0  0  0  0  0
    0.3216   -8.2174    3.8379 C   0  0  0  0  0  0  0  0  0  0  0  0
   -0.9352   -8.6499    3.0543 C   0  0  0  0  0  0  0  0  0  0  0  0
    1.5547   -8.7754    3.0727 C   0  0  0  0  0  0  0  0  0  0  0  0
    0.2528   -8.8052    5.2641 C   0  0  0  0  0  0  0  0  0  0  0  0
    1.3831   -8.2960    6.1863 C   0  0  0  0  0  0  0  0  0  0  0  0
    1.4465   -6.7459    6.2997 C   0  0  2  0  0  0  0  0  0  0  0  0
    0.2137   -6.2519    7.1119 C   0  0  0  0  0  0  0  0  0  0  0  0
    0.0530   -6.7119    8.2665 O   0  0  0  0  0  0  0  0  0  0  0  0
   -0.5767   -5.4355    6.5836 O   0  0  0  0  0  0  0  0  0  0  0  0
    2.7296   -6.3272    7.0765 C   0  0  0  0  0  0  0  0  0  0  0  0
    3.7482   -5.5351    6.2269 C   0  0  0  0  0  0  0  0  0  0  0  0
    3.2005   -4.2334    5.5083 C   0  0  2  0  0  0  0  0  0  0  0  0
    4.2467   -4.0300    4.3808 C   0  0  0  0  0  0  0  0  0  0  0  0
    0.0516    0.8359    4.6978 C   0  0  1  0  0  0  0  0  0  0  0  0
   -1.0275    0.7333    3.7803 O   0  0  0  0  0  0  0  0  0  0  0  0
    4.6907    1.1398    6.7825 H   0  0  0  0  0  0  0  0  0  0  0  0
    3.8265    2.3864    7.6627 H   0  0  0  0  0  0  0  0  0  0  0  0
    4.3684    2.7111    6.0558 H   0  0  0  0  0  0  0  0  0  0  0  0
    2.0482    2.3189    5.9086 H   0  0  0  0  0  0  0  0  0  0  0  0
    2.1711   -0.2205    7.5377 H   0  0  0  0  0  0  0  0  0  0  0  0
    2.0006    1.3310    8.2014 H   0  0  0  0  0  0  0  0  0  0  0  0
   -0.1110    0.2412    8.1080 H   0  0  0  0  0  0  0  0  0  0  0  0
   -0.0896    1.7558    7.2591 H   0  0  0  0  0  0  0  0  0  0  0  0
   -2.1524    0.1117    5.3250 H   0  0  0  0  0  0  0  0  0  0  0  0
   -0.8259   -1.8756    5.1728 H   0  0  0  0  0  0  0  0  0  0  0  0
    1.9753   -2.1477    8.1871 H   0  0  0  0  0  0  0  0  0  0  0  0
    1.6010   -3.7451    7.7308 H   0  0  0  0  0  0  0  0  0  0  0  0
    5.1070   -3.4002    7.4782 H   0  0  0  0  0  0  0  0  0  0  0  0
    3.7281   -4.0556    8.3586 H   0  0  0  0  0  0  0  0  0  0  0  0
    4.0836   -2.3841    8.4502 H   0  0  0  0  0  0  0  0  0  0  0  0
    3.9921   -0.9367    6.9142 H   0  0  0  0  0  0  0  0  0  0  0  0
    4.9325   -1.8987    5.9065 H   0  0  0  0  0  0  0  0  0  0  0  0
    4.6943   -0.1670    4.7553 H   0  0  0  0  0  0  0  0  0  0  0  0
    3.6792   -1.1781    3.8873 H   0  0  0  0  0  0  0  0  0  0  0  0
    3.5281    1.1388    2.7956 H   0  0  0  0  0  0  0  0  0  0  0  0
    4.2832    1.9628    4.0958 H   0  0  0  0  0  0  0  0  0  0  0  0
    2.6718    2.4542    3.6072 H   0  0  0  0  0  0  0  0  0  0  0  0
    2.0233   -0.2643    2.3870 H   0  0  0  0  0  0  0  0  0  0  0  0
    1.9829   -2.2446    2.8971 H   0  0  0  0  0  0  0  0  0  0  0  0
    0.2107   -4.1812    3.6003 H   0  0  0  0  0  0  0  0  0  0  0  0
    2.3811   -6.5789    4.3684 H   0  0  0  0  0  0  0  0  0  0  0  0
   -0.5959   -6.3119    4.3084 H   0  0  0  0  0  0  0  0  0  0  0  0
    0.4705   -6.2698    2.9318 H   0  0  0  0  0  0  0  0  0  0  0  0
   -0.9975   -9.7376    2.9855 H   0  0  0  0  0  0  0  0  0  0  0  0
   -0.9279   -8.2559    2.0384 H   0  0  0  0  0  0  0  0  0  0  0  0
   -1.8454   -8.3058    3.5475 H   0  0  0  0  0  0  0  0  0  0  0  0
    1.4815   -9.8597    2.9425 H   0  0  0  0  0  0  0  0  0  0  0  0
    2.4929   -8.5892    3.5973 H   0  0  0  0  0  0  0  0  0  0  0  0
    1.6405   -8.3241    2.0807 H   0  0  0  0  0  0  0  0  0  0  0  0
   -0.7103   -8.5447    5.6995 H   0  0  0  0  0  0  0  0  0  0  0  0
    0.2683   -9.8943    5.2290 H   0  0  0  0  0  0  0  0  0  0  0  0
    1.2560   -8.7458    7.1710 H   0  0  0  0  0  0  0  0  0  0  0  0
    2.3431   -8.6746    5.8295 H   0  0  0  0  0  0  0  0  0  0  0  0
    2.4760   -5.7572    7.9677 H   0  0  0  0  0  0  0  0  0  0  0  0
    3.2325   -7.2178    7.4594 H   0  0  0  0  0  0  0  0  0  0  0  0
    4.6639   -5.3806    6.7894 H   0  0  0  0  0  0  0  0  0  0  0  0
    4.1176   -6.2439    5.4833 H   0  0  0  0  0  0  0  0  0  0  0  0
    5.2455   -3.8408    4.7757 H   0  0  0  0  0  0  0  0  0  0  0  0
    3.9926   -3.2307    3.6949 H   0  0  0  0  0  0  0  0  0  0  0  0
    4.3219   -4.9187    3.7520 H   0  0  0  0  0  0  0  0  0  0  0  0
    0.2111    1.9044    4.8556 H   0  0  0  0  0  0  0  0  0  0  0  0
   -0.7358    1.1671    2.9879 H   0  0  0  0  0  0  0  0  0  0  0  0
  1  2  1  0
  1 40  1  0
  1 41  1  0
  1 42  1  0
  2 15  1  0
  2  3  1  0
  2 43  1  6
  3  4  1  0
  3 44  1  0
  3 45  1  0
  4  5  1  0
  4 46  1  0
  4 47  1  0
  5 38  1  0
  5  6  1  1
  5  7  1  0
  6 48  1  0
  7 19  1  0
  7  8  1  0
  7 49  1  6
  8  9  2  0
  8 10  1  0
 10 11  1  0
 10 50  1  0
 10 51  1  0
 11 36  1  0
 11 12  1  1
 11 13  1  0
 12 52  1  0
 12 53  1  0
 12 54  1  0
 13 14  1  0
 13 55  1  0
 13 56  1  0
 14 15  1  0
 14 57  1  0
 14 58  1  0
 15 16  1  6
 15 17  1  0
 16 59  1  0
 16 60  1  0
 16 61  1  0
 17 18  1  6
 17 19  1  0
 17 38  1  0
 18 62  1  0
 19 20  2  3
 20 21  1  0
 20 63  1  0
 21 22  2  3
 21 64  1  0
 22 36  1  0
 22 23  1  0
 23 30  1  0
 23 24  1  0
 23 65  1  6
 24 25  1  0
 24 66  1  0
 24 67  1  0
 25 26  1  0
 25 27  1  0
 25 28  1  0
 26 68  1  0
 26 69  1  0
 26 70  1  0
 27 71  1  0
 27 72  1  0
 27 73  1  0
 28 29  1  0
 28 74  1  0
 28 75  1  0
 29 30  1  0
 29 76  1  0
 29 77  1  0
 30 31  1  1
 30 34  1  0
 31 32  2  0
 31 33  1  0
 34 35  1  0
 34 78  1  0
 34 79  1  0
 35 36  1  0
 35 80  1  0
 35 81  1  0
 36 37  1  6
 37 82  1  0
 37 83  1  0
 37 84  1  0
 38 39  1  0
 38 85  1  1
 39 86  1  0
M  CHG  1  33  -1
M  END
>  <i_m_ct_stereo_status>  (291) 
1

>  <s_m_source_file>  (291) 
/var/tmp/pbs.5076255.sched01/tmpz7l6rxva/92z_h6r8yo.sdf

>  <i_m_source_file_index>  (291) 
28

>  <i_lp_mmshare_version>  (291) 
48012

>  <i_f3d_flags>  (291) 
0

>  <s_epik_input>  (291) 
W09IXVtDQF0xMltDQEhdMy9DPTRbQ0BAXShbT0hdKShbQ0BIXTJbT0hdKVtDQEBdKFtDSDNdKShbQ0BIXShbQ0gzXSlbQ0gyXVtDSDJdMSlbQ0gyXVtDSDJdW0NAQF0oW0NIM10pKFtDSDJdQzM9TylbQ0BdNShbQ0gzXSlDKD1bQ0hdL1tDSF00KVxbQ0BIXTZbQ0BdKEMoPU8pW09IXSkoW0NIMl1bQ0gyXTUpW0NIMl1bQ0gyXUMoW0NIMl02KShbQ0gzXSlbQ0gzXQ==

>  <s_epik_cmdline>  (291) 
J2VwaWtfcHl0aG9uJywgJy1waHQnLCAnMi4wJywgJy1waCcsICc3LjAnLCAnLXRuJywgJzgnLCAnLW1hJywgJzIwMCcsICctaW1hZScsICc8aW5maWxlLm1hZT4nLCAnLW9tYWUnLCAnPG91dGZpbGUubWFlPic=

>  <r_epik_Ionization_Penalty>  (291) 
0.00589253

>  <r_epik_Ionization_Penalty_Charging>  (291) 
0.00589237

>  <r_epik_Ionization_Penalty_Neutral>  (291) 
1.52714e-07

>  <r_epik_State_Penalty>  (291) 
0.00433199

>  <r_epik_Charging_Adjusted_Penalty>  (291) 
0.0102244

>  <i_epik_Tot_Q>  (291) 
-1

>  <i_epik_Tot_abs_Q>  (291) 
1

>  <s_lp_Force_Field>  (291) 
OPLS3e

>  <r_lp_Energy>  (291) 
166.589

>  <b_lp_Chiralities_Consistent>  (291) 
1

>  <s_lp_Variant>  (291) 
78:0-1

>  <s_i_glide_gridfile>  (291) 
pfpi4k_grid

>  <i_i_glide_lignum>  (291) 
28

>  <i_i_glide_rotatable_bonds>  (291) 
4

>  <r_i_docking_score>  (291) 
-2.52505

>  <r_i_glide_ligand_efficiency>  (291) 
-0.0647448

>  <r_i_glide_ligand_efficiency_sa>  (291) 
-0.219563

>  <r_i_glide_ligand_efficiency_ln>  (291) 
-0.541442

>  <r_i_glide_gscore>  (291) 
-2.52505

>  <r_i_glide_lipo>  (291) 
-0.0484232

>  <r_i_glide_hbond>  (291) 
-0.0757789

>  <r_i_glide_metal>  (291) 
-0

>  <r_i_glide_rewards>  (291) 
0

>  <r_i_glide_evdw>  (291) 
-25.5637

>  <r_i_glide_ecoul>  (291) 
-7.28371

>  <r_i_glide_erotb>  (291) 
0

>  <r_i_glide_esite>  (291) 
-0.0301049

>  <r_i_glide_emodel>  (291) 
-41.2887

>  <r_i_glide_energy>  (291) 
-32.8474

>  <r_i_glide_einternal>  (291) 
0.695088

>  <r_i_glide_intrahb_reward>  (291) 
-0

>  <i_i_glide_confnum>  (291) 
1

>  <i_i_glide_posenum>  (291) 
14

>  <r_i_glide_eff_state_penalty>  (291) 
0

>  <ligand_id>  (291) 
78

>  <original_smiles>  (291) 
CC1CCC2(O)C3C(=O)CC4(C)CCC1(C)C(O)(C3=CC=C1C3CC(C)(C)CCC3(C(=O)O)CCC14C)C2O

>  <smiles>  (291) 
[H]OC1([H])C2(O[H])C3=C([H])C([H])=C4C5([H])C([H])([H])C(C([H])([H])[H])(C([H])([H])[H])C([H])([H])C([H])([H])C5(C(=O)[O-])C([H])([H])C([H])([H])C4(C([H])([H])[H])C4(C([H])([H])[H])C([H])([H])C(=O)C3([H])C1(O[H])C([H])([H])C([H])([H])C([H])(C([H])([H])[H])C2(C([H])([H])[H])C([H])([H])C4([H])[H]

$$$$
78:1:0
     RDKit          3D

 86 91  0  0  1  0  0  0  0  0999 V2000
    4.0139    0.4012    7.7546 C   0  0  0  0  0  0  0  0  0  0  0  0
    3.3023    0.6761    6.3983 C   0  0  2  0  0  0  0  0  0  0  0  0
    1.8901    1.2072    6.7678 C   0  0  0  0  0  0  0  0  0  0  0  0
    1.0500    1.9181    5.7031 C   0  0  0  0  0  0  0  0  0  0  0  0
    0.8478    1.2214    4.3528 C   0  0  2  0  0  0  0  0  0  0  0  0
   -0.0266    2.1159    3.6751 O   0  0  0  0  0  0  0  0  0  0  0  0
    0.2539   -0.2276    4.3198 C   0  0  2  0  0  0  0  0  0  0  0  0
   -0.3773   -0.8997    5.5784 C   0  0  0  0  0  0  0  0  0  0  0  0
   -0.9848   -0.2422    6.4279 O   0  0  0  0  0  0  0  0  0  0  0  0
   -0.3792   -2.4516    5.7163 C   0  0  0  0  0  0  0  0  0  0  0  0
    0.8845   -3.2241    6.3083 C   0  0  2  0  0  0  0  0  0  0  0  0
    0.2645   -3.6059    7.7052 C   0  0  0  0  0  0  0  0  0  0  0  0
    2.0805   -2.3042    6.7788 C   0  0  0  0  0  0  0  0  0  0  0  0
    3.3104   -1.9323    5.8971 C   0  0  0  0  0  0  0  0  0  0  0  0
    3.4962   -0.4889    5.3184 C   0  0  2  0  0  0  0  0  0  0  0  0
    5.0231   -0.4046    4.9690 C   0  0  0  0  0  0  0  0  0  0  0  0
    2.7026   -0.3380    3.9415 C   0  0  1  0  0  0  0  0  0  0  0  0
    3.4965   -0.7738    2.8469 O   0  0  0  0  0  0  0  0  0  0  0  0
    1.3895   -1.0985    3.8693 C   0  0  0  0  0  0  0  0  0  0  0  0
    1.1276   -2.2924    3.3217 C   0  0  0  0  0  0  0  0  0  0  0  0
    1.9510   -3.4467    3.1457 C   0  0  0  0  0  0  0  0  0  0  0  0
    1.9544   -4.4954    4.0127 C   0  0  0  0  0  0  0  0  0  0  0  0
    2.4529   -5.8569    3.4717 C   0  0  2  0  0  0  0  0  0  0  0  0
    3.3441   -5.8416    2.1916 C   0  0  0  0  0  0  0  0  0  0  0  0
    3.9580   -7.2318    1.8751 C   0  0  0  0  0  0  0  0  0  0  0  0
    4.6104   -7.1738    0.4879 C   0  0  0  0  0  0  0  0  0  0  0  0
    5.0616   -7.6059    2.9011 C   0  0  0  0  0  0  0  0  0  0  0  0
    2.8452   -8.3124    1.8553 C   0  0  0  0  0  0  0  0  0  0  0  0
    1.9576   -8.3050    3.1163 C   0  0  0  0  0  0  0  0  0  0  0  0
    1.3025   -6.9292    3.4153 C   0  0  2  0  0  0  0  0  0  0  0  0
    0.2115   -6.6260    2.3300 C   0  0  0  0  0  0  0  0  0  0  0  0
   -0.9936   -6.6644    2.6640 O   0  0  0  0  0  0  0  0  0  0  0  0
    0.5266   -6.2611    1.1703 O   0  0  0  0  0  0  0  0  0  0  0  0
    0.6226   -6.9933    4.8257 C   0  0  0  0  0  0  0  0  0  0  0  0
    0.2247   -5.6109    5.4133 C   0  0  0  0  0  0  0  0  0  0  0  0
    1.3842   -4.5691    5.5033 C   0  0  2  0  0  0  0  0  0  0  0  0
    2.5111   -5.1990    6.4029 C   0  0  0  0  0  0  0  0  0  0  0  0
    2.2184    1.1071    3.6383 C   0  0  1  0  0  0  0  0  0  0  0  0
    1.9803    1.2806    2.2428 O   0  0  0  0  0  0  0  0  0  0  0  0
    3.5734   -0.4464    8.2804 H   0  0  0  0  0  0  0  0  0  0  0  0
    3.9250    1.2629    8.4197 H   0  0  0  0  0  0  0  0  0  0  0  0
    5.0816    0.2182    7.6755 H   0  0  0  0  0  0  0  0  0  0  0  0
    3.8179    1.5499    5.9955 H   0  0  0  0  0  0  0  0  0  0  0  0
    1.2837    0.5002    7.3118 H   0  0  0  0  0  0  0  0  0  0  0  0
    2.0406    1.9821    7.5166 H   0  0  0  0  0  0  0  0  0  0  0  0
    0.0753    2.1490    6.1438 H   0  0  0  0  0  0  0  0  0  0  0  0
    1.5014    2.8956    5.5154 H   0  0  0  0  0  0  0  0  0  0  0  0
   -0.0213    1.9036    2.7490 H   0  0  0  0  0  0  0  0  0  0  0  0
   -0.5046   -0.2787    3.5331 H   0  0  0  0  0  0  0  0  0  0  0  0
   -1.2391   -2.6284    6.3568 H   0  0  0  0  0  0  0  0  0  0  0  0
   -0.7299   -2.9272    4.8132 H   0  0  0  0  0  0  0  0  0  0  0  0
    0.9238   -4.1230    8.3996 H   0  0  0  0  0  0  0  0  0  0  0  0
   -0.6420   -4.2048    7.6354 H   0  0  0  0  0  0  0  0  0  0  0  0
   -0.0292   -2.7045    8.2483 H   0  0  0  0  0  0  0  0  0  0  0  0
    1.6872   -1.4429    7.2876 H   0  0  0  0  0  0  0  0  0  0  0  0
    2.5481   -2.8232    7.6128 H   0  0  0  0  0  0  0  0  0  0  0  0
    4.1672   -2.1105    6.5499 H   0  0  0  0  0  0  0  0  0  0  0  0
    3.4680   -2.6624    5.1103 H   0  0  0  0  0  0  0  0  0  0  0  0
    5.3514   -1.2277    4.3312 H   0  0  0  0  0  0  0  0  0  0  0  0
    5.6752   -0.4767    5.8386 H   0  0  0  0  0  0  0  0  0  0  0  0
    5.2687    0.5303    4.4617 H   0  0  0  0  0  0  0  0  0  0  0  0
    3.0082   -0.5642    2.0582 H   0  0  0  0  0  0  0  0  0  0  0  0
    0.0908   -2.5087    3.1479 H   0  0  0  0  0  0  0  0  0  0  0  0
    2.3476   -3.5558    2.1517 H   0  0  0  0  0  0  0  0  0  0  0  0
    3.1657   -6.1929    4.2013 H   0  0  0  0  0  0  0  0  0  0  0  0
    2.7740   -5.5194    1.3219 H   0  0  0  0  0  0  0  0  0  0  0  0
    4.1490   -5.1077    2.2948 H   0  0  0  0  0  0  0  0  0  0  0  0
    5.0162   -8.1500    0.2159 H   0  0  0  0  0  0  0  0  0  0  0  0
    5.4132   -6.4351    0.4561 H   0  0  0  0  0  0  0  0  0  0  0  0
    3.8859   -6.8976   -0.2768 H   0  0  0  0  0  0  0  0  0  0  0  0
    5.5634   -8.5416    2.6273 H   0  0  0  0  0  0  0  0  0  0  0  0
    4.6658   -7.7469    3.9071 H   0  0  0  0  0  0  0  0  0  0  0  0
    5.8214   -6.8208    2.9578 H   0  0  0  0  0  0  0  0  0  0  0  0
    2.2100   -8.1599    0.9855 H   0  0  0  0  0  0  0  0  0  0  0  0
    3.2773   -9.3029    1.7161 H   0  0  0  0  0  0  0  0  0  0  0  0
    1.1882   -9.0702    3.0242 H   0  0  0  0  0  0  0  0  0  0  0  0
    2.5615   -8.6061    3.9723 H   0  0  0  0  0  0  0  0  0  0  0  0
   -0.2733   -7.6150    4.7947 H   0  0  0  0  0  0  0  0  0  0  0  0
    1.2508   -7.5431    5.5275 H   0  0  0  0  0  0  0  0  0  0  0  0
   -0.5758   -5.1859    4.8138 H   0  0  0  0  0  0  0  0  0  0  0  0
   -0.2124   -5.8150    6.3866 H   0  0  0  0  0  0  0  0  0  0  0  0
    2.2695   -5.2667    7.4548 H   0  0  0  0  0  0  0  0  0  0  0  0
    3.4475   -4.6511    6.3227 H   0  0  0  0  0  0  0  0  0  0  0  0
    2.7528   -6.2298    6.1766 H   0  0  0  0  0  0  0  0  0  0  0  0
    2.9406    1.8695    3.9352 H   0  0  0  0  0  0  0  0  0  0  0  0
    1.7695    2.1965    2.1104 H   0  0  0  0  0  0  0  0  0  0  0  0
  1  2  1  0
  1 40  1  0
  1 41  1  0
  1 42  1  0
  2 15  1  0
  2  3  1  0
  2 43  1  6
  3  4  1  0
  3 44  1  0
  3 45  1  0
  4  5  1  0
  4 46  1  0
  4 47  1  0
  5 38  1  0
  5  6  1  6
  5  7  1  0
  6 48  1  0
  7 19  1  0
  7  8  1  0
  7 49  1  6
  8  9  2  0
  8 10  1  0
 10 11  1  0
 10 50  1  0
 10 51  1  0
 11 36  1  0
 11 12  1  1
 11 13  1  0
 12 52  1  0
 12 53  1  0
 12 54  1  0
 13 14  1  0
 13 55  1  0
 13 56  1  0
 14 15  1  0
 14 57  1  0
 14 58  1  0
 15 16  1  6
 15 17  1  0
 16 59  1  0
 16 60  1  0
 16 61  1  0
 17 18  1  6
 17 19  1  0
 17 38  1  0
 18 62  1  0
 19 20  2  3
 20 21  1  0
 20 63  1  0
 21 22  2  3
 21 64  1  0
 22 36  1  0
 22 23  1  0
 23 30  1  0
 23 24  1  0
 23 65  1  1
 24 25  1  0
 24 66  1  0
 24 67  1  0
 25 26  1  0
 25 27  1  0
 25 28  1  0
 26 68  1  0
 26 69  1  0
 26 70  1  0
 27 71  1  0
 27 72  1  0
 27 73  1  0
 28 29  1  0
 28 74  1  0
 28 75  1  0
 29 30  1  0
 29 76  1  0
 29 77  1  0
 30 31  1  6
 30 34  1  0
 31 32  2  0
 31 33  1  0
 34 35  1  0
 34 78  1  0
 34 79  1  0
 35 36  1  0
 35 80  1  0
 35 81  1  0
 36 37  1  1
 37 82  1  0
 37 83  1  0
 37 84  1  0
 38 39  1  0
 38 85  1  1
 39 86  1  0
M  CHG  1  33  -1
M  END
>  <i_m_ct_stereo_status>  (292) 
1

>  <s_m_source_file>  (292) 
/var/tmp/pbs.5076255.sched01/tmpz7l6rxva/92z_h6r8yo.sdf

>  <i_m_source_file_index>  (292) 
29

>  <i_lp_mmshare_version>  (292) 
48012

>  <i_f3d_flags>  (292) 
0

>  <s_epik_input>  (292) 
W09IXVtDQF0xMltDQEhdMy9DPTRbQ0BAXShbT0hdKShbQ0BIXTJbT0hdKVtDQEBdKFtDSDNdKShbQ0BIXShbQ0gzXSlbQ0gyXVtDSDJdMSlbQ0gyXVtDSDJdW0NAQF0oW0NIM10pKFtDSDJdQzM9TylbQ0BdNShbQ0gzXSlDKD1bQ0hdL1tDSF00KVxbQ0BIXTZbQ0BdKEMoPU8pW09IXSkoW0NIMl1bQ0gyXTUpW0NIMl1bQ0gyXUMoW0NIMl02KShbQ0gzXSlbQ0gzXQ==

>  <s_epik_cmdline>  (292) 
J2VwaWtfcHl0aG9uJywgJy1waHQnLCAnMi4wJywgJy1waCcsICc3LjAnLCAnLXRuJywgJzgnLCAnLW1hJywgJzIwMCcsICctaW1hZScsICc8aW5maWxlLm1hZT4nLCAnLW9tYWUnLCAnPG91dGZpbGUubWFlPic=

>  <r_epik_Ionization_Penalty>  (292) 
0.00589253

>  <r_epik_Ionization_Penalty_Charging>  (292) 
0.00589237

>  <r_epik_Ionization_Penalty_Neutral>  (292) 
1.52714e-07

>  <r_epik_State_Penalty>  (292) 
0.00433199

>  <r_epik_Charging_Adjusted_Penalty>  (292) 
0.0102244

>  <i_epik_Tot_Q>  (292) 
-1

>  <i_epik_Tot_abs_Q>  (292) 
1

>  <s_lp_Force_Field>  (292) 
OPLS3e

>  <r_lp_Energy>  (292) 
165.286

>  <b_lp_Chiralities_Consistent>  (292) 
1

>  <s_lp_Variant>  (292) 
78:0-2

>  <s_i_glide_gridfile>  (292) 
pfpi4k_grid

>  <i_i_glide_lignum>  (292) 
29

>  <i_i_glide_rotatable_bonds>  (292) 
4

>  <r_i_docking_score>  (292) 
-3.73328

>  <r_i_glide_ligand_efficiency>  (292) 
-0.095725

>  <r_i_glide_ligand_efficiency_sa>  (292) 
-0.324624

>  <r_i_glide_ligand_efficiency_ln>  (292) 
-0.80052

>  <r_i_glide_gscore>  (292) 
-3.73328

>  <r_i_glide_lipo>  (292) 
-0.273429

>  <r_i_glide_hbond>  (292) 
-0.480832

>  <r_i_glide_metal>  (292) 
-0

>  <r_i_glide_rewards>  (292) 
0

>  <r_i_glide_evdw>  (292) 
-27.3318

>  <r_i_glide_ecoul>  (292) 
-9.91086

>  <r_i_glide_erotb>  (292) 
0

>  <r_i_glide_esite>  (292) 
-0.125796

>  <r_i_glide_emodel>  (292) 
-46.6577

>  <r_i_glide_energy>  (292) 
-37.2427

>  <r_i_glide_einternal>  (292) 
4.28675

>  <r_i_glide_intrahb_reward>  (292) 
-0

>  <i_i_glide_confnum>  (292) 
2

>  <i_i_glide_posenum>  (292) 
1

>  <r_i_glide_eff_state_penalty>  (292) 
0

>  <ligand_id>  (292) 
78

>  <original_smiles>  (292) 
CC1CCC2(O)C3C(=O)CC4(C)CCC1(C)C(O)(C3=CC=C1C3CC(C)(C)CCC3(C(=O)O)CCC14C)C2O

>  <smiles>  (292) 
[H]OC1([H])C2(O[H])C3=C([H])C([H])=C4C5([H])C([H])([H])C(C([H])([H])[H])(C([H])([H])[H])C([H])([H])C([H])([H])C5(C(=O)[O-])C([H])([H])C([H])([H])C4(C([H])([H])[H])C4(C([H])([H])[H])C([H])([H])C(=O)C3([H])C1(O[H])C([H])([H])C([H])([H])C([H])(C([H])([H])[H])C2(C([H])([H])[H])C([H])([H])C4([H])[H]

$$$$
78:1:1
     RDKit          3D

 86 91  0  0  1  0  0  0  0  0999 V2000
    3.9694    0.6150    7.6102 C   0  0  0  0  0  0  0  0  0  0  0  0
    3.2238    0.8496    6.2607 C   0  0  2  0  0  0  0  0  0  0  0  0
    1.8095    1.3573    6.6477 C   0  0  0  0  0  0  0  0  0  0  0  0
    0.9331    2.0322    5.5855 C   0  0  0  0  0  0  0  0  0  0  0  0
    0.7151    1.2901    4.2547 C   0  0  2  0  0  0  0  0  0  0  0  0
   -0.2308    2.0800    3.5431 O   0  0  0  0  0  0  0  0  0  0  0  0
    0.1567   -0.1721    4.2748 C   0  0  2  0  0  0  0  0  0  0  0  0
   -0.4280   -0.8234    5.5648 C   0  0  0  0  0  0  0  0  0  0  0  0
   -1.0324   -0.1600    6.4093 O   0  0  0  0  0  0  0  0  0  0  0  0
   -0.4021   -2.3731    5.7347 C   0  0  0  0  0  0  0  0  0  0  0  0
    0.8910   -3.1079    6.3131 C   0  0  2  0  0  0  0  0  0  0  0  0
    0.3074   -3.4659    7.7311 C   0  0  0  0  0  0  0  0  0  0  0  0
    2.0719   -2.1500    6.7350 C   0  0  0  0  0  0  0  0  0  0  0  0
    3.2774   -1.7715    5.8212 C   0  0  0  0  0  0  0  0  0  0  0  0
    3.4211   -0.3386    5.2100 C   0  0  2  0  0  0  0  0  0  0  0  0
    4.9373   -0.2302    4.8225 C   0  0  0  0  0  0  0  0  0  0  0  0
    2.6037   -0.2373    3.8449 C   0  0  1  0  0  0  0  0  0  0  0  0
    3.3738   -0.6876    2.7403 O   0  0  0  0  0  0  0  0  0  0  0  0
    1.3059   -1.0209    3.8322 C   0  0  0  0  0  0  0  0  0  0  0  0
    1.0572   -2.2307    3.3160 C   0  0  0  0  0  0  0  0  0  0  0  0
    1.8950   -3.3805    3.1365 C   0  0  0  0  0  0  0  0  0  0  0  0
    1.9360   -4.4076    4.0213 C   0  0  0  0  0  0  0  0  0  0  0  0
    2.4511   -5.7699    3.5030 C   0  0  2  0  0  0  0  0  0  0  0  0
    3.3249   -5.7628    2.2065 C   0  0  0  0  0  0  0  0  0  0  0  0
    3.9473   -7.1477    1.9010 C   0  0  0  0  0  0  0  0  0  0  0  0
    4.5882   -7.1073    0.5056 C   0  0  0  0  0  0  0  0  0  0  0  0
    5.0889   -7.4750    2.9096 C   0  0  0  0  0  0  0  0  0  0  0  0
    2.8680   -8.2491    1.9314 C   0  0  0  0  0  0  0  0  0  0  0  0
    2.0081   -8.2324    3.2109 C   0  0  0  0  0  0  0  0  0  0  0  0
    1.3255   -6.8691    3.4931 C   0  0  2  0  0  0  0  0  0  0  0  0
    0.1972   -6.6266    2.4205 C   0  0  0  0  0  0  0  0  0  0  0  0
   -1.0024   -6.7278    2.7726 O   0  0  0  0  0  0  0  0  0  0  0  0
    0.4649   -6.2582    1.2607 O   0  0  0  0  0  0  0  0  0  0  0  0
    0.6836   -6.9095    4.9227 C   0  0  0  0  0  0  0  0  0  0  0  0
    0.2626   -5.5236    5.4856 C   0  0  0  0  0  0  0  0  0  0  0  0
    1.3991   -4.4562    5.5232 C   0  0  2  0  0  0  0  0  0  0  0  0
    2.5542   -5.0413    6.4153 C   0  0  0  0  0  0  0  0  0  0  0  0
    2.0901    1.1944    3.5169 C   0  0  1  0  0  0  0  0  0  0  0  0
    1.8538    1.3178    2.1189 O   0  0  0  0  0  0  0  0  0  0  0  0
    3.5597   -0.2267    8.1641 H   0  0  0  0  0  0  0  0  0  0  0  0
    3.8768    1.4920    8.2583 H   0  0  0  0  0  0  0  0  0  0  0  0
    5.0390    0.4548    7.5131 H   0  0  0  0  0  0  0  0  0  0  0  0
    3.7147    1.7212    5.8320 H   0  0  0  0  0  0  0  0  0  0  0  0
    1.2292    0.6519    7.2221 H   0  0  0  0  0  0  0  0  0  0  0  0
    1.9589    2.1498    7.3800 H   0  0  0  0  0  0  0  0  0  0  0  0
   -0.0373    2.2499    6.0413 H   0  0  0  0  0  0  0  0  0  0  0  0
    1.3579    3.0148    5.3693 H   0  0  0  0  0  0  0  0  0  0  0  0
    0.1928    2.8370    3.1663 H   0  0  0  0  0  0  0  0  0  0  0  0
   -0.6135   -0.2547    3.5049 H   0  0  0  0  0  0  0  0  0  0  0  0
   -1.2476   -2.5515    6.3968 H   0  0  0  0  0  0  0  0  0  0  0  0
   -0.7679   -2.8743    4.8524 H   0  0  0  0  0  0  0  0  0  0  0  0
    0.9905   -3.9545    8.4207 H   0  0  0  0  0  0  0  0  0  0  0  0
   -0.5879   -4.0868    7.6939 H   0  0  0  0  0  0  0  0  0  0  0  0
    0.0067   -2.5604    8.2598 H   0  0  0  0  0  0  0  0  0  0  0  0
    1.6739   -1.2853    7.2350 H   0  0  0  0  0  0  0  0  0  0  0  0
    2.5704   -2.6398    7.5716 H   0  0  0  0  0  0  0  0  0  0  0  0
    4.1526   -1.9177    6.4598 H   0  0  0  0  0  0  0  0  0  0  0  0
    3.4352   -2.5159    5.0479 H   0  0  0  0  0  0  0  0  0  0  0  0
    5.2710   -1.0611    4.1954 H   0  0  0  0  0  0  0  0  0  0  0  0
    5.6096   -0.2691    5.6782 H   0  0  0  0  0  0  0  0  0  0  0  0
    5.1535    0.6977    4.2895 H   0  0  0  0  0  0  0  0  0  0  0  0
    2.8657   -0.4837    1.9656 H   0  0  0  0  0  0  0  0  0  0  0  0
    0.0217   -2.4808    3.1782 H   0  0  0  0  0  0  0  0  0  0  0  0
    2.2747   -3.4970    2.1381 H   0  0  0  0  0  0  0  0  0  0  0  0
    3.1896   -6.0728    4.2226 H   0  0  0  0  0  0  0  0  0  0  0  0
    2.7479   -5.4616    1.3362 H   0  0  0  0  0  0  0  0  0  0  0  0
    4.1124   -5.0073    2.2734 H   0  0  0  0  0  0  0  0  0  0  0  0
    5.0107   -8.0757    0.2400 H   0  0  0  0  0  0  0  0  0  0  0  0
    5.3655   -6.3498    0.4340 H   0  0  0  0  0  0  0  0  0  0  0  0
    3.8362   -6.8624   -0.2491 H   0  0  0  0  0  0  0  0  0  0  0  0
    5.6017   -8.4047    2.6520 H   0  0  0  0  0  0  0  0  0  0  0  0
    4.7139   -7.6000    3.9295 H   0  0  0  0  0  0  0  0  0  0  0  0
    5.8306   -6.6720    2.9381 H   0  0  0  0  0  0  0  0  0  0  0  0
    2.2109   -8.1310    1.0737 H   0  0  0  0  0  0  0  0  0  0  0  0
    3.3139   -9.2333    1.8056 H   0  0  0  0  0  0  0  0  0  0  0  0
    1.2506   -9.0118    3.1527 H   0  0  0  0  0  0  0  0  0  0  0  0
    2.6313   -8.5026    4.0629 H   0  0  0  0  0  0  0  0  0  0  0  0
   -0.2008   -7.5523    4.9282 H   0  0  0  0  0  0  0  0  0  0  0  0
    1.3299   -7.4333    5.6218 H   0  0  0  0  0  0  0  0  0  0  0  0
   -0.5601   -5.1302    4.8940 H   0  0  0  0  0  0  0  0  0  0  0  0
   -0.1518   -5.7159    6.4727 H   0  0  0  0  0  0  0  0  0  0  0  0
    2.3409   -5.0919    7.4756 H   0  0  0  0  0  0  0  0  0  0  0  0
    3.4797   -4.4774    6.3036 H   0  0  0  0  0  0  0  0  0  0  0  0
    2.8173   -6.0711    6.2077 H   0  0  0  0  0  0  0  0  0  0  0  0
    2.7924    1.9777    3.7955 H   0  0  0  0  0  0  0  0  0  0  0  0
    1.5470    2.1923    1.9357 H   0  0  0  0  0  0  0  0  0  0  0  0
  1  2  1  0
  1 40  1  0
  1 41  1  0
  1 42  1  0
  2 15  1  0
  2  3  1  0
  2 43  1  6
  3  4  1  0
  3 44  1  0
  3 45  1  0
  4  5  1  0
  4 46  1  0
  4 47  1  0
  5 38  1  0
  5  6  1  6
  5  7  1  0
  6 48  1  0
  7 19  1  0
  7  8  1  0
  7 49  1  6
  8  9  2  0
  8 10  1  0
 10 11  1  0
 10 50  1  0
 10 51  1  0
 11 36  1  0
 11 12  1  1
 11 13  1  0
 12 52  1  0
 12 53  1  0
 12 54  1  0
 13 14  1  0
 13 55  1  0
 13 56  1  0
 14 15  1  0
 14 57  1  0
 14 58  1  0
 15 16  1  6
 15 17  1  0
 16 59  1  0
 16 60  1  0
 16 61  1  0
 17 18  1  6
 17 19  1  0
 17 38  1  0
 18 62  1  0
 19 20  2  3
 20 21  1  0
 20 63  1  0
 21 22  2  3
 21 64  1  0
 22 36  1  0
 22 23  1  0
 23 30  1  0
 23 24  1  0
 23 65  1  1
 24 25  1  0
 24 66  1  0
 24 67  1  0
 25 26  1  0
 25 27  1  0
 25 28  1  0
 26 68  1  0
 26 69  1  0
 26 70  1  0
 27 71  1  0
 27 72  1  0
 27 73  1  0
 28 29  1  0
 28 74  1  0
 28 75  1  0
 29 30  1  0
 29 76  1  0
 29 77  1  0
 30 31  1  6
 30 34  1  0
 31 32  2  0
 31 33  1  0
 34 35  1  0
 34 78  1  0
 34 79  1  0
 35 36  1  0
 35 80  1  0
 35 81  1  0
 36 37  1  1
 37 82  1  0
 37 83  1  0
 37 84  1  0
 38 39  1  0
 38 85  1  1
 39 86  1  0
M  CHG  1  33  -1
M  END
>  <i_m_ct_stereo_status>  (293) 
1

>  <s_m_source_file>  (293) 
/var/tmp/pbs.5076255.sched01/tmpz7l6rxva/92z_h6r8yo.sdf

>  <i_m_source_file_index>  (293) 
29

>  <i_lp_mmshare_version>  (293) 
48012

>  <i_f3d_flags>  (293) 
0

>  <s_epik_input>  (293) 
W09IXVtDQF0xMltDQEhdMy9DPTRbQ0BAXShbT0hdKShbQ0BIXTJbT0hdKVtDQEBdKFtDSDNdKShbQ0BIXShbQ0gzXSlbQ0gyXVtDSDJdMSlbQ0gyXVtDSDJdW0NAQF0oW0NIM10pKFtDSDJdQzM9TylbQ0BdNShbQ0gzXSlDKD1bQ0hdL1tDSF00KVxbQ0BIXTZbQ0BdKEMoPU8pW09IXSkoW0NIMl1bQ0gyXTUpW0NIMl1bQ0gyXUMoW0NIMl02KShbQ0gzXSlbQ0gzXQ==

>  <s_epik_cmdline>  (293) 
J2VwaWtfcHl0aG9uJywgJy1waHQnLCAnMi4wJywgJy1waCcsICc3LjAnLCAnLXRuJywgJzgnLCAnLW1hJywgJzIwMCcsICctaW1hZScsICc8aW5maWxlLm1hZT4nLCAnLW9tYWUnLCAnPG91dGZpbGUubWFlPic=

>  <r_epik_Ionization_Penalty>  (293) 
0.00589253

>  <r_epik_Ionization_Penalty_Charging>  (293) 
0.00589237

>  <r_epik_Ionization_Penalty_Neutral>  (293) 
1.52714e-07

>  <r_epik_State_Penalty>  (293) 
0.00433199

>  <r_epik_Charging_Adjusted_Penalty>  (293) 
0.0102244

>  <i_epik_Tot_Q>  (293) 
-1

>  <i_epik_Tot_abs_Q>  (293) 
1

>  <s_lp_Force_Field>  (293) 
OPLS3e

>  <r_lp_Energy>  (293) 
165.286

>  <b_lp_Chiralities_Consistent>  (293) 
1

>  <s_lp_Variant>  (293) 
78:0-2

>  <s_i_glide_gridfile>  (293) 
pfpi4k_grid

>  <i_i_glide_lignum>  (293) 
29

>  <i_i_glide_rotatable_bonds>  (293) 
4

>  <r_i_docking_score>  (293) 
-3.67479

>  <r_i_glide_ligand_efficiency>  (293) 
-0.0942253

>  <r_i_glide_ligand_efficiency_sa>  (293) 
-0.319538

>  <r_i_glide_ligand_efficiency_ln>  (293) 
-0.787979

>  <r_i_glide_gscore>  (293) 
-3.67479

>  <r_i_glide_lipo>  (293) 
-0.272744

>  <r_i_glide_hbond>  (293) 
-0.488196

>  <r_i_glide_metal>  (293) 
-0

>  <r_i_glide_rewards>  (293) 
0

>  <r_i_glide_evdw>  (293) 
-27.6873

>  <r_i_glide_ecoul>  (293) 
-9.37053

>  <r_i_glide_erotb>  (293) 
0

>  <r_i_glide_esite>  (293) 
-0.123903

>  <r_i_glide_emodel>  (293) 
-45.93

>  <r_i_glide_energy>  (293) 
-37.0579

>  <r_i_glide_einternal>  (293) 
4.61503

>  <r_i_glide_intrahb_reward>  (293) 
-0

>  <i_i_glide_confnum>  (293) 
2

>  <i_i_glide_posenum>  (293) 
30

>  <r_i_glide_eff_state_penalty>  (293) 
0

>  <ligand_id>  (293) 
78

>  <original_smiles>  (293) 
CC1CCC2(O)C3C(=O)CC4(C)CCC1(C)C(O)(C3=CC=C1C3CC(C)(C)CCC3(C(=O)O)CCC14C)C2O

>  <smiles>  (293) 
[H]OC1([H])C2(O[H])C3=C([H])C([H])=C4C5([H])C([H])([H])C(C([H])([H])[H])(C([H])([H])[H])C([H])([H])C([H])([H])C5(C(=O)[O-])C([H])([H])C([H])([H])C4(C([H])([H])[H])C4(C([H])([H])[H])C([H])([H])C(=O)C3([H])C1(O[H])C([H])([H])C([H])([H])C([H])(C([H])([H])[H])C2(C([H])([H])[H])C([H])([H])C4([H])[H]

$$$$
78:1:2
     RDKit          3D

 86 91  0  0  1  0  0  0  0  0999 V2000
    2.6701   -8.6172    7.4768 C   0  0  0  0  0  0  0  0  0  0  0  0
    1.6998   -8.6272    6.2618 C   0  0  2  0  0  0  0  0  0  0  0  0
    2.0732   -9.8889    5.4340 C   0  0  0  0  0  0  0  0  0  0  0  0
    1.0964  -10.4193    4.3799 C   0  0  0  0  0  0  0  0  0  0  0  0
    0.5631   -9.4282    3.3322 C   0  0  2  0  0  0  0  0  0  0  0  0
   -0.2238  -10.2419    2.4802 O   0  0  0  0  0  0  0  0  0  0  0  0
    1.5711   -8.6110    2.4540 C   0  0  2  0  0  0  0  0  0  0  0  0
    3.0947   -8.9316    2.4445 C   0  0  0  0  0  0  0  0  0  0  0  0
    3.5043  -10.0756    2.6012 O   0  0  0  0  0  0  0  0  0  0  0  0
    4.1250   -7.8091    2.1077 C   0  0  0  0  0  0  0  0  0  0  0  0
    4.6597   -6.8299    3.2480 C   0  0  2  0  0  0  0  0  0  0  0  0
    6.1164   -7.4147    3.3722 C   0  0  0  0  0  0  0  0  0  0  0  0
    4.1106   -7.1220    4.7001 C   0  0  0  0  0  0  0  0  0  0  0  0
    2.8714   -6.4293    5.3382 C   0  0  0  0  0  0  0  0  0  0  0  0
    1.5291   -7.2016    5.5587 C   0  0  2  0  0  0  0  0  0  0  0  0
    0.7714   -6.3553    6.6425 C   0  0  0  0  0  0  0  0  0  0  0  0
    0.6435   -7.1529    4.2305 C   0  0  1  0  0  0  0  0  0  0  0  0
   -0.1476   -5.9747    4.2104 O   0  0  0  0  0  0  0  0  0  0  0  0
    1.4177   -7.2026    2.9214 C   0  0  0  0  0  0  0  0  0  0  0  0
    1.7915   -6.1959    2.1104 C   0  0  0  0  0  0  0  0  0  0  0  0
    2.1191   -4.8462    2.4300 C   0  0  0  0  0  0  0  0  0  0  0  0
    3.3839   -4.3927    2.6242 C   0  0  0  0  0  0  0  0  0  0  0  0
    3.6383   -2.8781    2.4073 C   0  0  2  0  0  0  0  0  0  0  0  0
    2.4087   -1.9184    2.4005 C   0  0  0  0  0  0  0  0  0  0  0  0
    2.8061   -0.4181    2.4058 C   0  0  0  0  0  0  0  0  0  0  0  0
    1.5368    0.4395    2.2296 C   0  0  0  0  0  0  0  0  0  0  0  0
    3.4739   -0.0024    3.7442 C   0  0  0  0  0  0  0  0  0  0  0  0
    3.7526   -0.1550    1.2155 C   0  0  0  0  0  0  0  0  0  0  0  0
    4.9638   -1.1117    1.1801 C   0  0  0  0  0  0  0  0  0  0  0  0
    4.5586   -2.6155    1.1659 C   0  0  2  0  0  0  0  0  0  0  0  0
    3.8943   -2.9564   -0.2078 C   0  0  0  0  0  0  0  0  0  0  0  0
    4.4805   -2.5329   -1.2317 O   0  0  0  0  0  0  0  0  0  0  0  0
    2.8538   -3.6481   -0.2337 O   0  0  0  0  0  0  0  0  0  0  0  0
    5.8353   -3.4885    1.2747 C   0  0  0  0  0  0  0  0  0  0  0  0
    5.5791   -4.9780    1.6222 C   0  0  0  0  0  0  0  0  0  0  0  0
    4.7063   -5.2291    2.8925 C   0  0  2  0  0  0  0  0  0  0  0  0
    5.4154   -4.5445    4.1170 C   0  0  0  0  0  0  0  0  0  0  0  0
   -0.3058   -8.3686    4.0621 C   0  0  1  0  0  0  0  0  0  0  0  0
   -1.4380   -8.0606    3.2562 O   0  0  0  0  0  0  0  0  0  0  0  0
    3.6962   -8.4071    7.1779 H   0  0  0  0  0  0  0  0  0  0  0  0
    2.6852   -9.5906    7.9714 H   0  0  0  0  0  0  0  0  0  0  0  0
    2.4071   -7.9119    8.2609 H   0  0  0  0  0  0  0  0  0  0  0  0
    0.7292   -8.8777    6.6950 H   0  0  0  0  0  0  0  0  0  0  0  0
    3.0816   -9.8771    5.0482 H   0  0  0  0  0  0  0  0  0  0  0  0
    2.1416  -10.7086    6.1449 H   0  0  0  0  0  0  0  0  0  0  0  0
    1.5742  -11.2652    3.8824 H   0  0  0  0  0  0  0  0  0  0  0  0
    0.2462  -10.8671    4.9016 H   0  0  0  0  0  0  0  0  0  0  0  0
   -0.1636   -9.9188    1.5835 H   0  0  0  0  0  0  0  0  0  0  0  0
    1.2480   -8.6406    1.4114 H   0  0  0  0  0  0  0  0  0  0  0  0
    4.9608   -8.3769    1.6964 H   0  0  0  0  0  0  0  0  0  0  0  0
    3.8351   -7.2591    1.2227 H   0  0  0  0  0  0  0  0  0  0  0  0
    6.7492   -6.9721    4.1366 H   0  0  0  0  0  0  0  0  0  0  0  0
    6.6829   -7.3842    2.4429 H   0  0  0  0  0  0  0  0  0  0  0  0
    6.0760   -8.4711    3.6413 H   0  0  0  0  0  0  0  0  0  0  0  0
    4.0963   -8.1839    4.8665 H   0  0  0  0  0  0  0  0  0  0  0  0
    4.9080   -6.8373    5.3859 H   0  0  0  0  0  0  0  0  0  0  0  0
    3.2105   -6.1297    6.3306 H   0  0  0  0  0  0  0  0  0  0  0  0
    2.6673   -5.4720    4.8742 H   0  0  0  0  0  0  0  0  0  0  0  0
    0.6896   -5.2982    6.3783 H   0  0  0  0  0  0  0  0  0  0  0  0
    1.2734   -6.3359    7.6041 H   0  0  0  0  0  0  0  0  0  0  0  0
   -0.2307   -6.7419    6.8286 H   0  0  0  0  0  0  0  0  0  0  0  0
   -0.6188   -5.9427    5.0291 H   0  0  0  0  0  0  0  0  0  0  0  0
    2.0850   -6.4654    1.1062 H   0  0  0  0  0  0  0  0  0  0  0  0
    1.3450   -4.1356    2.2253 H   0  0  0  0  0  0  0  0  0  0  0  0
    4.1624   -2.5455    3.2880 H   0  0  0  0  0  0  0  0  0  0  0  0
    1.8038   -2.0963    1.5111 H   0  0  0  0  0  0  0  0  0  0  0  0
    1.7608   -2.1209    3.2526 H   0  0  0  0  0  0  0  0  0  0  0  0
    1.7690    1.5056    2.2018 H   0  0  0  0  0  0  0  0  0  0  0  0
    0.8297    0.2733    3.0418 H   0  0  0  0  0  0  0  0  0  0  0  0
    1.0271    0.1971    1.2963 H   0  0  0  0  0  0  0  0  0  0  0  0
    3.6798    1.0704    3.7729 H   0  0  0  0  0  0  0  0  0  0  0  0
    4.4275   -0.5003    3.9149 H   0  0  0  0  0  0  0  0  0  0  0  0
    2.8338   -0.2427    4.5954 H   0  0  0  0  0  0  0  0  0  0  0  0
    3.1925   -0.2674    0.2871 H   0  0  0  0  0  0  0  0  0  0  0  0
    4.0947    0.8786    1.2233 H   0  0  0  0  0  0  0  0  0  0  0  0
    5.5820   -0.8670    0.3162 H   0  0  0  0  0  0  0  0  0  0  0  0
    5.6038   -0.9150    2.0416 H   0  0  0  0  0  0  0  0  0  0  0  0
    6.3853   -3.4525    0.3336 H   0  0  0  0  0  0  0  0  0  0  0  0
    6.5290   -3.0463    1.9902 H   0  0  0  0  0  0  0  0  0  0  0  0
    5.1083   -5.4593    0.7647 H   0  0  0  0  0  0  0  0  0  0  0  0
    6.5629   -5.4286    1.7161 H   0  0  0  0  0  0  0  0  0  0  0  0
    6.3134   -5.0415    4.4556 H   0  0  0  0  0  0  0  0  0  0  0  0
    4.7538   -4.4517    4.9803 H   0  0  0  0  0  0  0  0  0  0  0  0
    5.7870   -3.5451    3.9268 H   0  0  0  0  0  0  0  0  0  0  0  0
   -0.7240   -8.7279    5.0053 H   0  0  0  0  0  0  0  0  0  0  0  0
   -1.9337   -8.8681    3.2022 H   0  0  0  0  0  0  0  0  0  0  0  0
  1  2  1  0
  1 40  1  0
  1 41  1  0
  1 42  1  0
  2 15  1  0
  2  3  1  0
  2 43  1  1
  3  4  1  0
  3 44  1  0
  3 45  1  0
  4  5  1  0
  4 46  1  0
  4 47  1  0
  5 38  1  0
  5  6  1  6
  5  7  1  0
  6 48  1  0
  7 19  1  0
  7  8  1  0
  7 49  1  6
  8  9  2  0
  8 10  1  0
 10 11  1  0
 10 50  1  0
 10 51  1  0
 11 36  1  0
 11 12  1  1
 11 13  1  0
 12 52  1  0
 12 53  1  0
 12 54  1  0
 13 14  1  0
 13 55  1  0
 13 56  1  0
 14 15  1  0
 14 57  1  0
 14 58  1  0
 15 16  1  1
 15 17  1  0
 16 59  1  0
 16 60  1  0
 16 61  1  0
 17 18  1  6
 17 19  1  0
 17 38  1  0
 18 62  1  0
 19 20  2  3
 20 21  1  0
 20 63  1  0
 21 22  2  3
 21 64  1  0
 22 36  1  0
 22 23  1  0
 23 30  1  0
 23 24  1  0
 23 65  1  1
 24 25  1  0
 24 66  1  0
 24 67  1  0
 25 26  1  0
 25 27  1  0
 25 28  1  0
 26 68  1  0
 26 69  1  0
 26 70  1  0
 27 71  1  0
 27 72  1  0
 27 73  1  0
 28 29  1  0
 28 74  1  0
 28 75  1  0
 29 30  1  0
 29 76  1  0
 29 77  1  0
 30 31  1  6
 30 34  1  0
 31 32  2  0
 31 33  1  0
 34 35  1  0
 34 78  1  0
 34 79  1  0
 35 36  1  0
 35 80  1  0
 35 81  1  0
 36 37  1  1
 37 82  1  0
 37 83  1  0
 37 84  1  0
 38 39  1  0
 38 85  1  1
 39 86  1  0
M  CHG  1  33  -1
M  END
>  <i_m_ct_stereo_status>  (294) 
1

>  <s_m_source_file>  (294) 
/var/tmp/pbs.5076255.sched01/tmpz7l6rxva/92z_h6r8yo.sdf

>  <i_m_source_file_index>  (294) 
29

>  <i_lp_mmshare_version>  (294) 
48012

>  <i_f3d_flags>  (294) 
0

>  <s_epik_input>  (294) 
W09IXVtDQF0xMltDQEhdMy9DPTRbQ0BAXShbT0hdKShbQ0BIXTJbT0hdKVtDQEBdKFtDSDNdKShbQ0BIXShbQ0gzXSlbQ0gyXVtDSDJdMSlbQ0gyXVtDSDJdW0NAQF0oW0NIM10pKFtDSDJdQzM9TylbQ0BdNShbQ0gzXSlDKD1bQ0hdL1tDSF00KVxbQ0BIXTZbQ0BdKEMoPU8pW09IXSkoW0NIMl1bQ0gyXTUpW0NIMl1bQ0gyXUMoW0NIMl02KShbQ0gzXSlbQ0gzXQ==

>  <s_epik_cmdline>  (294) 
J2VwaWtfcHl0aG9uJywgJy1waHQnLCAnMi4wJywgJy1waCcsICc3LjAnLCAnLXRuJywgJzgnLCAnLW1hJywgJzIwMCcsICctaW1hZScsICc8aW5maWxlLm1hZT4nLCAnLW9tYWUnLCAnPG91dGZpbGUubWFlPic=

>  <r_epik_Ionization_Penalty>  (294) 
0.00589253

>  <r_epik_Ionization_Penalty_Charging>  (294) 
0.00589237

>  <r_epik_Ionization_Penalty_Neutral>  (294) 
1.52714e-07

>  <r_epik_State_Penalty>  (294) 
0.00433199

>  <r_epik_Charging_Adjusted_Penalty>  (294) 
0.0102244

>  <i_epik_Tot_Q>  (294) 
-1

>  <i_epik_Tot_abs_Q>  (294) 
1

>  <s_lp_Force_Field>  (294) 
OPLS3e

>  <r_lp_Energy>  (294) 
165.286

>  <b_lp_Chiralities_Consistent>  (294) 
1

>  <s_lp_Variant>  (294) 
78:0-2

>  <s_i_glide_gridfile>  (294) 
pfpi4k_grid

>  <i_i_glide_lignum>  (294) 
29

>  <i_i_glide_rotatable_bonds>  (294) 
4

>  <r_i_docking_score>  (294) 
-2.45066

>  <r_i_glide_ligand_efficiency>  (294) 
-0.0628374

>  <r_i_glide_ligand_efficiency_sa>  (294) 
-0.213095

>  <r_i_glide_ligand_efficiency_ln>  (294) 
-0.525491

>  <r_i_glide_gscore>  (294) 
-2.45066

>  <r_i_glide_lipo>  (294) 
-0.260114

>  <r_i_glide_hbond>  (294) 
0

>  <r_i_glide_metal>  (294) 
-0

>  <r_i_glide_rewards>  (294) 
0

>  <r_i_glide_evdw>  (294) 
-36.561

>  <r_i_glide_ecoul>  (294) 
-2.27154

>  <r_i_glide_erotb>  (294) 
0

>  <r_i_glide_esite>  (294) 
-0.0217638

>  <r_i_glide_emodel>  (294) 
-45.784

>  <r_i_glide_energy>  (294) 
-38.8326

>  <r_i_glide_einternal>  (294) 
1.29777

>  <r_i_glide_intrahb_reward>  (294) 
-0

>  <i_i_glide_confnum>  (294) 
1

>  <i_i_glide_posenum>  (294) 
5

>  <r_i_glide_eff_state_penalty>  (294) 
0

>  <ligand_id>  (294) 
78

>  <original_smiles>  (294) 
CC1CCC2(O)C3C(=O)CC4(C)CCC1(C)C(O)(C3=CC=C1C3CC(C)(C)CCC3(C(=O)O)CCC14C)C2O

>  <smiles>  (294) 
[H]OC1([H])C2(O[H])C3=C([H])C([H])=C4C5([H])C([H])([H])C(C([H])([H])[H])(C([H])([H])[H])C([H])([H])C([H])([H])C5(C(=O)[O-])C([H])([H])C([H])([H])C4(C([H])([H])[H])C4(C([H])([H])[H])C([H])([H])C(=O)C3([H])C1(O[H])C([H])([H])C([H])([H])C([H])(C([H])([H])[H])C2(C([H])([H])[H])C([H])([H])C4([H])[H]

$$$$
78:2:0
     RDKit          3D

 86 91  0  0  1  0  0  0  0  0999 V2000
    0.8164   -9.6687    2.6839 C   0  0  0  0  0  0  0  0  0  0  0  0
    1.9605   -8.7300    2.2285 C   0  0  2  0  0  0  0  0  0  0  0  0
    3.3243   -9.3844    2.6360 C   0  0  0  0  0  0  0  0  0  0  0  0
    4.6032   -8.5461    2.9587 C   0  0  0  0  0  0  0  0  0  0  0  0
    4.9211   -7.2445    2.1546 C   0  0  2  0  0  0  0  0  0  0  0  0
    6.2703   -7.3967    1.7351 O   0  0  0  0  0  0  0  0  0  0  0  0
    4.7840   -5.8626    2.8728 C   0  0  2  0  0  0  0  0  0  0  0  0
    5.2441   -5.7171    4.3401 C   0  0  0  0  0  0  0  0  0  0  0  0
    6.4299   -5.4619    4.5464 O   0  0  0  0  0  0  0  0  0  0  0  0
    4.3467   -5.9254    5.5742 C   0  0  0  0  0  0  0  0  0  0  0  0
    2.9671   -5.1995    5.8327 C   0  0  2  0  0  0  0  0  0  0  0  0
    2.5851   -5.8449    7.1975 C   0  0  0  0  0  0  0  0  0  0  0  0
    1.8098   -5.7011    4.8669 C   0  0  0  0  0  0  0  0  0  0  0  0
    1.9542   -7.0844    4.1577 C   0  0  0  0  0  0  0  0  0  0  0  0
    1.7792   -7.2150    2.5865 C   0  0  2  0  0  0  0  0  0  0  0  0
    0.3001   -6.8071    2.3338 C   0  0  0  0  0  0  0  0  0  0  0  0
    2.7408   -6.3358    1.6256 C   0  0  1  0  0  0  0  0  0  0  0  0
    1.9823   -5.7805    0.5460 O   0  0  0  0  0  0  0  0  0  0  0  0
    3.4599   -5.2542    2.4207 C   0  0  0  0  0  0  0  0  0  0  0  0
    3.0789   -3.9546    2.5209 C   0  0  0  0  0  0  0  0  0  0  0  0
    3.5904   -3.0998    3.5770 C   0  0  0  0  0  0  0  0  0  0  0  0
    2.7500   -2.8590    4.6113 C   0  0  0  0  0  0  0  0  0  0  0  0
    1.3067   -2.2854    4.3494 C   0  0  2  0  0  0  0  0  0  0  0  0
    1.2825   -1.2046    3.2084 C   0  0  0  0  0  0  0  0  0  0  0  0
    1.7337    0.2368    3.6016 C   0  0  0  0  0  0  0  0  0  0  0  0
    3.2637    0.3155    3.8222 C   0  0  0  0  0  0  0  0  0  0  0  0
    1.3643    1.1945    2.4498 C   0  0  0  0  0  0  0  0  0  0  0  0
    0.9744    0.7002    4.8680 C   0  0  0  0  0  0  0  0  0  0  0  0
    1.0356   -0.3466    6.0017 C   0  0  0  0  0  0  0  0  0  0  0  0
    0.5252   -1.7787    5.6155 C   0  0  1  0  0  0  0  0  0  0  0  0
   -1.0314   -1.7339    5.3633 C   0  0  0  0  0  0  0  0  0  0  0  0
   -1.5057   -0.9963    4.4741 O   0  0  0  0  0  0  0  0  0  0  0  0
   -1.7909   -2.4382    6.0735 O   0  0  0  0  0  0  0  0  0  0  0  0
    0.7451   -2.7916    6.7626 C   0  0  0  0  0  0  0  0  0  0  0  0
    2.2086   -2.9780    7.1151 C   0  0  0  0  0  0  0  0  0  0  0  0
    3.0872   -3.5699    5.9698 C   0  0  1  0  0  0  0  0  0  0  0  0
    4.5076   -3.1240    6.4437 C   0  0  0  0  0  0  0  0  0  0  0  0
    3.9577   -7.0729    0.9746 C   0  0  1  0  0  0  0  0  0  0  0  0
    4.5381   -6.2140   -0.0068 O   0  0  0  0  0  0  0  0  0  0  0  0
    0.6958   -9.6978    3.7676 H   0  0  0  0  0  0  0  0  0  0  0  0
    1.0219  -10.6888    2.3581 H   0  0  0  0  0  0  0  0  0  0  0  0
   -0.1400   -9.4023    2.2342 H   0  0  0  0  0  0  0  0  0  0  0  0
    1.8853   -8.7895    1.1427 H   0  0  0  0  0  0  0  0  0  0  0  0
    3.1540  -10.0110    3.5110 H   0  0  0  0  0  0  0  0  0  0  0  0
    3.5773  -10.1004    1.8501 H   0  0  0  0  0  0  0  0  0  0  0  0
    4.6986   -8.3824    4.0316 H   0  0  0  0  0  0  0  0  0  0  0  0
    5.4124   -9.2577    2.7894 H   0  0  0  0  0  0  0  0  0  0  0  0
    6.8169   -7.4696    2.5094 H   0  0  0  0  0  0  0  0  0  0  0  0
    5.4867   -5.2098    2.3420 H   0  0  0  0  0  0  0  0  0  0  0  0
    4.2513   -6.9987    5.7216 H   0  0  0  0  0  0  0  0  0  0  0  0
    4.9889   -5.6568    6.4137 H   0  0  0  0  0  0  0  0  0  0  0  0
    1.5867   -5.5647    7.5364 H   0  0  0  0  0  0  0  0  0  0  0  0
    3.2930   -5.5887    7.9885 H   0  0  0  0  0  0  0  0  0  0  0  0
    2.5695   -6.9333    7.1280 H   0  0  0  0  0  0  0  0  0  0  0  0
    0.8743   -5.7281    5.4278 H   0  0  0  0  0  0  0  0  0  0  0  0
    1.5413   -4.9941    4.1123 H   0  0  0  0  0  0  0  0  0  0  0  0
    2.8346   -7.5983    4.4896 H   0  0  0  0  0  0  0  0  0  0  0  0
    1.1875   -7.7051    4.6199 H   0  0  0  0  0  0  0  0  0  0  0  0
    0.1922   -5.7277    2.4305 H   0  0  0  0  0  0  0  0  0  0  0  0
   -0.3824   -7.2610    3.0549 H   0  0  0  0  0  0  0  0  0  0  0  0
   -0.0437   -7.1016    1.3395 H   0  0  0  0  0  0  0  0  0  0  0  0
    2.6118   -5.4594   -0.0935 H   0  0  0  0  0  0  0  0  0  0  0  0
    2.1699   -3.6623    2.0179 H   0  0  0  0  0  0  0  0  0  0  0  0
    4.6191   -3.3360    3.7953 H   0  0  0  0  0  0  0  0  0  0  0  0
    0.7128   -3.1109    3.9674 H   0  0  0  0  0  0  0  0  0  0  0  0
    1.8501   -1.5205    2.3335 H   0  0  0  0  0  0  0  0  0  0  0  0
    0.2600   -1.1400    2.8431 H   0  0  0  0  0  0  0  0  0  0  0  0
    3.5838    1.3391    4.0369 H   0  0  0  0  0  0  0  0  0  0  0  0
    3.8023   -0.0228    2.9332 H   0  0  0  0  0  0  0  0  0  0  0  0
    3.5917   -0.3038    4.6560 H   0  0  0  0  0  0  0  0  0  0  0  0
    1.6395    2.2251    2.6770 H   0  0  0  0  0  0  0  0  0  0  0  0
    0.2913    1.1822    2.2610 H   0  0  0  0  0  0  0  0  0  0  0  0
    1.8585    0.9127    1.5194 H   0  0  0  0  0  0  0  0  0  0  0  0
    1.3817    1.6516    5.2241 H   0  0  0  0  0  0  0  0  0  0  0  0
   -0.0654    0.9145    4.6188 H   0  0  0  0  0  0  0  0  0  0  0  0
    2.0741   -0.3860    6.3101 H   0  0  0  0  0  0  0  0  0  0  0  0
    0.4955    0.0217    6.8736 H   0  0  0  0  0  0  0  0  0  0  0  0
    0.2299   -2.4722    7.6675 H   0  0  0  0  0  0  0  0  0  0  0  0
    0.3355   -3.7645    6.4936 H   0  0  0  0  0  0  0  0  0  0  0  0
    2.6013   -2.0204    7.4539 H   0  0  0  0  0  0  0  0  0  0  0  0
    2.2897   -3.5488    8.0356 H   0  0  0  0  0  0  0  0  0  0  0  0
    4.7303   -3.5104    7.4418 H   0  0  0  0  0  0  0  0  0  0  0  0
    4.5715   -2.0358    6.5034 H   0  0  0  0  0  0  0  0  0  0  0  0
    5.3285   -3.4206    5.7973 H   0  0  0  0  0  0  0  0  0  0  0  0
    3.7592   -8.0239    0.4801 H   0  0  0  0  0  0  0  0  0  0  0  0
    4.0688   -6.3135   -0.8297 H   0  0  0  0  0  0  0  0  0  0  0  0
  1  2  1  0
  1 40  1  0
  1 41  1  0
  1 42  1  0
  2 15  1  0
  2  3  1  0
  2 43  1  6
  3  4  1  0
  3 44  1  0
  3 45  1  0
  4  5  1  0
  4 46  1  0
  4 47  1  0
  5 38  1  0
  5  6  1  6
  5  7  1  0
  6 48  1  0
  7 19  1  0
  7  8  1  0
  7 49  1  6
  8  9  2  0
  8 10  1  0
 10 11  1  0
 10 50  1  0
 10 51  1  0
 11 36  1  0
 11 12  1  1
 11 13  1  0
 12 52  1  0
 12 53  1  0
 12 54  1  0
 13 14  1  0
 13 55  1  0
 13 56  1  0
 14 15  1  0
 14 57  1  0
 14 58  1  0
 15 16  1  1
 15 17  1  0
 16 59  1  0
 16 60  1  0
 16 61  1  0
 17 18  1  6
 17 19  1  0
 17 38  1  0
 18 62  1  0
 19 20  2  3
 20 21  1  0
 20 63  1  0
 21 22  2  3
 21 64  1  0
 22 36  1  0
 22 23  1  0
 23 30  1  0
 23 24  1  0
 23 65  1  6
 24 25  1  0
 24 66  1  0
 24 67  1  0
 25 26  1  0
 25 27  1  0
 25 28  1  0
 26 68  1  0
 26 69  1  0
 26 70  1  0
 27 71  1  0
 27 72  1  0
 27 73  1  0
 28 29  1  0
 28 74  1  0
 28 75  1  0
 29 30  1  0
 29 76  1  0
 29 77  1  0
 30 31  1  6
 30 34  1  0
 31 32  2  0
 31 33  1  0
 34 35  1  0
 34 78  1  0
 34 79  1  0
 35 36  1  0
 35 80  1  0
 35 81  1  0
 36 37  1  1
 37 82  1  0
 37 83  1  0
 37 84  1  0
 38 39  1  0
 38 85  1  6
 39 86  1  0
M  CHG  1  33  -1
M  END
>  <i_m_ct_stereo_status>  (295) 
1

>  <s_m_source_file>  (295) 
/var/tmp/pbs.5076255.sched01/tmpz7l6rxva/92z_h6r8yo.sdf

>  <i_m_source_file_index>  (295) 
30

>  <i_lp_mmshare_version>  (295) 
48012

>  <i_f3d_flags>  (295) 
2

>  <s_epik_input>  (295) 
W09IXVtDQF0xMltDQEhdMy9DPTRbQ0BAXShbT0hdKShbQ0BIXTJbT0hdKVtDQEBdKFtDSDNdKShbQ0BIXShbQ0gzXSlbQ0gyXVtDSDJdMSlbQ0gyXVtDSDJdW0NAQF0oW0NIM10pKFtDSDJdQzM9TylbQ0BdNShbQ0gzXSlDKD1bQ0hdL1tDSF00KVxbQ0BIXTZbQ0BdKEMoPU8pW09IXSkoW0NIMl1bQ0gyXTUpW0NIMl1bQ0gyXUMoW0NIMl02KShbQ0gzXSlbQ0gzXQ==

>  <s_epik_cmdline>  (295) 
J2VwaWtfcHl0aG9uJywgJy1waHQnLCAnMi4wJywgJy1waCcsICc3LjAnLCAnLXRuJywgJzgnLCAnLW1hJywgJzIwMCcsICctaW1hZScsICc8aW5maWxlLm1hZT4nLCAnLW9tYWUnLCAnPG91dGZpbGUubWFlPic=

>  <r_epik_Ionization_Penalty>  (295) 
0.00589253

>  <r_epik_Ionization_Penalty_Charging>  (295) 
0.00589237

>  <r_epik_Ionization_Penalty_Neutral>  (295) 
1.52714e-07

>  <r_epik_State_Penalty>  (295) 
0.00433199

>  <r_epik_Charging_Adjusted_Penalty>  (295) 
0.0102244

>  <i_epik_Tot_Q>  (295) 
-1

>  <i_epik_Tot_abs_Q>  (295) 
1

>  <s_lp_Force_Field>  (295) 
OPLS3e

>  <r_lp_Energy>  (295) 
188.706

>  <b_lp_Chiralities_Consistent>  (295) 
0

>  <s_lp_Variant>  (295) 
78:0-3

>  <s_i_glide_gridfile>  (295) 
pfpi4k_grid

>  <i_i_glide_lignum>  (295) 
30

>  <i_i_glide_rotatable_bonds>  (295) 
4

>  <r_i_docking_score>  (295) 
-2.67797

>  <r_i_glide_ligand_efficiency>  (295) 
-0.068666

>  <r_i_glide_ligand_efficiency_sa>  (295) 
-0.232861

>  <r_i_glide_ligand_efficiency_ln>  (295) 
-0.574233

>  <r_i_glide_gscore>  (295) 
-2.67797

>  <r_i_glide_lipo>  (295) 
-0.186627

>  <r_i_glide_hbond>  (295) 
-0.00198342

>  <r_i_glide_metal>  (295) 
-0

>  <r_i_glide_rewards>  (295) 
-3.45336e-05

>  <r_i_glide_evdw>  (295) 
-30.281

>  <r_i_glide_ecoul>  (295) 
-6.27099

>  <r_i_glide_erotb>  (295) 
0

>  <r_i_glide_esite>  (295) 
-0.03463

>  <r_i_glide_emodel>  (295) 
-42.3895

>  <r_i_glide_energy>  (295) 
-36.552

>  <r_i_glide_einternal>  (295) 
5.26315

>  <r_i_glide_intrahb_reward>  (295) 
-0

>  <i_i_glide_confnum>  (295) 
1

>  <i_i_glide_posenum>  (295) 
36

>  <r_i_glide_eff_state_penalty>  (295) 
0

>  <ligand_id>  (295) 
78

>  <original_smiles>  (295) 
CC1CCC2(O)C3C(=O)CC4(C)CCC1(C)C(O)(C3=CC=C1C3CC(C)(C)CCC3(C(=O)O)CCC14C)C2O

>  <smiles>  (295) 
[H]OC1([H])C2(O[H])C3=C([H])C([H])=C4C5([H])C([H])([H])C(C([H])([H])[H])(C([H])([H])[H])C([H])([H])C([H])([H])C5(C(=O)[O-])C([H])([H])C([H])([H])C4(C([H])([H])[H])C4(C([H])([H])[H])C([H])([H])C(=O)C3([H])C1(O[H])C([H])([H])C([H])([H])C([H])(C([H])([H])[H])C2(C([H])([H])[H])C([H])([H])C4([H])[H]

$$$$
78:2:1
     RDKit          3D

 86 91  0  0  1  0  0  0  0  0999 V2000
   -1.6203   -9.2188    2.6630 C   0  0  0  0  0  0  0  0  0  0  0  0
   -0.0821   -9.0760    2.7419 C   0  0  2  0  0  0  0  0  0  0  0  0
    0.5406  -10.4865    3.0288 C   0  0  0  0  0  0  0  0  0  0  0  0
    1.9166  -10.6978    3.7368 C   0  0  0  0  0  0  0  0  0  0  0  0
    3.0825   -9.6894    3.4980 C   0  0  2  0  0  0  0  0  0  0  0  0
    4.2346  -10.4437    3.1303 O   0  0  0  0  0  0  0  0  0  0  0  0
    3.4711   -8.7352    4.6823 C   0  0  2  0  0  0  0  0  0  0  0  0
    3.4725   -9.2544    6.1400 C   0  0  0  0  0  0  0  0  0  0  0  0
    4.5036   -9.7707    6.5591 O   0  0  0  0  0  0  0  0  0  0  0  0
    2.2714   -9.2019    7.1084 C   0  0  0  0  0  0  0  0  0  0  0  0
    1.4672   -7.8980    7.4883 C   0  0  2  0  0  0  0  0  0  0  0  0
    0.4147   -8.5121    8.4579 C   0  0  0  0  0  0  0  0  0  0  0  0
    0.5729   -7.3550    6.2980 C   0  0  0  0  0  0  0  0  0  0  0  0
    0.1799   -8.3209    5.1402 C   0  0  0  0  0  0  0  0  0  0  0  0
    0.4473   -7.9107    3.6347 C   0  0  2  0  0  0  0  0  0  0  0  0
   -0.4520   -6.6682    3.4084 C   0  0  0  0  0  0  0  0  0  0  0  0
    1.9548   -7.5615    3.1715 C   0  0  1  0  0  0  0  0  0  0  0  0
    1.9796   -6.4169    2.3279 O   0  0  0  0  0  0  0  0  0  0  0  0
    2.8534   -7.3717    4.3804 C   0  0  0  0  0  0  0  0  0  0  0  0
    3.1899   -6.1787    4.9220 C   0  0  0  0  0  0  0  0  0  0  0  0
    3.7283   -6.0868    6.2717 C   0  0  0  0  0  0  0  0  0  0  0  0
    2.8774   -5.6656    7.2378 C   0  0  0  0  0  0  0  0  0  0  0  0
    2.0888   -4.3227    7.0725 C   0  0  2  0  0  0  0  0  0  0  0  0
    2.9367   -3.1674    6.4379 C   0  0  0  0  0  0  0  0  0  0  0  0
    3.9242   -2.4256    7.3824 C   0  0  0  0  0  0  0  0  0  0  0  0
    5.1337   -3.3159    7.7654 C   0  0  0  0  0  0  0  0  0  0  0  0
    4.4790   -1.1834    6.6552 C   0  0  0  0  0  0  0  0  0  0  0  0
    3.1619   -1.9531    8.6359 C   0  0  0  0  0  0  0  0  0  0  0  0
    2.3770   -3.0968    9.3014 C   0  0  0  0  0  0  0  0  0  0  0  0
    1.3490   -3.7915    8.3449 C   0  0  1  0  0  0  0  0  0  0  0  0
    0.2087   -2.7851    7.9911 C   0  0  0  0  0  0  0  0  0  0  0  0
   -0.1778   -2.0098    8.8899 O   0  0  0  0  0  0  0  0  0  0  0  0
   -0.3381   -2.8429    6.8662 O   0  0  0  0  0  0  0  0  0  0  0  0
    0.6283   -4.9618    9.0278 C   0  0  0  0  0  0  0  0  0  0  0  0
    1.5981   -6.0667    9.4295 C   0  0  0  0  0  0  0  0  0  0  0  0
    2.3564   -6.7475    8.2438 C   0  0  1  0  0  0  0  0  0  0  0  0
    3.5754   -7.3638    8.9944 C   0  0  0  0  0  0  0  0  0  0  0  0
    2.7142   -8.6850    2.3900 C   0  0  1  0  0  0  0  0  0  0  0  0
    3.9000   -8.1452    1.8229 O   0  0  0  0  0  0  0  0  0  0  0  0
   -2.0610   -9.4272    3.6381 H   0  0  0  0  0  0  0  0  0  0  0  0
   -1.8752  -10.0627    2.0234 H   0  0  0  0  0  0  0  0  0  0  0  0
   -2.1167   -8.3467    2.2354 H   0  0  0  0  0  0  0  0  0  0  0  0
    0.1597   -8.8019    1.7146 H   0  0  0  0  0  0  0  0  0  0  0  0
   -0.1844  -11.0588    3.6041 H   0  0  0  0  0  0  0  0  0  0  0  0
    0.5840  -11.0097    2.0811 H   0  0  0  0  0  0  0  0  0  0  0  0
    1.7649  -10.8976    4.7964 H   0  0  0  0  0  0  0  0  0  0  0  0
    2.2486  -11.6780    3.3921 H   0  0  0  0  0  0  0  0  0  0  0  0
    4.0163  -11.0296    2.4097 H   0  0  0  0  0  0  0  0  0  0  0  0
    4.5243   -8.5018    4.5163 H   0  0  0  0  0  0  0  0  0  0  0  0
    1.5960  -10.0073    6.8303 H   0  0  0  0  0  0  0  0  0  0  0  0
    2.6719   -9.5898    8.0456 H   0  0  0  0  0  0  0  0  0  0  0  0
   -0.3435   -7.7951    8.7748 H   0  0  0  0  0  0  0  0  0  0  0  0
    0.8765   -8.9347    9.3527 H   0  0  0  0  0  0  0  0  0  0  0  0
   -0.1371   -9.3212    7.9767 H   0  0  0  0  0  0  0  0  0  0  0  0
   -0.3445   -6.9400    6.7093 H   0  0  0  0  0  0  0  0  0  0  0  0
    0.9504   -6.4697    5.8347 H   0  0  0  0  0  0  0  0  0  0  0  0
    0.5152   -9.3221    5.3357 H   0  0  0  0  0  0  0  0  0  0  0  0
   -0.8948   -8.4648    5.2541 H   0  0  0  0  0  0  0  0  0  0  0  0
   -0.0371   -5.7785    3.8854 H   0  0  0  0  0  0  0  0  0  0  0  0
   -1.4541   -6.8096    3.8243 H   0  0  0  0  0  0  0  0  0  0  0  0
   -0.5651   -6.4715    2.3408 H   0  0  0  0  0  0  0  0  0  0  0  0
    2.8782   -6.3464    2.0190 H   0  0  0  0  0  0  0  0  0  0  0  0
    2.7504   -5.2844    4.4900 H   0  0  0  0  0  0  0  0  0  0  0  0
    4.3611   -6.9300    6.4838 H   0  0  0  0  0  0  0  0  0  0  0  0
    1.3246   -4.5355    6.3359 H   0  0  0  0  0  0  0  0  0  0  0  0
    3.4775   -3.4940    5.5509 H   0  0  0  0  0  0  0  0  0  0  0  0
    2.2315   -2.4261    6.0634 H   0  0  0  0  0  0  0  0  0  0  0  0
    5.8541   -2.7754    8.3853 H   0  0  0  0  0  0  0  0  0  0  0  0
    5.6585   -3.6677    6.8736 H   0  0  0  0  0  0  0  0  0  0  0  0
    4.8330   -4.1996    8.3287 H   0  0  0  0  0  0  0  0  0  0  0  0
    5.1646   -0.6182    7.2883 H   0  0  0  0  0  0  0  0  0  0  0  0
    3.6709   -0.5091    6.3700 H   0  0  0  0  0  0  0  0  0  0  0  0
    5.0133   -1.4576    5.7451 H   0  0  0  0  0  0  0  0  0  0  0  0
    3.8511   -1.5126    9.3567 H   0  0  0  0  0  0  0  0  0  0  0  0
    2.4691   -1.1572    8.3651 H   0  0  0  0  0  0  0  0  0  0  0  0
    3.1122   -3.8044    9.6793 H   0  0  0  0  0  0  0  0  0  0  0  0
    1.8735   -2.7156   10.1922 H   0  0  0  0  0  0  0  0  0  0  0  0
    0.1009   -4.6095    9.9174 H   0  0  0  0  0  0  0  0  0  0  0  0
   -0.1378   -5.3666    8.3654 H   0  0  0  0  0  0  0  0  0  0  0  0
    2.3040   -5.6445   10.1428 H   0  0  0  0  0  0  0  0  0  0  0  0
    1.0915   -6.7815   10.0733 H   0  0  0  0  0  0  0  0  0  0  0  0
    3.2566   -8.0455    9.7859 H   0  0  0  0  0  0  0  0  0  0  0  0
    4.1730   -6.5801    9.4675 H   0  0  0  0  0  0  0  0  0  0  0  0
    4.2751   -7.9071    8.3666 H   0  0  0  0  0  0  0  0  0  0  0  0
    2.2064   -9.1447    1.5420 H   0  0  0  0  0  0  0  0  0  0  0  0
    4.3728   -8.8865    1.4635 H   0  0  0  0  0  0  0  0  0  0  0  0
  1  2  1  0
  1 40  1  0
  1 41  1  0
  1 42  1  0
  2 15  1  0
  2  3  1  0
  2 43  1  6
  3  4  1  0
  3 44  1  0
  3 45  1  0
  4  5  1  0
  4 46  1  0
  4 47  1  0
  5 38  1  0
  5  6  1  6
  5  7  1  0
  6 48  1  0
  7 19  1  0
  7  8  1  0
  7 49  1  6
  8  9  2  0
  8 10  1  0
 10 11  1  0
 10 50  1  0
 10 51  1  0
 11 36  1  0
 11 12  1  1
 11 13  1  0
 12 52  1  0
 12 53  1  0
 12 54  1  0
 13 14  1  0
 13 55  1  0
 13 56  1  0
 14 15  1  0
 14 57  1  0
 14 58  1  0
 15 16  1  6
 15 17  1  0
 16 59  1  0
 16 60  1  0
 16 61  1  0
 17 18  1  6
 17 19  1  0
 17 38  1  0
 18 62  1  0
 19 20  2  3
 20 21  1  0
 20 63  1  0
 21 22  2  3
 21 64  1  0
 22 36  1  0
 22 23  1  0
 23 30  1  0
 23 24  1  0
 23 65  1  6
 24 25  1  0
 24 66  1  0
 24 67  1  0
 25 26  1  0
 25 27  1  0
 25 28  1  0
 26 68  1  0
 26 69  1  0
 26 70  1  0
 27 71  1  0
 27 72  1  0
 27 73  1  0
 28 29  1  0
 28 74  1  0
 28 75  1  0
 29 30  1  0
 29 76  1  0
 29 77  1  0
 30 31  1  6
 30 34  1  0
 31 32  2  0
 31 33  1  0
 34 35  1  0
 34 78  1  0
 34 79  1  0
 35 36  1  0
 35 80  1  0
 35 81  1  0
 36 37  1  1
 37 82  1  0
 37 83  1  0
 37 84  1  0
 38 39  1  0
 38 85  1  6
 39 86  1  0
M  CHG  1  33  -1
M  END
>  <i_m_ct_stereo_status>  (296) 
1

>  <s_m_source_file>  (296) 
/var/tmp/pbs.5076255.sched01/tmpz7l6rxva/92z_h6r8yo.sdf

>  <i_m_source_file_index>  (296) 
30

>  <i_lp_mmshare_version>  (296) 
48012

>  <i_f3d_flags>  (296) 
2

>  <s_epik_input>  (296) 
W09IXVtDQF0xMltDQEhdMy9DPTRbQ0BAXShbT0hdKShbQ0BIXTJbT0hdKVtDQEBdKFtDSDNdKShbQ0BIXShbQ0gzXSlbQ0gyXVtDSDJdMSlbQ0gyXVtDSDJdW0NAQF0oW0NIM10pKFtDSDJdQzM9TylbQ0BdNShbQ0gzXSlDKD1bQ0hdL1tDSF00KVxbQ0BIXTZbQ0BdKEMoPU8pW09IXSkoW0NIMl1bQ0gyXTUpW0NIMl1bQ0gyXUMoW0NIMl02KShbQ0gzXSlbQ0gzXQ==

>  <s_epik_cmdline>  (296) 
J2VwaWtfcHl0aG9uJywgJy1waHQnLCAnMi4wJywgJy1waCcsICc3LjAnLCAnLXRuJywgJzgnLCAnLW1hJywgJzIwMCcsICctaW1hZScsICc8aW5maWxlLm1hZT4nLCAnLW9tYWUnLCAnPG91dGZpbGUubWFlPic=

>  <r_epik_Ionization_Penalty>  (296) 
0.00589253

>  <r_epik_Ionization_Penalty_Charging>  (296) 
0.00589237

>  <r_epik_Ionization_Penalty_Neutral>  (296) 
1.52714e-07

>  <r_epik_State_Penalty>  (296) 
0.00433199

>  <r_epik_Charging_Adjusted_Penalty>  (296) 
0.0102244

>  <i_epik_Tot_Q>  (296) 
-1

>  <i_epik_Tot_abs_Q>  (296) 
1

>  <s_lp_Force_Field>  (296) 
OPLS3e

>  <r_lp_Energy>  (296) 
188.706

>  <b_lp_Chiralities_Consistent>  (296) 
0

>  <s_lp_Variant>  (296) 
78:0-3

>  <s_i_glide_gridfile>  (296) 
pfpi4k_grid

>  <i_i_glide_lignum>  (296) 
30

>  <i_i_glide_rotatable_bonds>  (296) 
4

>  <r_i_docking_score>  (296) 
-2.66161

>  <r_i_glide_ligand_efficiency>  (296) 
-0.0682463

>  <r_i_glide_ligand_efficiency_sa>  (296) 
-0.231438

>  <r_i_glide_ligand_efficiency_ln>  (296) 
-0.570724

>  <r_i_glide_gscore>  (296) 
-2.66161

>  <r_i_glide_lipo>  (296) 
-0.218833

>  <r_i_glide_hbond>  (296) 
-0.2

>  <r_i_glide_metal>  (296) 
-0

>  <r_i_glide_rewards>  (296) 
0

>  <r_i_glide_evdw>  (296) 
-26.6292

>  <r_i_glide_ecoul>  (296) 
-5.67501

>  <r_i_glide_erotb>  (296) 
0

>  <r_i_glide_esite>  (296) 
-0.0600617

>  <r_i_glide_emodel>  (296) 
-40.5874

>  <r_i_glide_energy>  (296) 
-32.3042

>  <r_i_glide_einternal>  (296) 
0.439224

>  <r_i_glide_intrahb_reward>  (296) 
-0

>  <i_i_glide_confnum>  (296) 
1

>  <i_i_glide_posenum>  (296) 
27

>  <r_i_glide_eff_state_penalty>  (296) 
0

>  <ligand_id>  (296) 
78

>  <original_smiles>  (296) 
CC1CCC2(O)C3C(=O)CC4(C)CCC1(C)C(O)(C3=CC=C1C3CC(C)(C)CCC3(C(=O)O)CCC14C)C2O

>  <smiles>  (296) 
[H]OC1([H])C2(O[H])C3=C([H])C([H])=C4C5([H])C([H])([H])C(C([H])([H])[H])(C([H])([H])[H])C([H])([H])C([H])([H])C5(C(=O)[O-])C([H])([H])C([H])([H])C4(C([H])([H])[H])C4(C([H])([H])[H])C([H])([H])C(=O)C3([H])C1(O[H])C([H])([H])C([H])([H])C([H])(C([H])([H])[H])C2(C([H])([H])[H])C([H])([H])C4([H])[H]

$$$$
78:2:2
     RDKit          3D

 86 91  0  0  1  0  0  0  0  0999 V2000
   -1.6560   -9.2209    2.6914 C   0  0  0  0  0  0  0  0  0  0  0  0
   -0.1182   -9.0645    2.7346 C   0  0  2  0  0  0  0  0  0  0  0  0
    0.5285  -10.4653    3.0010 C   0  0  0  0  0  0  0  0  0  0  0  0
    1.9246  -10.6605    3.6775 C   0  0  0  0  0  0  0  0  0  0  0  0
    3.0694   -9.6296    3.4162 C   0  0  2  0  0  0  0  0  0  0  0  0
    4.2260  -10.3666    3.0392 O   0  0  0  0  0  0  0  0  0  0  0  0
    3.4721   -8.6778    4.5954 C   0  0  2  0  0  0  0  0  0  0  0  0
    3.5156   -9.2049    6.0501 C   0  0  0  0  0  0  0  0  0  0  0  0
    4.5645   -9.7067    6.4416 O   0  0  0  0  0  0  0  0  0  0  0  0
    2.3379   -9.1739    7.0464 C   0  0  0  0  0  0  0  0  0  0  0  0
    1.5258   -7.8813    7.4488 C   0  0  2  0  0  0  0  0  0  0  0  0
    0.5065   -8.5143    8.4410 C   0  0  0  0  0  0  0  0  0  0  0  0
    0.5955   -7.3500    6.2825 C   0  0  0  0  0  0  0  0  0  0  0  0
    0.1889   -8.3180    5.1311 C   0  0  0  0  0  0  0  0  0  0  0  0
    0.4149   -7.8964    3.6214 C   0  0  2  0  0  0  0  0  0  0  0  0
   -0.5084   -6.6699    3.4217 C   0  0  0  0  0  0  0  0  0  0  0  0
    1.9026   -7.5231    3.1233 C   0  0  1  0  0  0  0  0  0  0  0  0
    1.8846   -6.3673    2.2885 O   0  0  0  0  0  0  0  0  0  0  0  0
    2.8240   -7.3263    4.3124 C   0  0  0  0  0  0  0  0  0  0  0  0
    3.1593   -6.1304    4.8489 C   0  0  0  0  0  0  0  0  0  0  0  0
    3.7314   -6.0372    6.1817 C   0  0  0  0  0  0  0  0  0  0  0  0
    2.8998   -5.6279    7.1706 C   0  0  0  0  0  0  0  0  0  0  0  0
    2.0884   -4.2967    7.0266 C   0  0  2  0  0  0  0  0  0  0  0  0
    2.9065   -3.1291    6.3754 C   0  0  0  0  0  0  0  0  0  0  0  0
    3.9031   -2.3736    7.2997 C   0  0  0  0  0  0  0  0  0  0  0  0
    5.1318   -3.2466    7.6499 C   0  0  0  0  0  0  0  0  0  0  0  0
    4.4193   -1.1221    6.5627 C   0  0  0  0  0  0  0  0  0  0  0  0
    3.1637   -1.9160    8.5730 C   0  0  0  0  0  0  0  0  0  0  0  0
    2.4097   -3.0741    9.2500 C   0  0  0  0  0  0  0  0  0  0  0  0
    1.3692   -3.7781    8.3142 C   0  0  1  0  0  0  0  0  0  0  0  0
    0.2152   -2.7781    7.9855 C   0  0  0  0  0  0  0  0  0  0  0  0
   -0.3312   -2.8039    6.8569 O   0  0  0  0  0  0  0  0  0  0  0  0
   -0.1775   -2.0370    8.9100 O   0  0  0  0  0  0  0  0  0  0  0  0
    0.6822   -4.9590    9.0122 C   0  0  0  0  0  0  0  0  0  0  0  0
    1.6749   -6.0522    9.3882 C   0  0  0  0  0  0  0  0  0  0  0  0
    2.4157   -6.7196    8.1848 C   0  0  1  0  0  0  0  0  0  0  0  0
    3.6598   -7.3210    8.9038 C   0  0  0  0  0  0  0  0  0  0  0  0
    2.6700   -8.6223    2.3173 C   0  0  1  0  0  0  0  0  0  0  0  0
    3.8176   -8.0375    1.7152 O   0  0  0  0  0  0  0  0  0  0  0  0
   -2.0717   -9.4048    3.6806 H   0  0  0  0  0  0  0  0  0  0  0  0
   -1.9193  -10.0783    2.0717 H   0  0  0  0  0  0  0  0  0  0  0  0
   -2.1727   -8.3598    2.2666 H   0  0  0  0  0  0  0  0  0  0  0  0
    0.0968   -8.7864    1.7029 H   0  0  0  0  0  0  0  0  0  0  0  0
   -0.1734  -11.0531    3.5890 H   0  0  0  0  0  0  0  0  0  0  0  0
    0.5505  -10.9821    2.0477 H   0  0  0  0  0  0  0  0  0  0  0  0
    1.7978  -10.8706    4.7390 H   0  0  0  0  0  0  0  0  0  0  0  0
    2.2601  -11.6350    3.3208 H   0  0  0  0  0  0  0  0  0  0  0  0
    4.0144  -10.9275    2.2971 H   0  0  0  0  0  0  0  0  0  0  0  0
    4.5215   -8.4344    4.4081 H   0  0  0  0  0  0  0  0  0  0  0  0
    1.6680   -9.9886    6.7808 H   0  0  0  0  0  0  0  0  0  0  0  0
    2.7683   -9.5588    7.9716 H   0  0  0  0  0  0  0  0  0  0  0  0
   -0.2540   -7.8097    8.7788 H   0  0  0  0  0  0  0  0  0  0  0  0
    0.9956   -8.9334    9.3223 H   0  0  0  0  0  0  0  0  0  0  0  0
   -0.0448   -9.3301    7.9709 H   0  0  0  0  0  0  0  0  0  0  0  0
   -0.3172   -6.9513    6.7189 H   0  0  0  0  0  0  0  0  0  0  0  0
    0.9474   -6.4589    5.8127 H   0  0  0  0  0  0  0  0  0  0  0  0
    0.5426   -9.3138    5.3128 H   0  0  0  0  0  0  0  0  0  0  0  0
   -0.8805   -8.4762    5.2697 H   0  0  0  0  0  0  0  0  0  0  0  0
   -0.0978   -5.7727    3.8877 H   0  0  0  0  0  0  0  0  0  0  0  0
   -1.4984   -6.8221    3.8603 H   0  0  0  0  0  0  0  0  0  0  0  0
   -0.6491   -6.4747    2.3572 H   0  0  0  0  0  0  0  0  0  0  0  0
    2.7535   -6.3105    1.8981 H   0  0  0  0  0  0  0  0  0  0  0  0
    2.6997   -5.2431    4.4287 H   0  0  0  0  0  0  0  0  0  0  0  0
    4.3812   -6.8711    6.3776 H   0  0  0  0  0  0  0  0  0  0  0  0
    1.3083   -4.5209    6.3104 H   0  0  0  0  0  0  0  0  0  0  0  0
    3.4299   -3.4457    5.4752 H   0  0  0  0  0  0  0  0  0  0  0  0
    2.1857   -2.3975    6.0147 H   0  0  0  0  0  0  0  0  0  0  0  0
    5.8587   -2.6987    8.2547 H   0  0  0  0  0  0  0  0  0  0  0  0
    5.6390   -3.5897    6.7450 H   0  0  0  0  0  0  0  0  0  0  0  0
    4.8574   -4.1353    8.2163 H   0  0  0  0  0  0  0  0  0  0  0  0
    5.1103   -0.5477    7.1808 H   0  0  0  0  0  0  0  0  0  0  0  0
    3.5945   -0.4609    6.3002 H   0  0  0  0  0  0  0  0  0  0  0  0
    4.9338   -1.3855    5.6383 H   0  0  0  0  0  0  0  0  0  0  0  0
    3.8638   -1.4672    9.2792 H   0  0  0  0  0  0  0  0  0  0  0  0
    2.4533   -1.1289    8.3212 H   0  0  0  0  0  0  0  0  0  0  0  0
    3.1626   -3.7710    9.6114 H   0  0  0  0  0  0  0  0  0  0  0  0
    1.9226   -2.7027   10.1525 H   0  0  0  0  0  0  0  0  0  0  0  0
    0.1706   -4.6139    9.9109 H   0  0  0  0  0  0  0  0  0  0  0  0
   -0.0954   -5.3664    8.3690 H   0  0  0  0  0  0  0  0  0  0  0  0
    2.3910   -5.6236   10.0860 H   0  0  0  0  0  0  0  0  0  0  0  0
    1.1945   -6.7749   10.0419 H   0  0  0  0  0  0  0  0  0  0  0  0
    3.3718   -8.0097    9.7015 H   0  0  0  0  0  0  0  0  0  0  0  0
    4.2570   -6.5315    9.3640 H   0  0  0  0  0  0  0  0  0  0  0  0
    4.3532   -7.8513    8.2583 H   0  0  0  0  0  0  0  0  0  0  0  0
    2.1447   -9.0927    1.4832 H   0  0  0  0  0  0  0  0  0  0  0  0
    4.4599   -7.8936    2.4062 H   0  0  0  0  0  0  0  0  0  0  0  0
  1  2  1  0
  1 40  1  0
  1 41  1  0
  1 42  1  0
  2 15  1  0
  2  3  1  0
  2 43  1  6
  3  4  1  0
  3 44  1  0
  3 45  1  0
  4  5  1  0
  4 46  1  0
  4 47  1  0
  5 38  1  0
  5  6  1  6
  5  7  1  0
  6 48  1  0
  7 19  1  0
  7  8  1  0
  7 49  1  6
  8  9  2  0
  8 10  1  0
 10 11  1  0
 10 50  1  0
 10 51  1  0
 11 36  1  0
 11 12  1  1
 11 13  1  0
 12 52  1  0
 12 53  1  0
 12 54  1  0
 13 14  1  0
 13 55  1  0
 13 56  1  0
 14 15  1  0
 14 57  1  0
 14 58  1  0
 15 16  1  6
 15 17  1  0
 16 59  1  0
 16 60  1  0
 16 61  1  0
 17 18  1  6
 17 19  1  0
 17 38  1  0
 18 62  1  0
 19 20  2  3
 20 21  1  0
 20 63  1  0
 21 22  2  3
 21 64  1  0
 22 36  1  0
 22 23  1  0
 23 30  1  0
 23 24  1  0
 23 65  1  6
 24 25  1  0
 24 66  1  0
 24 67  1  0
 25 26  1  0
 25 27  1  0
 25 28  1  0
 26 68  1  0
 26 69  1  0
 26 70  1  0
 27 71  1  0
 27 72  1  0
 27 73  1  0
 28 29  1  0
 28 74  1  0
 28 75  1  0
 29 30  1  0
 29 76  1  0
 29 77  1  0
 30 31  1  6
 30 34  1  0
 31 32  2  0
 31 33  1  0
 34 35  1  0
 34 78  1  0
 34 79  1  0
 35 36  1  0
 35 80  1  0
 35 81  1  0
 36 37  1  1
 37 82  1  0
 37 83  1  0
 37 84  1  0
 38 39  1  0
 38 85  1  6
 39 86  1  0
M  CHG  1  33  -1
M  END
>  <i_m_ct_stereo_status>  (297) 
1

>  <s_m_source_file>  (297) 
/var/tmp/pbs.5076255.sched01/tmpz7l6rxva/92z_h6r8yo.sdf

>  <i_m_source_file_index>  (297) 
30

>  <i_lp_mmshare_version>  (297) 
48012

>  <i_f3d_flags>  (297) 
2

>  <s_epik_input>  (297) 
W09IXVtDQF0xMltDQEhdMy9DPTRbQ0BAXShbT0hdKShbQ0BIXTJbT0hdKVtDQEBdKFtDSDNdKShbQ0BIXShbQ0gzXSlbQ0gyXVtDSDJdMSlbQ0gyXVtDSDJdW0NAQF0oW0NIM10pKFtDSDJdQzM9TylbQ0BdNShbQ0gzXSlDKD1bQ0hdL1tDSF00KVxbQ0BIXTZbQ0BdKEMoPU8pW09IXSkoW0NIMl1bQ0gyXTUpW0NIMl1bQ0gyXUMoW0NIMl02KShbQ0gzXSlbQ0gzXQ==

>  <s_epik_cmdline>  (297) 
J2VwaWtfcHl0aG9uJywgJy1waHQnLCAnMi4wJywgJy1waCcsICc3LjAnLCAnLXRuJywgJzgnLCAnLW1hJywgJzIwMCcsICctaW1hZScsICc8aW5maWxlLm1hZT4nLCAnLW9tYWUnLCAnPG91dGZpbGUubWFlPic=

>  <r_epik_Ionization_Penalty>  (297) 
0.00589253

>  <r_epik_Ionization_Penalty_Charging>  (297) 
0.00589237

>  <r_epik_Ionization_Penalty_Neutral>  (297) 
1.52714e-07

>  <r_epik_State_Penalty>  (297) 
0.00433199

>  <r_epik_Charging_Adjusted_Penalty>  (297) 
0.0102244

>  <i_epik_Tot_Q>  (297) 
-1

>  <i_epik_Tot_abs_Q>  (297) 
1

>  <s_lp_Force_Field>  (297) 
OPLS3e

>  <r_lp_Energy>  (297) 
188.706

>  <b_lp_Chiralities_Consistent>  (297) 
0

>  <s_lp_Variant>  (297) 
78:0-3

>  <s_i_glide_gridfile>  (297) 
pfpi4k_grid

>  <i_i_glide_lignum>  (297) 
30

>  <i_i_glide_rotatable_bonds>  (297) 
4

>  <r_i_docking_score>  (297) 
-2.66128

>  <r_i_glide_ligand_efficiency>  (297) 
-0.0682378

>  <r_i_glide_ligand_efficiency_sa>  (297) 
-0.231409

>  <r_i_glide_ligand_efficiency_ln>  (297) 
-0.570653

>  <r_i_glide_gscore>  (297) 
-2.66128

>  <r_i_glide_lipo>  (297) 
-0.210941

>  <r_i_glide_hbond>  (297) 
-0.2

>  <r_i_glide_metal>  (297) 
-0

>  <r_i_glide_rewards>  (297) 
0

>  <r_i_glide_evdw>  (297) 
-26.5343

>  <r_i_glide_ecoul>  (297) 
-5.77412

>  <r_i_glide_erotb>  (297) 
0

>  <r_i_glide_esite>  (297) 
-0.0575028

>  <r_i_glide_emodel>  (297) 
-40.5585

>  <r_i_glide_energy>  (297) 
-32.3084

>  <r_i_glide_einternal>  (297) 
0.384679

>  <r_i_glide_intrahb_reward>  (297) 
-0

>  <i_i_glide_confnum>  (297) 
1

>  <i_i_glide_posenum>  (297) 
29

>  <r_i_glide_eff_state_penalty>  (297) 
0

>  <ligand_id>  (297) 
78

>  <original_smiles>  (297) 
CC1CCC2(O)C3C(=O)CC4(C)CCC1(C)C(O)(C3=CC=C1C3CC(C)(C)CCC3(C(=O)O)CCC14C)C2O

>  <smiles>  (297) 
[H]OC1([H])C2(O[H])C3=C([H])C([H])=C4C5([H])C([H])([H])C(C([H])([H])[H])(C([H])([H])[H])C([H])([H])C([H])([H])C5(C(=O)[O-])C([H])([H])C([H])([H])C4(C([H])([H])[H])C4(C([H])([H])[H])C([H])([H])C(=O)C3([H])C1(O[H])C([H])([H])C([H])([H])C([H])(C([H])([H])[H])C2(C([H])([H])[H])C([H])([H])C4([H])[H]

$$$$
78:3:0
     RDKit          3D

 86 91  0  0  1  0  0  0  0  0999 V2000
    1.0209  -11.2290    3.5868 C   0  0  0  0  0  0  0  0  0  0  0  0
    1.2082   -9.8622    2.8886 C   0  0  2  0  0  0  0  0  0  0  0  0
    2.5690   -9.8240    1.9139 C   0  0  0  0  0  0  0  0  0  0  0  0
    3.7065   -8.6165    1.7979 C   0  0  0  0  0  0  0  0  0  0  0  0
    4.0806   -7.6692    3.0643 C   0  0  1  0  0  0  0  0  0  0  0  0
    5.4490   -7.8272    3.3918 O   0  0  0  0  0  0  0  0  0  0  0  0
    3.5773   -6.1673    3.4138 C   0  0  2  0  0  0  0  0  0  0  0  0
    3.9533   -5.6120    4.8447 C   0  0  0  0  0  0  0  0  0  0  0  0
    4.9344   -4.8719    4.9223 O   0  0  0  0  0  0  0  0  0  0  0  0
    3.3022   -6.0885    6.2211 C   0  0  0  0  0  0  0  0  0  0  0  0
    1.7710   -6.2507    6.7598 C   0  0  2  0  0  0  0  0  0  0  0  0
    2.1216   -6.8143    8.1768 C   0  0  0  0  0  0  0  0  0  0  0  0
    0.6957   -7.3909    6.2744 C   0  0  0  0  0  0  0  0  0  0  0  0
    0.8550   -8.7101    5.4250 C   0  0  0  0  0  0  0  0  0  0  0  0
    0.7359   -8.6009    3.8455 C   0  0  2  0  0  0  0  0  0  0  0  0
   -0.7592   -8.2844    3.4967 C   0  0  0  0  0  0  0  0  0  0  0  0
    1.7734   -7.6240    3.3876 C   0  0  1  0  0  0  0  0  0  0  0  0
    1.3505   -7.4333    2.0151 O   0  0  0  0  0  0  0  0  0  0  0  0
    2.0839   -6.1619    3.5783 C   0  0  0  0  0  0  0  0  0  0  0  0
    1.3389   -5.0363    3.4803 C   0  0  0  0  0  0  0  0  0  0  0  0
    0.3474   -4.7414    4.4768 C   0  0  0  0  0  0  0  0  0  0  0  0
    0.8113   -4.1076    5.5774 C   0  0  0  0  0  0  0  0  0  0  0  0
    0.9197   -2.5663    5.6344 C   0  0  2  0  0  0  0  0  0  0  0  0
    0.3009   -1.7438    4.4724 C   0  0  0  0  0  0  0  0  0  0  0  0
    0.0321   -0.2634    4.8792 C   0  0  0  0  0  0  0  0  0  0  0  0
   -0.3755    0.5438    3.6302 C   0  0  0  0  0  0  0  0  0  0  0  0
   -1.1297   -0.1551    5.9021 C   0  0  0  0  0  0  0  0  0  0  0  0
    1.3296    0.3422    5.4699 C   0  0  0  0  0  0  0  0  0  0  0  0
    1.9615   -0.5156    6.5947 C   0  0  0  0  0  0  0  0  0  0  0  0
    2.2707   -1.9739    6.1435 C   0  0  2  0  0  0  0  0  0  0  0  0
    3.4089   -1.9020    5.0829 C   0  0  0  0  0  0  0  0  0  0  0  0
    4.3976   -1.1895    5.3681 O   0  0  0  0  0  0  0  0  0  0  0  0
    3.2987   -2.5293    4.0097 O   0  0  0  0  0  0  0  0  0  0  0  0
    2.7929   -2.8268    7.3321 C   0  0  0  0  0  0  0  0  0  0  0  0
    1.7694   -3.8281    7.9221 C   0  0  0  0  0  0  0  0  0  0  0  0
    1.0169   -4.8176    6.9357 C   0  0  2  0  0  0  0  0  0  0  0  0
   -0.4009   -4.9564    7.5844 C   0  0  0  0  0  0  0  0  0  0  0  0
    3.1571   -8.2766    3.9724 C   0  0  1  0  0  0  0  0  0  0  0  0
    3.5597   -9.6004    4.3622 O   0  0  0  0  0  0  0  0  0  0  0  0
    1.7262  -11.3881    4.4061 H   0  0  0  0  0  0  0  0  0  0  0  0
    1.1510  -12.0485    2.8780 H   0  0  0  0  0  0  0  0  0  0  0  0
    0.0172  -11.3184    4.0072 H   0  0  0  0  0  0  0  0  0  0  0  0
    0.4307   -9.9175    2.1257 H   0  0  0  0  0  0  0  0  0  0  0  0
    3.1185  -10.7452    2.1194 H   0  0  0  0  0  0  0  0  0  0  0  0
    2.2295   -9.9836    0.8915 H   0  0  0  0  0  0  0  0  0  0  0  0
    4.6220   -9.1247    1.4906 H   0  0  0  0  0  0  0  0  0  0  0  0
    3.4951   -7.9819    0.9373 H   0  0  0  0  0  0  0  0  0  0  0  0
    5.6240   -8.7564    3.4308 H   0  0  0  0  0  0  0  0  0  0  0  0
    3.8859   -5.4614    2.6408 H   0  0  0  0  0  0  0  0  0  0  0  0
    3.8624   -6.9780    6.5060 H   0  0  0  0  0  0  0  0  0  0  0  0
    3.7406   -5.3714    6.9020 H   0  0  0  0  0  0  0  0  0  0  0  0
    1.2858   -6.8006    8.8759 H   0  0  0  0  0  0  0  0  0  0  0  0
    2.9481   -6.3026    8.6689 H   0  0  0  0  0  0  0  0  0  0  0  0
    2.4421   -7.8557    8.0949 H   0  0  0  0  0  0  0  0  0  0  0  0
    0.2856   -7.8008    7.1988 H   0  0  0  0  0  0  0  0  0  0  0  0
   -0.2277   -6.9682    5.9335 H   0  0  0  0  0  0  0  0  0  0  0  0
    1.6873   -9.2923    5.8056 H   0  0  0  0  0  0  0  0  0  0  0  0
    0.0148   -9.3418    5.7139 H   0  0  0  0  0  0  0  0  0  0  0  0
   -1.1373   -7.3842    3.9643 H   0  0  0  0  0  0  0  0  0  0  0  0
   -1.4041   -9.0997    3.8246 H   0  0  0  0  0  0  0  0  0  0  0  0
   -0.9466   -8.1815    2.4271 H   0  0  0  0  0  0  0  0  0  0  0  0
    1.3466   -8.2884    1.6005 H   0  0  0  0  0  0  0  0  0  0  0  0
    1.8881   -4.1495    3.2244 H   0  0  0  0  0  0  0  0  0  0  0  0
   -0.1872   -5.6473    4.5782 H   0  0  0  0  0  0  0  0  0  0  0  0
    0.2178   -2.3809    6.4401 H   0  0  0  0  0  0  0  0  0  0  0  0
    0.9678   -1.7705    3.6096 H   0  0  0  0  0  0  0  0  0  0  0  0
   -0.6311   -2.1956    4.1359 H   0  0  0  0  0  0  0  0  0  0  0  0
   -0.5521    1.5927    3.8784 H   0  0  0  0  0  0  0  0  0  0  0  0
   -1.2895    0.1509    3.1845 H   0  0  0  0  0  0  0  0  0  0  0  0
    0.4071    0.5161    2.8696 H   0  0  0  0  0  0  0  0  0  0  0  0
   -1.3876    0.8884    6.0960 H   0  0  0  0  0  0  0  0  0  0  0  0
   -0.8740   -0.5904    6.8672 H   0  0  0  0  0  0  0  0  0  0  0  0
   -2.0261   -0.6569    5.5357 H   0  0  0  0  0  0  0  0  0  0  0  0
    2.0562    0.4644    4.6674 H   0  0  0  0  0  0  0  0  0  0  0  0
    1.1412    1.3483    5.8398 H   0  0  0  0  0  0  0  0  0  0  0  0
    2.8678   -0.0191    6.9423 H   0  0  0  0  0  0  0  0  0  0  0  0
    1.3099   -0.5307    7.4684 H   0  0  0  0  0  0  0  0  0  0  0  0
    3.7100   -3.3466    7.0665 H   0  0  0  0  0  0  0  0  0  0  0  0
    3.0997   -2.1593    8.1383 H   0  0  0  0  0  0  0  0  0  0  0  0
    2.2182   -4.3396    8.7672 H   0  0  0  0  0  0  0  0  0  0  0  0
    1.0383   -3.1836    8.4170 H   0  0  0  0  0  0  0  0  0  0  0  0
   -0.3762   -5.4679    8.5431 H   0  0  0  0  0  0  0  0  0  0  0  0
   -1.1367   -5.4558    6.9605 H   0  0  0  0  0  0  0  0  0  0  0  0
   -0.8499   -3.9808    7.7782 H   0  0  0  0  0  0  0  0  0  0  0  0
    3.2657   -7.9972    4.9840 H   0  0  0  0  0  0  0  0  0  0  0  0
    3.4064  -10.1765    3.6214 H   0  0  0  0  0  0  0  0  0  0  0  0
  1  2  1  0
  1 40  1  0
  1 41  1  0
  1 42  1  0
  2 15  1  0
  2  3  1  0
  2 43  1  6
  3  4  1  0
  3 44  1  0
  3 45  1  0
  4  5  1  0
  4 46  1  0
  4 47  1  0
  5 38  1  0
  5  6  1  1
  5  7  1  0
  6 48  1  0
  7 19  1  0
  7  8  1  0
  7 49  1  6
  8  9  2  0
  8 10  1  0
 10 11  1  0
 10 50  1  0
 10 51  1  0
 11 36  1  0
 11 12  1  1
 11 13  1  0
 12 52  1  0
 12 53  1  0
 12 54  1  0
 13 14  1  0
 13 55  1  0
 13 56  1  0
 14 15  1  0
 14 57  1  0
 14 58  1  0
 15 16  1  1
 15 17  1  0
 16 59  1  0
 16 60  1  0
 16 61  1  0
 17 18  1  6
 17 19  1  0
 17 38  1  0
 18 62  1  0
 19 20  2  3
 20 21  1  0
 20 63  1  0
 21 22  2  3
 21 64  1  0
 22 36  1  0
 22 23  1  0
 23 30  1  0
 23 24  1  0
 23 65  1  1
 24 25  1  0
 24 66  1  0
 24 67  1  0
 25 26  1  0
 25 27  1  0
 25 28  1  0
 26 68  1  0
 26 69  1  0
 26 70  1  0
 27 71  1  0
 27 72  1  0
 27 73  1  0
 28 29  1  0
 28 74  1  0
 28 75  1  0
 29 30  1  0
 29 76  1  0
 29 77  1  0
 30 31  1  6
 30 34  1  0
 31 32  2  0
 31 33  1  0
 34 35  1  0
 34 78  1  0
 34 79  1  0
 35 36  1  0
 35 80  1  0
 35 81  1  0
 36 37  1  1
 37 82  1  0
 37 83  1  0
 37 84  1  0
 38 39  1  0
 38 85  1  1
 39 86  1  0
M  CHG  1  33  -1
M  END
>  <i_m_ct_stereo_status>  (298) 
1

>  <s_m_source_file>  (298) 
/var/tmp/pbs.5076255.sched01/tmpz7l6rxva/92z_h6r8yo.sdf

>  <i_m_source_file_index>  (298) 
31

>  <i_lp_mmshare_version>  (298) 
48012

>  <i_f3d_flags>  (298) 
2

>  <s_epik_input>  (298) 
W09IXVtDQF0xMltDQEhdMy9DPTRbQ0BAXShbT0hdKShbQ0BIXTJbT0hdKVtDQEBdKFtDSDNdKShbQ0BIXShbQ0gzXSlbQ0gyXVtDSDJdMSlbQ0gyXVtDSDJdW0NAQF0oW0NIM10pKFtDSDJdQzM9TylbQ0BdNShbQ0gzXSlDKD1bQ0hdL1tDSF00KVxbQ0BIXTZbQ0BdKEMoPU8pW09IXSkoW0NIMl1bQ0gyXTUpW0NIMl1bQ0gyXUMoW0NIMl02KShbQ0gzXSlbQ0gzXQ==

>  <s_epik_cmdline>  (298) 
J2VwaWtfcHl0aG9uJywgJy1waHQnLCAnMi4wJywgJy1waCcsICc3LjAnLCAnLXRuJywgJzgnLCAnLW1hJywgJzIwMCcsICctaW1hZScsICc8aW5maWxlLm1hZT4nLCAnLW9tYWUnLCAnPG91dGZpbGUubWFlPic=

>  <r_epik_Ionization_Penalty>  (298) 
0.00589253

>  <r_epik_Ionization_Penalty_Charging>  (298) 
0.00589237

>  <r_epik_Ionization_Penalty_Neutral>  (298) 
1.52714e-07

>  <r_epik_State_Penalty>  (298) 
0.00433199

>  <r_epik_Charging_Adjusted_Penalty>  (298) 
0.0102244

>  <i_epik_Tot_Q>  (298) 
-1

>  <i_epik_Tot_abs_Q>  (298) 
1

>  <s_lp_Force_Field>  (298) 
OPLS3e

>  <r_lp_Energy>  (298) 
371.151

>  <b_lp_Chiralities_Consistent>  (298) 
0

>  <s_lp_Variant>  (298) 
78:0-4

>  <s_i_glide_gridfile>  (298) 
pfpi4k_grid

>  <i_i_glide_lignum>  (298) 
31

>  <i_i_glide_rotatable_bonds>  (298) 
4

>  <r_i_docking_score>  (298) 
-1.90036

>  <r_i_glide_ligand_efficiency>  (298) 
-0.0487272

>  <r_i_glide_ligand_efficiency_sa>  (298) 
-0.165244

>  <r_i_glide_ligand_efficiency_ln>  (298) 
-0.407491

>  <r_i_glide_gscore>  (298) 
-1.90036

>  <r_i_glide_lipo>  (298) 
-0.319833

>  <r_i_glide_hbond>  (298) 
0

>  <r_i_glide_metal>  (298) 
-0

>  <r_i_glide_rewards>  (298) 
0

>  <r_i_glide_evdw>  (298) 
-30.1806

>  <r_i_glide_ecoul>  (298) 
-0.476649

>  <r_i_glide_erotb>  (298) 
0

>  <r_i_glide_esite>  (298) 
0

>  <r_i_glide_emodel>  (298) 
-34.3435

>  <r_i_glide_energy>  (298) 
-30.6572

>  <r_i_glide_einternal>  (298) 
0.204937

>  <r_i_glide_intrahb_reward>  (298) 
-0

>  <i_i_glide_confnum>  (298) 
2

>  <i_i_glide_posenum>  (298) 
5

>  <r_i_glide_eff_state_penalty>  (298) 
0

>  <ligand_id>  (298) 
78

>  <original_smiles>  (298) 
CC1CCC2(O)C3C(=O)CC4(C)CCC1(C)C(O)(C3=CC=C1C3CC(C)(C)CCC3(C(=O)O)CCC14C)C2O

>  <smiles>  (298) 
[H]OC1([H])C2(O[H])C3=C([H])C([H])=C4C5([H])C([H])([H])C(C([H])([H])[H])(C([H])([H])[H])C([H])([H])C([H])([H])C5(C(=O)[O-])C([H])([H])C([H])([H])C4(C([H])([H])[H])C4(C([H])([H])[H])C([H])([H])C(=O)C3([H])C1(O[H])C([H])([H])C([H])([H])C([H])(C([H])([H])[H])C2(C([H])([H])[H])C([H])([H])C4([H])[H]

$$$$
78:3:1
     RDKit          3D

 86 91  0  0  1  0  0  0  0  0999 V2000
    1.0130  -11.2072    3.6121 C   0  0  0  0  0  0  0  0  0  0  0  0
    1.2286   -9.8419    2.9191 C   0  0  2  0  0  0  0  0  0  0  0  0
    2.6106   -9.8158    1.9735 C   0  0  0  0  0  0  0  0  0  0  0  0
    3.7664   -8.6227    1.8852 C   0  0  0  0  0  0  0  0  0  0  0  0
    4.1228   -7.6858    3.1619 C   0  0  1  0  0  0  0  0  0  0  0  0
    5.4763   -7.8663    3.5273 O   0  0  0  0  0  0  0  0  0  0  0  0
    3.6324   -6.1759    3.4992 C   0  0  2  0  0  0  0  0  0  0  0  0
    3.9806   -5.6242    4.9385 C   0  0  0  0  0  0  0  0  0  0  0  0
    4.9634   -4.8883    5.0382 O   0  0  0  0  0  0  0  0  0  0  0  0
    3.2920   -6.0934    6.2999 C   0  0  0  0  0  0  0  0  0  0  0  0
    1.7454   -6.2371    6.8016 C   0  0  2  0  0  0  0  0  0  0  0  0
    2.0560   -6.8014    8.2277 C   0  0  0  0  0  0  0  0  0  0  0  0
    0.6674   -7.3624    6.2912 C   0  0  0  0  0  0  0  0  0  0  0  0
    0.8305   -8.6843    5.4499 C   0  0  0  0  0  0  0  0  0  0  0  0
    0.7503   -8.5768    3.8667 C   0  0  2  0  0  0  0  0  0  0  0  0
   -0.7306   -8.2459    3.4823 C   0  0  0  0  0  0  0  0  0  0  0  0
    1.8088   -7.6104    3.4304 C   0  0  1  0  0  0  0  0  0  0  0  0
    1.4192   -7.4154    2.0505 O   0  0  0  0  0  0  0  0  0  0  0  0
    2.1361   -6.1525    3.6281 C   0  0  0  0  0  0  0  0  0  0  0  0
    1.4100   -5.0132    3.5113 C   0  0  0  0  0  0  0  0  0  0  0  0
    0.3977   -4.7076    4.4811 C   0  0  0  0  0  0  0  0  0  0  0  0
    0.8418   -4.0812    5.5924 C   0  0  0  0  0  0  0  0  0  0  0  0
    0.9657   -2.5422    5.6557 C   0  0  2  0  0  0  0  0  0  0  0  0
    0.3828   -1.7152    4.4791 C   0  0  0  0  0  0  0  0  0  0  0  0
    0.1255   -0.2316    4.8793 C   0  0  0  0  0  0  0  0  0  0  0  0
   -0.2438    0.5802    3.6205 C   0  0  0  0  0  0  0  0  0  0  0  0
   -1.0604   -0.1048    5.8737 C   0  0  0  0  0  0  0  0  0  0  0  0
    1.4150    0.3591    5.5002 C   0  0  0  0  0  0  0  0  0  0  0  0
    2.0075   -0.5047    6.6405 C   0  0  0  0  0  0  0  0  0  0  0  0
    2.3096   -1.9666    6.1992 C   0  0  2  0  0  0  0  0  0  0  0  0
    3.4773   -1.9110    5.1690 C   0  0  0  0  0  0  0  0  0  0  0  0
    4.4776   -1.2323    5.4932 O   0  0  0  0  0  0  0  0  0  0  0  0
    3.3783   -2.5152    4.0823 O   0  0  0  0  0  0  0  0  0  0  0  0
    2.7927   -2.8254    7.4008 C   0  0  0  0  0  0  0  0  0  0  0  0
    1.7432   -3.8138    7.9634 C   0  0  0  0  0  0  0  0  0  0  0  0
    1.0047   -4.7937    6.9586 C   0  0  2  0  0  0  0  0  0  0  0  0
   -0.4306   -4.9155    7.5728 C   0  0  0  0  0  0  0  0  0  0  0  0
    3.1700   -8.2823    4.0444 C   0  0  1  0  0  0  0  0  0  0  0  0
    3.5498   -9.6087    4.4532 O   0  0  0  0  0  0  0  0  0  0  0  0
    1.6998  -11.3798    4.4422 H   0  0  0  0  0  0  0  0  0  0  0  0
    1.1524  -12.0282    2.9042 H   0  0  0  0  0  0  0  0  0  0  0  0
   -0.0015  -11.2864    4.0105 H   0  0  0  0  0  0  0  0  0  0  0  0
    0.4679   -9.8897    2.1384 H   0  0  0  0  0  0  0  0  0  0  0  0
    3.1504  -10.7347    2.2124 H   0  0  0  0  0  0  0  0  0  0  0  0
    2.2979   -9.9876    0.9431 H   0  0  0  0  0  0  0  0  0  0  0  0
    4.6814   -9.1460    1.6046 H   0  0  0  0  0  0  0  0  0  0  0  0
    3.5861   -7.9857    1.0194 H   0  0  0  0  0  0  0  0  0  0  0  0
    5.6300   -8.8009    3.5492 H   0  0  0  0  0  0  0  0  0  0  0  0
    3.9692   -5.4754    2.7340 H   0  0  0  0  0  0  0  0  0  0  0  0
    3.8347   -6.9890    6.5982 H   0  0  0  0  0  0  0  0  0  0  0  0
    3.7221   -5.3788    6.9910 H   0  0  0  0  0  0  0  0  0  0  0  0
    1.2041   -6.7778    8.9075 H   0  0  0  0  0  0  0  0  0  0  0  0
    2.8773   -6.2985    8.7394 H   0  0  0  0  0  0  0  0  0  0  0  0
    2.3660   -7.8454    8.1562 H   0  0  0  0  0  0  0  0  0  0  0  0
    0.2336   -7.7670    7.2072 H   0  0  0  0  0  0  0  0  0  0  0  0
   -0.2407   -6.9277    5.9277 H   0  0  0  0  0  0  0  0  0  0  0  0
    1.6426   -9.2743    5.8591 H   0  0  0  0  0  0  0  0  0  0  0  0
   -0.0255   -9.3034    5.7167 H   0  0  0  0  0  0  0  0  0  0  0  0
   -1.1113   -7.3427    3.9414 H   0  0  0  0  0  0  0  0  0  0  0  0
   -1.3888   -9.0562    3.7937 H   0  0  0  0  0  0  0  0  0  0  0  0
   -0.8908   -8.1401    2.4091 H   0  0  0  0  0  0  0  0  0  0  0  0
    1.4364   -8.2708    1.6362 H   0  0  0  0  0  0  0  0  0  0  0  0
    1.9789   -4.1366    3.2712 H   0  0  0  0  0  0  0  0  0  0  0  0
   -0.1485   -5.6110    4.5686 H   0  0  0  0  0  0  0  0  0  0  0  0
    0.2458   -2.3477    6.4438 H   0  0  0  0  0  0  0  0  0  0  0  0
    1.0659   -1.7508    3.6315 H   0  0  0  0  0  0  0  0  0  0  0  0
   -0.5492   -2.1548    4.1267 H   0  0  0  0  0  0  0  0  0  0  0  0
   -0.4141    1.6314    3.8619 H   0  0  0  0  0  0  0  0  0  0  0  0
   -1.1511    0.1990    3.1512 H   0  0  0  0  0  0  0  0  0  0  0  0
    0.5572    0.5416    2.8800 H   0  0  0  0  0  0  0  0  0  0  0  0
   -1.3085    0.9434    6.0597 H   0  0  0  0  0  0  0  0  0  0  0  0
   -0.8344   -0.5429    6.8458 H   0  0  0  0  0  0  0  0  0  0  0  0
   -1.9558   -0.5950    5.4852 H   0  0  0  0  0  0  0  0  0  0  0  0
    2.1629    0.4697    4.7142 H   0  0  0  0  0  0  0  0  0  0  0  0
    1.2305    1.3677    5.8642 H   0  0  0  0  0  0  0  0  0  0  0  0
    2.9109   -0.0179    7.0087 H   0  0  0  0  0  0  0  0  0  0  0  0
    1.3367   -0.5095    7.4978 H   0  0  0  0  0  0  0  0  0  0  0  0
    3.7102   -3.3551    7.1580 H   0  0  0  0  0  0  0  0  0  0  0  0
    3.0876   -2.1596    8.2138 H   0  0  0  0  0  0  0  0  0  0  0  0
    2.1657   -4.3275    8.8197 H   0  0  0  0  0  0  0  0  0  0  0  0
    1.0082   -3.1610    8.4403 H   0  0  0  0  0  0  0  0  0  0  0  0
   -0.4324   -5.4272    8.5318 H   0  0  0  0  0  0  0  0  0  0  0  0
   -1.1571   -5.4056    6.9310 H   0  0  0  0  0  0  0  0  0  0  0  0
   -0.8702   -3.9348    7.7562 H   0  0  0  0  0  0  0  0  0  0  0  0
    3.2553   -8.0018    5.0578 H   0  0  0  0  0  0  0  0  0  0  0  0
    2.8652   -9.9505    5.0131 H   0  0  0  0  0  0  0  0  0  0  0  0
  1  2  1  0
  1 40  1  0
  1 41  1  0
  1 42  1  0
  2 15  1  0
  2  3  1  0
  2 43  1  6
  3  4  1  0
  3 44  1  0
  3 45  1  0
  4  5  1  0
  4 46  1  0
  4 47  1  0
  5 38  1  0
  5  6  1  1
  5  7  1  0
  6 48  1  0
  7 19  1  0
  7  8  1  0
  7 49  1  6
  8  9  2  0
  8 10  1  0
 10 11  1  0
 10 50  1  0
 10 51  1  0
 11 36  1  0
 11 12  1  1
 11 13  1  0
 12 52  1  0
 12 53  1  0
 12 54  1  0
 13 14  1  0
 13 55  1  0
 13 56  1  0
 14 15  1  0
 14 57  1  0
 14 58  1  0
 15 16  1  1
 15 17  1  0
 16 59  1  0
 16 60  1  0
 16 61  1  0
 17 18  1  6
 17 19  1  0
 17 38  1  0
 18 62  1  0
 19 20  2  3
 20 21  1  0
 20 63  1  0
 21 22  2  3
 21 64  1  0
 22 36  1  0
 22 23  1  0
 23 30  1  0
 23 24  1  0
 23 65  1  1
 24 25  1  0
 24 66  1  0
 24 67  1  0
 25 26  1  0
 25 27  1  0
 25 28  1  0
 26 68  1  0
 26 69  1  0
 26 70  1  0
 27 71  1  0
 27 72  1  0
 27 73  1  0
 28 29  1  0
 28 74  1  0
 28 75  1  0
 29 30  1  0
 29 76  1  0
 29 77  1  0
 30 31  1  6
 30 34  1  0
 31 32  2  0
 31 33  1  0
 34 35  1  0
 34 78  1  0
 34 79  1  0
 35 36  1  0
 35 80  1  0
 35 81  1  0
 36 37  1  1
 37 82  1  0
 37 83  1  0
 37 84  1  0
 38 39  1  0
 38 85  1  1
 39 86  1  0
M  CHG  1  33  -1
M  END
>  <i_m_ct_stereo_status>  (299) 
1

>  <s_m_source_file>  (299) 
/var/tmp/pbs.5076255.sched01/tmpz7l6rxva/92z_h6r8yo.sdf

>  <i_m_source_file_index>  (299) 
31

>  <i_lp_mmshare_version>  (299) 
48012

>  <i_f3d_flags>  (299) 
2

>  <s_epik_input>  (299) 
W09IXVtDQF0xMltDQEhdMy9DPTRbQ0BAXShbT0hdKShbQ0BIXTJbT0hdKVtDQEBdKFtDSDNdKShbQ0BIXShbQ0gzXSlbQ0gyXVtDSDJdMSlbQ0gyXVtDSDJdW0NAQF0oW0NIM10pKFtDSDJdQzM9TylbQ0BdNShbQ0gzXSlDKD1bQ0hdL1tDSF00KVxbQ0BIXTZbQ0BdKEMoPU8pW09IXSkoW0NIMl1bQ0gyXTUpW0NIMl1bQ0gyXUMoW0NIMl02KShbQ0gzXSlbQ0gzXQ==

>  <s_epik_cmdline>  (299) 
J2VwaWtfcHl0aG9uJywgJy1waHQnLCAnMi4wJywgJy1waCcsICc3LjAnLCAnLXRuJywgJzgnLCAnLW1hJywgJzIwMCcsICctaW1hZScsICc8aW5maWxlLm1hZT4nLCAnLW9tYWUnLCAnPG91dGZpbGUubWFlPic=

>  <r_epik_Ionization_Penalty>  (299) 
0.00589253

>  <r_epik_Ionization_Penalty_Charging>  (299) 
0.00589237

>  <r_epik_Ionization_Penalty_Neutral>  (299) 
1.52714e-07

>  <r_epik_State_Penalty>  (299) 
0.00433199

>  <r_epik_Charging_Adjusted_Penalty>  (299) 
0.0102244

>  <i_epik_Tot_Q>  (299) 
-1

>  <i_epik_Tot_abs_Q>  (299) 
1

>  <s_lp_Force_Field>  (299) 
OPLS3e

>  <r_lp_Energy>  (299) 
371.151

>  <b_lp_Chiralities_Consistent>  (299) 
0

>  <s_lp_Variant>  (299) 
78:0-4

>  <s_i_glide_gridfile>  (299) 
pfpi4k_grid

>  <i_i_glide_lignum>  (299) 
31

>  <i_i_glide_rotatable_bonds>  (299) 
4

>  <r_i_docking_score>  (299) 
-1.87217

>  <r_i_glide_ligand_efficiency>  (299) 
-0.0480045

>  <r_i_glide_ligand_efficiency_sa>  (299) 
-0.162793

>  <r_i_glide_ligand_efficiency_ln>  (299) 
-0.401447

>  <r_i_glide_gscore>  (299) 
-1.87217

>  <r_i_glide_lipo>  (299) 
-0.297091

>  <r_i_glide_hbond>  (299) 
0

>  <r_i_glide_metal>  (299) 
-0

>  <r_i_glide_rewards>  (299) 
0

>  <r_i_glide_evdw>  (299) 
-30.1943

>  <r_i_glide_ecoul>  (299) 
-0.435784

>  <r_i_glide_erotb>  (299) 
0

>  <r_i_glide_esite>  (299) 
0

>  <r_i_glide_emodel>  (299) 
-34.1097

>  <r_i_glide_energy>  (299) 
-30.6301

>  <r_i_glide_einternal>  (299) 
0.545643

>  <r_i_glide_intrahb_reward>  (299) 
-0

>  <i_i_glide_confnum>  (299) 
1

>  <i_i_glide_posenum>  (299) 
9

>  <r_i_glide_eff_state_penalty>  (299) 
0

>  <ligand_id>  (299) 
78

>  <original_smiles>  (299) 
CC1CCC2(O)C3C(=O)CC4(C)CCC1(C)C(O)(C3=CC=C1C3CC(C)(C)CCC3(C(=O)O)CCC14C)C2O

>  <smiles>  (299) 
[H]OC1([H])C2(O[H])C3=C([H])C([H])=C4C5([H])C([H])([H])C(C([H])([H])[H])(C([H])([H])[H])C([H])([H])C([H])([H])C5(C(=O)[O-])C([H])([H])C([H])([H])C4(C([H])([H])[H])C4(C([H])([H])[H])C([H])([H])C(=O)C3([H])C1(O[H])C([H])([H])C([H])([H])C([H])(C([H])([H])[H])C2(C([H])([H])[H])C([H])([H])C4([H])[H]

$$$$
78:3:2
     RDKit          3D

 86 91  0  0  1  0  0  0  0  0999 V2000
    1.0188  -10.7264    3.7165 C   0  0  0  0  0  0  0  0  0  0  0  0
    1.3096   -9.4980    2.8266 C   0  0  2  0  0  0  0  0  0  0  0  0
    2.6138   -9.7426    1.8028 C   0  0  0  0  0  0  0  0  0  0  0  0
    3.8639   -8.6930    1.4744 C   0  0  0  0  0  0  0  0  0  0  0  0
    4.3920   -7.6232    2.5755 C   0  0  1  0  0  0  0  0  0  0  0  0
    5.7575   -7.8808    2.8598 O   0  0  0  0  0  0  0  0  0  0  0  0
    4.0648   -6.0415    2.7201 C   0  0  2  0  0  0  0  0  0  0  0  0
    4.5830   -5.3459    4.0435 C   0  0  0  0  0  0  0  0  0  0  0  0
    5.6636   -4.7653    3.9871 O   0  0  0  0  0  0  0  0  0  0  0  0
    3.9445   -5.5387    5.4944 C   0  0  0  0  0  0  0  0  0  0  0  0
    2.4331   -5.4528    6.0997 C   0  0  2  0  0  0  0  0  0  0  0  0
    2.7976   -5.8444    7.5737 C   0  0  0  0  0  0  0  0  0  0  0  0
    1.2216   -6.5287    5.8264 C   0  0  0  0  0  0  0  0  0  0  0  0
    1.2042   -7.9638    5.1777 C   0  0  0  0  0  0  0  0  0  0  0  0
    1.0144   -8.0688    3.6030 C   0  0  2  0  0  0  0  0  0  0  0  0
   -0.4561   -7.6496    3.2695 C   0  0  0  0  0  0  0  0  0  0  0  0
    2.1246   -7.2804    2.9719 C   0  0  1  0  0  0  0  0  0  0  0  0
    1.6523   -7.2436    1.6029 O   0  0  0  0  0  0  0  0  0  0  0  0
    2.5859   -5.8461    2.9369 C   0  0  0  0  0  0  0  0  0  0  0  0
    1.9553   -4.6706    2.7099 C   0  0  0  0  0  0  0  0  0  0  0  0
    1.0426   -4.1285    3.6748 C   0  0  0  0  0  0  0  0  0  0  0  0
    1.6285   -3.4009    4.6560 C   0  0  0  0  0  0  0  0  0  0  0  0
    1.9034   -1.8879    4.4805 C   0  0  2  0  0  0  0  0  0  0  0  0
    1.3176   -1.1801    3.2305 C   0  0  0  0  0  0  0  0  0  0  0  0
    1.2119    0.3612    3.4301 C   0  0  0  0  0  0  0  0  0  0  0  0
    0.8289    1.0194    2.0868 C   0  0  0  0  0  0  0  0  0  0  0  0
    0.1245    0.7331    4.4705 C   0  0  0  0  0  0  0  0  0  0  0  0
    2.5947    0.9064    3.8788 C   0  0  0  0  0  0  0  0  0  0  0  0
    3.1898    0.1554    5.0972 C   0  0  0  0  0  0  0  0  0  0  0  0
    3.3328   -1.3765    4.8497 C   0  0  2  0  0  0  0  0  0  0  0  0
    4.4070   -1.5711    3.7318 C   0  0  0  0  0  0  0  0  0  0  0  0
    5.4159   -0.8286    3.7705 O   0  0  0  0  0  0  0  0  0  0  0  0
    4.2243   -2.4252    2.8464 O   0  0  0  0  0  0  0  0  0  0  0  0
    3.8284   -2.1099    6.1268 C   0  0  0  0  0  0  0  0  0  0  0  0
    2.7397   -2.9034    6.8938 C   0  0  0  0  0  0  0  0  0  0  0  0
    1.8380   -3.9347    6.0947 C   0  0  2  0  0  0  0  0  0  0  0  0
    0.4482   -3.8273    6.8056 C   0  0  0  0  0  0  0  0  0  0  0  0
    3.4620   -7.9929    3.5955 C   0  0  1  0  0  0  0  0  0  0  0  0
    3.7425   -9.2819    4.1615 O   0  0  0  0  0  0  0  0  0  0  0  0
    1.7424  -10.8395    4.5278 H   0  0  0  0  0  0  0  0  0  0  0  0
    1.0355  -11.6475    3.1323 H   0  0  0  0  0  0  0  0  0  0  0  0
    0.0297  -10.6512    4.1745 H   0  0  0  0  0  0  0  0  0  0  0  0
    0.4917   -9.5761    2.1062 H   0  0  0  0  0  0  0  0  0  0  0  0
    3.0766  -10.6782    2.1221 H   0  0  0  0  0  0  0  0  0  0  0  0
    2.2050  -10.0075    0.8323 H   0  0  0  0  0  0  0  0  0  0  0  0
    4.7039   -9.3390    1.2130 H   0  0  0  0  0  0  0  0  0  0  0  0
    3.6869   -8.1638    0.5384 H   0  0  0  0  0  0  0  0  0  0  0  0
    5.8469   -8.8128    3.0144 H   0  0  0  0  0  0  0  0  0  0  0  0
    4.4081   -5.4871    1.8463 H   0  0  0  0  0  0  0  0  0  0  0  0
    4.4222   -6.4330    5.8938 H   0  0  0  0  0  0  0  0  0  0  0  0
    4.4842   -4.7789    6.0441 H   0  0  0  0  0  0  0  0  0  0  0  0
    2.0051   -5.6423    8.2932 H   0  0  0  0  0  0  0  0  0  0  0  0
    3.6957   -5.3599    7.9556 H   0  0  0  0  0  0  0  0  0  0  0  0
    3.0071   -6.9152    7.6354 H   0  0  0  0  0  0  0  0  0  0  0  0
    0.8216   -6.7568    6.8152 H   0  0  0  0  0  0  0  0  0  0  0  0
    0.3292   -6.0602    5.4618 H   0  0  0  0  0  0  0  0  0  0  0  0
    1.9928   -8.5691    5.6073 H   0  0  0  0  0  0  0  0  0  0  0  0
    0.3225   -8.4562    5.5870 H   0  0  0  0  0  0  0  0  0  0  0  0
   -0.7144   -6.6580    3.6150 H   0  0  0  0  0  0  0  0  0  0  0  0
   -1.1605   -8.3399    3.7340 H   0  0  0  0  0  0  0  0  0  0  0  0
   -0.6863   -7.6768    2.2037 H   0  0  0  0  0  0  0  0  0  0  0  0
    1.5744   -8.1445    1.3076 H   0  0  0  0  0  0  0  0  0  0  0  0
    2.5794   -3.8956    2.3008 H   0  0  0  0  0  0  0  0  0  0  0  0
    0.4270   -4.9524    3.9288 H   0  0  0  0  0  0  0  0  0  0  0  0
    1.2624   -1.5199    5.2728 H   0  0  0  0  0  0  0  0  0  0  0  0
    1.9343   -1.4023    2.3604 H   0  0  0  0  0  0  0  0  0  0  0  0
    0.3285   -1.5731    3.0000 H   0  0  0  0  0  0  0  0  0  0  0  0
    0.7672    2.1069    2.1812 H   0  0  0  0  0  0  0  0  0  0  0  0
   -0.1415    0.6659    1.7316 H   0  0  0  0  0  0  0  0  0  0  0  0
    1.5623    0.7993    1.3111 H   0  0  0  0  0  0  0  0  0  0  0  0
   -0.0188    1.8147    4.5207 H   0  0  0  0  0  0  0  0  0  0  0  0
    0.3732    0.4140    5.4833 H   0  0  0  0  0  0  0  0  0  0  0  0
   -0.8381    0.2850    4.2155 H   0  0  0  0  0  0  0  0  0  0  0  0
    3.2854    0.8359    3.0404 H   0  0  0  0  0  0  0  0  0  0  0  0
    2.5259    1.9691    4.1001 H   0  0  0  0  0  0  0  0  0  0  0  0
    4.1550    0.5987    5.3438 H   0  0  0  0  0  0  0  0  0  0  0  0
    2.5782    0.3309    5.9836 H   0  0  0  0  0  0  0  0  0  0  0  0
    4.6728   -2.7581    5.9052 H   0  0  0  0  0  0  0  0  0  0  0  0
    4.2412   -1.3761    6.8191 H   0  0  0  0  0  0  0  0  0  0  0  0
    3.1739   -3.3352    7.7899 H   0  0  0  0  0  0  0  0  0  0  0  0
    2.1032   -2.1214    7.3164 H   0  0  0  0  0  0  0  0  0  0  0  0
    0.4711   -4.1989    7.8270 H   0  0  0  0  0  0  0  0  0  0  0  0
   -0.3648   -4.3276    6.2889 H   0  0  0  0  0  0  0  0  0  0  0  0
    0.1126   -2.7915    6.8713 H   0  0  0  0  0  0  0  0  0  0  0  0
    3.6484   -7.5901    4.5525 H   0  0  0  0  0  0  0  0  0  0  0  0
    3.5269   -9.9409    3.5076 H   0  0  0  0  0  0  0  0  0  0  0  0
  1  2  1  0
  1 40  1  0
  1 41  1  0
  1 42  1  0
  2 15  1  0
  2  3  1  0
  2 43  1  6
  3  4  1  0
  3 44  1  0
  3 45  1  0
  4  5  1  0
  4 46  1  0
  4 47  1  0
  5 38  1  0
  5  6  1  1
  5  7  1  0
  6 48  1  0
  7 19  1  0
  7  8  1  0
  7 49  1  6
  8  9  2  0
  8 10  1  0
 10 11  1  0
 10 50  1  0
 10 51  1  0
 11 36  1  0
 11 12  1  1
 11 13  1  0
 12 52  1  0
 12 53  1  0
 12 54  1  0
 13 14  1  0
 13 55  1  0
 13 56  1  0
 14 15  1  0
 14 57  1  0
 14 58  1  0
 15 16  1  1
 15 17  1  0
 16 59  1  0
 16 60  1  0
 16 61  1  0
 17 18  1  6
 17 19  1  0
 17 38  1  0
 18 62  1  0
 19 20  2  3
 20 21  1  0
 20 63  1  0
 21 22  2  3
 21 64  1  0
 22 36  1  0
 22 23  1  0
 23 30  1  0
 23 24  1  0
 23 65  1  1
 24 25  1  0
 24 66  1  0
 24 67  1  0
 25 26  1  0
 25 27  1  0
 25 28  1  0
 26 68  1  0
 26 69  1  0
 26 70  1  0
 27 71  1  0
 27 72  1  0
 27 73  1  0
 28 29  1  0
 28 74  1  0
 28 75  1  0
 29 30  1  0
 29 76  1  0
 29 77  1  0
 30 31  1  6
 30 34  1  0
 31 32  2  0
 31 33  1  0
 34 35  1  0
 34 78  1  0
 34 79  1  0
 35 36  1  0
 35 80  1  0
 35 81  1  0
 36 37  1  1
 37 82  1  0
 37 83  1  0
 37 84  1  0
 38 39  1  0
 38 85  1  1
 39 86  1  0
M  CHG  1  33  -1
M  END
>  <i_m_ct_stereo_status>  (300) 
1

>  <s_m_source_file>  (300) 
/var/tmp/pbs.5076255.sched01/tmpz7l6rxva/92z_h6r8yo.sdf

>  <i_m_source_file_index>  (300) 
31

>  <i_lp_mmshare_version>  (300) 
48012

>  <i_f3d_flags>  (300) 
2

>  <s_epik_input>  (300) 
W09IXVtDQF0xMltDQEhdMy9DPTRbQ0BAXShbT0hdKShbQ0BIXTJbT0hdKVtDQEBdKFtDSDNdKShbQ0BIXShbQ0gzXSlbQ0gyXVtDSDJdMSlbQ0gyXVtDSDJdW0NAQF0oW0NIM10pKFtDSDJdQzM9TylbQ0BdNShbQ0gzXSlDKD1bQ0hdL1tDSF00KVxbQ0BIXTZbQ0BdKEMoPU8pW09IXSkoW0NIMl1bQ0gyXTUpW0NIMl1bQ0gyXUMoW0NIMl02KShbQ0gzXSlbQ0gzXQ==

>  <s_epik_cmdline>  (300) 
J2VwaWtfcHl0aG9uJywgJy1waHQnLCAnMi4wJywgJy1waCcsICc3LjAnLCAnLXRuJywgJzgnLCAnLW1hJywgJzIwMCcsICctaW1hZScsICc8aW5maWxlLm1hZT4nLCAnLW9tYWUnLCAnPG91dGZpbGUubWFlPic=

>  <r_epik_Ionization_Penalty>  (300) 
0.00589253

>  <r_epik_Ionization_Penalty_Charging>  (300) 
0.00589237

>  <r_epik_Ionization_Penalty_Neutral>  (300) 
1.52714e-07

>  <r_epik_State_Penalty>  (300) 
0.00433199

>  <r_epik_Charging_Adjusted_Penalty>  (300) 
0.0102244

>  <i_epik_Tot_Q>  (300) 
-1

>  <i_epik_Tot_abs_Q>  (300) 
1

>  <s_lp_Force_Field>  (300) 
OPLS3e

>  <r_lp_Energy>  (300) 
371.151

>  <b_lp_Chiralities_Consistent>  (300) 
0

>  <s_lp_Variant>  (300) 
78:0-4

>  <s_i_glide_gridfile>  (300) 
pfpi4k_grid

>  <i_i_glide_lignum>  (300) 
31

>  <i_i_glide_rotatable_bonds>  (300) 
4

>  <r_i_docking_score>  (300) 
-1.8001

>  <r_i_glide_ligand_efficiency>  (300) 
-0.0461563

>  <r_i_glide_ligand_efficiency_sa>  (300) 
-0.156526

>  <r_i_glide_ligand_efficiency_ln>  (300) 
-0.385992

>  <r_i_glide_gscore>  (300) 
-1.8001

>  <r_i_glide_lipo>  (300) 
-0.152439

>  <r_i_glide_hbond>  (300) 
0

>  <r_i_glide_metal>  (300) 
-0

>  <r_i_glide_rewards>  (300) 
-0.0300837

>  <r_i_glide_evdw>  (300) 
-30.0957

>  <r_i_glide_ecoul>  (300) 
-0.751945

>  <r_i_glide_erotb>  (300) 
0

>  <r_i_glide_esite>  (300) 
0

>  <r_i_glide_emodel>  (300) 
-34.1056

>  <r_i_glide_energy>  (300) 
-30.8476

>  <r_i_glide_einternal>  (300) 
0.253394

>  <r_i_glide_intrahb_reward>  (300) 
-0

>  <i_i_glide_confnum>  (300) 
2

>  <i_i_glide_posenum>  (300) 
15

>  <r_i_glide_eff_state_penalty>  (300) 
0

>  <ligand_id>  (300) 
78

>  <original_smiles>  (300) 
CC1CCC2(O)C3C(=O)CC4(C)CCC1(C)C(O)(C3=CC=C1C3CC(C)(C)CCC3(C(=O)O)CCC14C)C2O

>  <smiles>  (300) 
[H]OC1([H])C2(O[H])C3=C([H])C([H])=C4C5([H])C([H])([H])C(C([H])([H])[H])(C([H])([H])[H])C([H])([H])C([H])([H])C5(C(=O)[O-])C([H])([H])C([H])([H])C4(C([H])([H])[H])C4(C([H])([H])[H])C([H])([H])C(=O)C3([H])C1(O[H])C([H])([H])C([H])([H])C([H])(C([H])([H])[H])C2(C([H])([H])[H])C([H])([H])C4([H])[H]

$$$$
79:0:0
     RDKit          3D

 57 62  0  0  1  0  0  0  0  0999 V2000
    2.1742   -3.0221   -3.2677 C   0  0  0  0  0  0  0  0  0  0  0  0
    3.4795   -2.9530   -2.6652 N   0  0  0  0  0  0  0  0  0  0  0  0
    4.5595   -3.0490   -3.4957 N   0  0  0  0  0  0  0  0  0  0  0  0
    5.6080   -3.1109   -2.7397 N   0  0  0  0  0  0  0  0  0  0  0  0
    5.2386   -3.0591   -1.4128 N   0  0  0  0  0  0  0  0  0  0  0  0
    3.9201   -2.9065   -1.4114 C   0  0  0  0  0  0  0  0  0  0  0  0
    3.0488   -2.8498   -0.1577 C   0  0  0  0  0  0  0  0  0  0  0  0
    3.1229   -1.4748    0.4257 N   0  0  1  0  0  0  0  0  0  0  0  0
    2.1817   -1.2053    1.5217 C   0  0  0  0  0  0  0  0  0  0  0  0
    3.3245   -1.2629    2.5522 C   0  0  1  0  0  0  0  0  0  0  0  0
    3.4680   -0.0643    3.5415 C   0  0  0  0  0  0  0  0  0  0  0  0
    3.1121   -0.3139    5.0221 C   0  0  1  0  0  0  0  0  0  0  0  0
    1.6311   -0.7018    5.1284 C   0  0  0  0  0  0  0  0  0  0  0  0
    1.6296   -2.2298    5.0081 C   0  0  0  0  0  0  0  0  0  0  0  0
    3.1142   -2.6231    4.8173 C   0  0  1  0  0  0  0  0  0  0  0  0
    3.4485   -2.6492    3.2900 C   0  0  2  0  0  0  0  0  0  0  0  0
    4.6456   -3.5317    2.8788 C   0  0  0  0  0  0  0  0  0  0  0  0
    4.7564   -4.8399    3.4248 C   0  0  0  0  0  0  0  0  0  0  0  0
    5.7946   -5.7015    3.0126 C   0  0  0  0  0  0  0  0  0  0  0  0
    6.7080   -5.2903    2.0335 C   0  0  0  0  0  0  0  0  0  0  0  0
    6.6020   -4.0016    1.4723 C   0  0  0  0  0  0  0  0  0  0  0  0
    5.5845   -3.1126    1.9045 C   0  0  0  0  0  0  0  0  0  0  0  0
    5.5689   -1.7031    1.3137 C   0  0  0  0  0  0  0  0  0  0  0  0
    4.2055   -1.0293    1.3257 C   0  0  1  0  0  0  0  0  0  0  0  0
    3.8754   -1.5258    5.5784 C   0  0  0  0  0  0  0  0  0  0  0  0
    5.4014   -1.5143    5.3280 C   0  0  0  0  0  0  0  0  0  0  0  0
    3.7033   -1.6581    7.1122 C   0  0  0  0  0  0  0  0  0  0  0  0
    1.9398   -4.0692   -3.4469 H   0  0  0  0  0  0  0  0  0  0  0  0
    2.1780   -2.4906   -4.2176 H   0  0  0  0  0  0  0  0  0  0  0  0
    1.4311   -2.5934   -2.6004 H   0  0  0  0  0  0  0  0  0  0  0  0
    2.0247   -3.0501   -0.4552 H   0  0  0  0  0  0  0  0  0  0  0  0
    3.3238   -3.6558    0.5153 H   0  0  0  0  0  0  0  0  0  0  0  0
    1.7306   -0.2148    1.4517 H   0  0  0  0  0  0  0  0  0  0  0  0
    1.4043   -1.9533    1.6682 H   0  0  0  0  0  0  0  0  0  0  0  0
    4.4934    0.2997    3.5058 H   0  0  0  0  0  0  0  0  0  0  0  0
    2.8876    0.7897    3.1923 H   0  0  0  0  0  0  0  0  0  0  0  0
    3.3219    0.5870    5.5993 H   0  0  0  0  0  0  0  0  0  0  0  0
    1.2264   -0.3976    6.0936 H   0  0  0  0  0  0  0  0  0  0  0  0
    1.0222   -0.2242    4.3596 H   0  0  0  0  0  0  0  0  0  0  0  0
    1.2351   -2.6680    5.9252 H   0  0  0  0  0  0  0  0  0  0  0  0
    0.9845   -2.5723    4.1985 H   0  0  0  0  0  0  0  0  0  0  0  0
    3.2687   -3.5954    5.2767 H   0  0  0  0  0  0  0  0  0  0  0  0
    2.6534   -3.2789    2.8944 H   0  0  0  0  0  0  0  0  0  0  0  0
    4.0523   -5.2106    4.1543 H   0  0  0  0  0  0  0  0  0  0  0  0
    5.8802   -6.6895    3.4470 H   0  0  0  0  0  0  0  0  0  0  0  0
    7.5032   -5.9540    1.7151 H   0  0  0  0  0  0  0  0  0  0  0  0
    7.3127   -3.6862    0.7245 H   0  0  0  0  0  0  0  0  0  0  0  0
    6.2366   -1.1300    1.9537 H   0  0  0  0  0  0  0  0  0  0  0  0
    6.0788   -1.6089    0.3600 H   0  0  0  0  0  0  0  0  0  0  0  0
    4.2935    0.0399    1.1345 H   0  0  0  0  0  0  0  0  0  0  0  0
    5.8568   -2.4381    5.6869 H   0  0  0  0  0  0  0  0  0  0  0  0
    5.8798   -0.6877    5.8538 H   0  0  0  0  0  0  0  0  0  0  0  0
    5.6727   -1.4201    4.2805 H   0  0  0  0  0  0  0  0  0  0  0  0
    4.1594   -2.5789    7.4779 H   0  0  0  0  0  0  0  0  0  0  0  0
    2.6657   -1.6680    7.4433 H   0  0  0  0  0  0  0  0  0  0  0  0
    4.1900   -0.8318    7.6320 H   0  0  0  0  0  0  0  0  0  0  0  0
    2.8828   -0.7998   -0.2841 H   0  0  0  0  0  0  0  0  0  0  0  0
  1  2  1  0
  1 28  1  0
  1 29  1  0
  1 30  1  0
  2  6  1  0
  2  3  1  0
  3  4  2  0
  4  5  1  0
  5  6  2  0
  6  7  1  0
  7  8  1  0
  7 31  1  0
  7 32  1  0
  8 24  1  0
  8  9  1  0
  8 57  1  6
 10  9  1  6
  9 33  1  0
  9 34  1  0
 10 16  1  0
 10 24  1  0
 10 11  1  0
 11 12  1  0
 11 35  1  0
 11 36  1  0
 12 25  1  0
 12 13  1  0
 12 37  1  1
 13 14  1  0
 13 38  1  0
 13 39  1  0
 14 15  1  0
 14 40  1  0
 14 41  1  0
 15 16  1  0
 15 25  1  0
 15 42  1  1
 16 17  1  0
 16 43  1  6
 17 22  2  0
 17 18  1  0
 18 19  2  0
 18 44  1  0
 19 20  1  0
 19 45  1  0
 20 21  2  0
 20 46  1  0
 21 22  1  0
 21 47  1  0
 22 23  1  0
 23 24  1  0
 23 48  1  0
 23 49  1  0
 24 50  1  6
 25 26  1  0
 25 27  1  0
 26 51  1  0
 26 52  1  0
 26 53  1  0
 27 54  1  0
 27 55  1  0
 27 56  1  0
M  CHG  1   8   1
M  END
>  <i_m_ct_stereo_status>  (301) 
1

>  <s_m_source_file>  (301) 
/var/tmp/pbs.5076255.sched01/tmpz7l6rxva/92z_h6r8yo.sdf

>  <i_m_source_file_index>  (301) 
32

>  <i_lp_mmshare_version>  (301) 
48012

>  <i_f3d_flags>  (301) 
0

>  <s_epik_input>  (301) 
W0NIM11uMW5ubmMxW0NIMl1OKFtDSDJdMilbQ0BASF0zW0NIMl1jKFtjSF1bY0hdW2NIXVtjSF00KWM0W0NASF0oW0NAXTIzNSlbQ0BASF02W0NIMl1bQ0gyXVtDQEhdKFtDSDJdNSlDNihbQ0gzXSlbQ0gzXQ==

>  <s_epik_cmdline>  (301) 
J2VwaWtfcHl0aG9uJywgJy1waHQnLCAnMi4wJywgJy1waCcsICc3LjAnLCAnLXRuJywgJzgnLCAnLW1hJywgJzIwMCcsICctaW1hZScsICc8aW5maWxlLm1hZT4nLCAnLW9tYWUnLCAnPG91dGZpbGUubWFlPic=

>  <r_lp_tautomer_probability>  (301) 
1

>  <r_epik_Ionization_Penalty>  (301) 
0.00310321

>  <r_epik_Ionization_Penalty_Charging>  (301) 
0.00310321

>  <r_epik_Ionization_Penalty_Neutral>  (301) 
2.07279e-11

>  <r_epik_State_Penalty>  (301) 
0.00218385

>  <r_epik_Charging_Adjusted_Penalty>  (301) 
0.00528707

>  <i_epik_Tot_Q>  (301) 
1

>  <i_epik_Tot_abs_Q>  (301) 
1

>  <s_lp_Force_Field>  (301) 
OPLS3e

>  <r_lp_Energy>  (301) 
68.0676

>  <b_lp_Chiralities_Consistent>  (301) 
1

>  <s_lp_Variant>  (301) 
79:0-1

>  <s_i_glide_gridfile>  (301) 
pfpi4k_grid

>  <i_i_glide_lignum>  (301) 
32

>  <i_i_glide_rotatable_bonds>  (301) 
2

>  <r_i_docking_score>  (301) 
-3.6913

>  <r_i_glide_ligand_efficiency>  (301) 
-0.136715

>  <r_i_glide_ligand_efficiency_sa>  (301) 
-0.410145

>  <r_i_glide_ligand_efficiency_ln>  (301) 
-0.859275

>  <r_i_glide_gscore>  (301) 
-3.6913

>  <r_i_glide_lipo>  (301) 
-0.592384

>  <r_i_glide_hbond>  (301) 
-0.0210512

>  <r_i_glide_metal>  (301) 
-0

>  <r_i_glide_rewards>  (301) 
-0.923815

>  <r_i_glide_evdw>  (301) 
-23.3501

>  <r_i_glide_ecoul>  (301) 
-7.62945

>  <r_i_glide_erotb>  (301) 
0.289399

>  <r_i_glide_esite>  (301) 
-0.131532

>  <r_i_glide_emodel>  (301) 
-38.599

>  <r_i_glide_energy>  (301) 
-30.9795

>  <r_i_glide_einternal>  (301) 
0.577929

>  <r_i_glide_intrahb_reward>  (301) 
-0

>  <i_i_glide_confnum>  (301) 
3

>  <i_i_glide_posenum>  (301) 
38

>  <r_i_glide_eff_state_penalty>  (301) 
0

>  <ligand_id>  (301) 
79

>  <original_smiles>  (301) 
Cn1nnnc1CN1CC23CC4CCC(C2c2ccccc2CC13)C4(C)C

>  <smiles>  (301) 
[H]c1c([H])c([H])c2c(c1[H])C([H])([H])C1([H])C3(C([H])([H])C4([H])C([H])([H])C([H])([H])C([H])(C23[H])C4(C([H])([H])[H])C([H])([H])[H])C([H])([H])[N+]1([H])C([H])([H])c1nnnn1C([H])([H])[H]

$$$$
79:0:1
     RDKit          3D

 57 62  0  0  1  0  0  0  0  0999 V2000
    1.6017  -10.0644    9.6789 C   0  0  0  0  0  0  0  0  0  0  0  0
    1.0192   -8.9304    9.0053 N   0  0  0  0  0  0  0  0  0  0  0  0
    0.7182   -7.8289    9.7302 N   0  0  0  0  0  0  0  0  0  0  0  0
    0.2450   -6.9457    8.9165 N   0  0  0  0  0  0  0  0  0  0  0  0
    0.2197   -7.4571    7.6375 N   0  0  0  0  0  0  0  0  0  0  0  0
    0.6945   -8.6889    7.7173 C   0  0  0  0  0  0  0  0  0  0  0  0
    0.9536   -9.6889    6.6039 C   0  0  0  0  0  0  0  0  0  0  0  0
    0.2679   -9.2680    5.3412 N   0  0  1  0  0  0  0  0  0  0  0  0
    0.5378   -7.9518    4.7482 C   0  0  0  0  0  0  0  0  0  0  0  0
    1.4170   -8.5911    3.6743 C   0  0  1  0  0  0  0  0  0  0  0  0
    1.1121   -8.1745    2.2117 C   0  0  0  0  0  0  0  0  0  0  0  0
    2.1089   -7.2216    1.5225 C   0  0  1  0  0  0  0  0  0  0  0  0
    2.1728   -5.8927    2.2922 C   0  0  0  0  0  0  0  0  0  0  0  0
    3.2865   -6.1056    3.3221 C   0  0  0  0  0  0  0  0  0  0  0  0
    3.7806   -7.5553    3.0945 C   0  0  1  0  0  0  0  0  0  0  0  0
    2.9561   -8.5281    3.9981 C   0  0  2  0  0  0  0  0  0  0  0  0
    3.6416   -9.8613    4.3451 C   0  0  0  0  0  0  0  0  0  0  0  0
    5.0034   -9.8600    4.7412 C   0  0  0  0  0  0  0  0  0  0  0  0
    5.6436  -11.0516    5.1355 C   0  0  0  0  0  0  0  0  0  0  0  0
    4.9296  -12.2581    5.1607 C   0  0  0  0  0  0  0  0  0  0  0  0
    3.5745  -12.2695    4.7916 C   0  0  0  0  0  0  0  0  0  0  0  0
    2.9222  -11.0845    4.3924 C   0  0  0  0  0  0  0  0  0  0  0  0
    1.4489  -11.1875    4.0267 C   0  0  0  0  0  0  0  0  0  0  0  0
    0.6726   -9.8700    4.0563 C   0  0  1  0  0  0  0  0  0  0  0  0
    3.5393   -7.7871    1.5925 C   0  0  0  0  0  0  0  0  0  0  0  0
    3.6962   -9.2624    1.1419 C   0  0  0  0  0  0  0  0  0  0  0  0
    4.5226   -6.9702    0.7180 C   0  0  0  0  0  0  0  0  0  0  0  0
    0.8086  -10.6560   10.1389 H   0  0  0  0  0  0  0  0  0  0  0  0
    2.2691   -9.7176   10.4736 H   0  0  0  0  0  0  0  0  0  0  0  0
    2.1813  -10.6705    8.9858 H   0  0  0  0  0  0  0  0  0  0  0  0
    2.0273   -9.8287    6.5291 H   0  0  0  0  0  0  0  0  0  0  0  0
    0.4928  -10.6347    6.8734 H   0  0  0  0  0  0  0  0  0  0  0  0
   -0.3831   -7.5091    4.3717 H   0  0  0  0  0  0  0  0  0  0  0  0
    1.1089   -7.2311    5.3219 H   0  0  0  0  0  0  0  0  0  0  0  0
    1.0353   -9.0757    1.6117 H   0  0  0  0  0  0  0  0  0  0  0  0
    0.1210   -7.7261    2.1453 H   0  0  0  0  0  0  0  0  0  0  0  0
    1.7872   -7.0503    0.4959 H   0  0  0  0  0  0  0  0  0  0  0  0
    2.4355   -5.0768    1.6182 H   0  0  0  0  0  0  0  0  0  0  0  0
    1.2217   -5.6360    2.7571 H   0  0  0  0  0  0  0  0  0  0  0  0
    4.0950   -5.3961    3.1406 H   0  0  0  0  0  0  0  0  0  0  0  0
    2.9388   -5.9228    4.3385 H   0  0  0  0  0  0  0  0  0  0  0  0
    4.8385   -7.5926    3.3321 H   0  0  0  0  0  0  0  0  0  0  0  0
    3.0502   -8.0673    4.9806 H   0  0  0  0  0  0  0  0  0  0  0  0
    5.5760   -8.9460    4.7716 H   0  0  0  0  0  0  0  0  0  0  0  0
    6.6797  -11.0367    5.4367 H   0  0  0  0  0  0  0  0  0  0  0  0
    5.4049  -13.1734    5.4814 H   0  0  0  0  0  0  0  0  0  0  0  0
    3.0241  -13.1961    4.8429 H   0  0  0  0  0  0  0  0  0  0  0  0
    1.4697  -11.5263    2.9893 H   0  0  0  0  0  0  0  0  0  0  0  0
    0.9524  -11.9897    4.5772 H   0  0  0  0  0  0  0  0  0  0  0  0
   -0.2481   -9.9472    3.4731 H   0  0  0  0  0  0  0  0  0  0  0  0
    4.7192   -9.6060    1.2951 H   0  0  0  0  0  0  0  0  0  0  0  0
    3.4720   -9.3982    0.0835 H   0  0  0  0  0  0  0  0  0  0  0  0
    3.0583   -9.9606    1.6772 H   0  0  0  0  0  0  0  0  0  0  0  0
    5.5458   -7.3136    0.8704 H   0  0  0  0  0  0  0  0  0  0  0  0
    4.5163   -5.9001    0.9203 H   0  0  0  0  0  0  0  0  0  0  0  0
    4.2925   -7.0883   -0.3409 H   0  0  0  0  0  0  0  0  0  0  0  0
   -0.7261   -9.4334    5.4477 H   0  0  0  0  0  0  0  0  0  0  0  0
  1  2  1  0
  1 28  1  0
  1 29  1  0
  1 30  1  0
  2  6  1  0
  2  3  1  0
  3  4  2  0
  4  5  1  0
  5  6  2  0
  6  7  1  0
  7  8  1  0
  7 31  1  0
  7 32  1  0
  8 24  1  0
  8  9  1  0
  8 57  1  1
 10  9  1  1
  9 33  1  0
  9 34  1  0
 10 16  1  0
 10 24  1  0
 10 11  1  0
 11 12  1  0
 11 35  1  0
 11 36  1  0
 12 25  1  0
 12 13  1  0
 12 37  1  6
 13 14  1  0
 13 38  1  0
 13 39  1  0
 14 15  1  0
 14 40  1  0
 14 41  1  0
 15 16  1  0
 15 25  1  0
 15 42  1  6
 16 17  1  0
 16 43  1  1
 17 22  2  0
 17 18  1  0
 18 19  2  0
 18 44  1  0
 19 20  1  0
 19 45  1  0
 20 21  2  0
 20 46  1  0
 21 22  1  0
 21 47  1  0
 22 23  1  0
 23 24  1  0
 23 48  1  0
 23 49  1  0
 24 50  1  6
 25 26  1  0
 25 27  1  0
 26 51  1  0
 26 52  1  0
 26 53  1  0
 27 54  1  0
 27 55  1  0
 27 56  1  0
M  CHG  1   8   1
M  END
>  <i_m_ct_stereo_status>  (302) 
1

>  <s_m_source_file>  (302) 
/var/tmp/pbs.5076255.sched01/tmpz7l6rxva/92z_h6r8yo.sdf

>  <i_m_source_file_index>  (302) 
32

>  <i_lp_mmshare_version>  (302) 
48012

>  <i_f3d_flags>  (302) 
0

>  <s_epik_input>  (302) 
W0NIM11uMW5ubmMxW0NIMl1OKFtDSDJdMilbQ0BASF0zW0NIMl1jKFtjSF1bY0hdW2NIXVtjSF00KWM0W0NASF0oW0NAXTIzNSlbQ0BASF02W0NIMl1bQ0gyXVtDQEhdKFtDSDJdNSlDNihbQ0gzXSlbQ0gzXQ==

>  <s_epik_cmdline>  (302) 
J2VwaWtfcHl0aG9uJywgJy1waHQnLCAnMi4wJywgJy1waCcsICc3LjAnLCAnLXRuJywgJzgnLCAnLW1hJywgJzIwMCcsICctaW1hZScsICc8aW5maWxlLm1hZT4nLCAnLW9tYWUnLCAnPG91dGZpbGUubWFlPic=

>  <r_lp_tautomer_probability>  (302) 
1

>  <r_epik_Ionization_Penalty>  (302) 
0.00310321

>  <r_epik_Ionization_Penalty_Charging>  (302) 
0.00310321

>  <r_epik_Ionization_Penalty_Neutral>  (302) 
2.07279e-11

>  <r_epik_State_Penalty>  (302) 
0.00218385

>  <r_epik_Charging_Adjusted_Penalty>  (302) 
0.00528707

>  <i_epik_Tot_Q>  (302) 
1

>  <i_epik_Tot_abs_Q>  (302) 
1

>  <s_lp_Force_Field>  (302) 
OPLS3e

>  <r_lp_Energy>  (302) 
68.0676

>  <b_lp_Chiralities_Consistent>  (302) 
1

>  <s_lp_Variant>  (302) 
79:0-1

>  <s_i_glide_gridfile>  (302) 
pfpi4k_grid

>  <i_i_glide_lignum>  (302) 
32

>  <i_i_glide_rotatable_bonds>  (302) 
2

>  <r_i_docking_score>  (302) 
-3.29091

>  <r_i_glide_ligand_efficiency>  (302) 
-0.121886

>  <r_i_glide_ligand_efficiency_sa>  (302) 
-0.365657

>  <r_i_glide_ligand_efficiency_ln>  (302) 
-0.76607

>  <r_i_glide_gscore>  (302) 
-3.29091

>  <r_i_glide_lipo>  (302) 
-0.231077

>  <r_i_glide_hbond>  (302) 
-0.0899112

>  <r_i_glide_metal>  (302) 
-0

>  <r_i_glide_rewards>  (302) 
-0.923815

>  <r_i_glide_evdw>  (302) 
-20.3937

>  <r_i_glide_ecoul>  (302) 
-7.08123

>  <r_i_glide_erotb>  (302) 
0.289399

>  <r_i_glide_esite>  (302) 
-0.253638

>  <r_i_glide_emodel>  (302) 
-33.1625

>  <r_i_glide_energy>  (302) 
-27.4749

>  <r_i_glide_einternal>  (302) 
2.41497

>  <r_i_glide_intrahb_reward>  (302) 
-0

>  <i_i_glide_confnum>  (302) 
4

>  <i_i_glide_posenum>  (302) 
35

>  <r_i_glide_eff_state_penalty>  (302) 
0

>  <ligand_id>  (302) 
79

>  <original_smiles>  (302) 
Cn1nnnc1CN1CC23CC4CCC(C2c2ccccc2CC13)C4(C)C

>  <smiles>  (302) 
[H]c1c([H])c([H])c2c(c1[H])C([H])([H])C1([H])C3(C([H])([H])C4([H])C([H])([H])C([H])([H])C([H])(C23[H])C4(C([H])([H])[H])C([H])([H])[H])C([H])([H])[N+]1([H])C([H])([H])c1nnnn1C([H])([H])[H]

$$$$
79:0:2
     RDKit          3D

 57 62  0  0  1  0  0  0  0  0999 V2000
   -0.1765  -10.2423    6.7654 C   0  0  0  0  0  0  0  0  0  0  0  0
    0.8281   -9.4152    7.3414 N   0  0  0  0  0  0  0  0  0  0  0  0
    0.6585   -8.9109    8.5894 N   0  0  0  0  0  0  0  0  0  0  0  0
    1.7240   -8.2360    8.8770 N   0  0  0  0  0  0  0  0  0  0  0  0
    2.6138   -8.2582    7.8205 N   0  0  0  0  0  0  0  0  0  0  0  0
    2.0390   -9.0109    6.9104 C   0  0  0  0  0  0  0  0  0  0  0  0
    2.6932   -9.4246    5.6262 C   0  0  0  0  0  0  0  0  0  0  0  0
    1.7842   -9.0158    4.5226 N   0  0  1  0  0  0  0  0  0  0  0  0
    1.5234   -7.5919    4.3107 C   0  0  0  0  0  0  0  0  0  0  0  0
    2.4500   -7.5993    3.0778 C   0  0  1  0  0  0  0  0  0  0  0  0
    1.8799   -7.0193    1.7454 C   0  0  0  0  0  0  0  0  0  0  0  0
    2.4233   -5.6558    1.2714 C   0  0  1  0  0  0  0  0  0  0  0  0
    2.1059   -4.5905    2.3306 C   0  0  0  0  0  0  0  0  0  0  0  0
    3.3190   -4.6089    3.2650 C   0  0  0  0  0  0  0  0  0  0  0  0
    4.2506   -5.7031    2.6967 C   0  0  1  0  0  0  0  0  0  0  0  0
    3.9005   -7.0723    3.3630 C   0  0  2  0  0  0  0  0  0  0  0  0
    5.0298   -8.1212    3.3737 C   0  0  0  0  0  0  0  0  0  0  0  0
    6.3419   -7.7196    3.7319 C   0  0  0  0  0  0  0  0  0  0  0  0
    7.3851   -8.6633    3.8186 C   0  0  0  0  0  0  0  0  0  0  0  0
    7.1342  -10.0224    3.5656 C   0  0  0  0  0  0  0  0  0  0  0  0
    5.8351  -10.4384    3.2154 C   0  0  0  0  0  0  0  0  0  0  0  0
    4.7813   -9.5002    3.1396 C   0  0  0  0  0  0  0  0  0  0  0  0
    3.4023  -10.0333    2.7817 C   0  0  0  0  0  0  0  0  0  0  0  0
    2.2333   -9.1123    3.1317 C   0  0  1  0  0  0  0  0  0  0  0  0
    3.9551   -5.6738    1.1891 C   0  0  0  0  0  0  0  0  0  0  0  0
    4.5611   -6.8562    0.4033 C   0  0  0  0  0  0  0  0  0  0  0  0
    4.5096   -4.3953    0.5121 C   0  0  0  0  0  0  0  0  0  0  0  0
   -0.9317   -9.5899    6.3206 H   0  0  0  0  0  0  0  0  0  0  0  0
   -0.5822  -10.8862    7.5411 H   0  0  0  0  0  0  0  0  0  0  0  0
    0.2592  -10.9074    6.0217 H   0  0  0  0  0  0  0  0  0  0  0  0
    3.6782   -8.9540    5.6125 H   0  0  0  0  0  0  0  0  0  0  0  0
    2.8347  -10.5042    5.6510 H   0  0  0  0  0  0  0  0  0  0  0  0
    0.4818   -7.4198    4.0482 H   0  0  0  0  0  0  0  0  0  0  0  0
    1.8385   -6.9342    5.1179 H   0  0  0  0  0  0  0  0  0  0  0  0
    2.0379   -7.7382    0.9432 H   0  0  0  0  0  0  0  0  0  0  0  0
    0.7961   -6.9429    1.8004 H   0  0  0  0  0  0  0  0  0  0  0  0
    1.9852   -5.3995    0.3062 H   0  0  0  0  0  0  0  0  0  0  0  0
    2.0088   -3.6072    1.8704 H   0  0  0  0  0  0  0  0  0  0  0  0
    1.1757   -4.7926    2.8618 H   0  0  0  0  0  0  0  0  0  0  0  0
    3.8144   -3.6375    3.2428 H   0  0  0  0  0  0  0  0  0  0  0  0
    3.0301   -4.7862    4.3003 H   0  0  0  0  0  0  0  0  0  0  0  0
    5.2767   -5.4116    2.8993 H   0  0  0  0  0  0  0  0  0  0  0  0
    3.9290   -6.8201    4.4191 H   0  0  0  0  0  0  0  0  0  0  0  0
    6.5695   -6.6882    3.9642 H   0  0  0  0  0  0  0  0  0  0  0  0
    8.3807   -8.3436    4.0921 H   0  0  0  0  0  0  0  0  0  0  0  0
    7.9311  -10.7479    3.6499 H   0  0  0  0  0  0  0  0  0  0  0  0
    5.6427  -11.4857    3.0212 H   0  0  0  0  0  0  0  0  0  0  0  0
    3.4369  -10.1102    1.6973 H   0  0  0  0  0  0  0  0  0  0  0  0
    3.2651  -11.0608    3.1258 H   0  0  0  0  0  0  0  0  0  0  0  0
    1.3374   -9.3641    2.5595 H   0  0  0  0  0  0  0  0  0  0  0  0
    5.6475   -6.8283    0.4865 H   0  0  0  0  0  0  0  0  0  0  0  0
    4.2936   -6.8046   -0.6534 H   0  0  0  0  0  0  0  0  0  0  0  0
    4.2513   -7.8352    0.7580 H   0  0  0  0  0  0  0  0  0  0  0  0
    5.5988   -4.3756    0.5557 H   0  0  0  0  0  0  0  0  0  0  0  0
    4.1598   -3.4662    0.9601 H   0  0  0  0  0  0  0  0  0  0  0  0
    4.2307   -4.3615   -0.5415 H   0  0  0  0  0  0  0  0  0  0  0  0
    0.9098   -9.5100    4.6154 H   0  0  0  0  0  0  0  0  0  0  0  0
  1  2  1  0
  1 28  1  0
  1 29  1  0
  1 30  1  0
  2  6  1  0
  2  3  1  0
  3  4  2  0
  4  5  1  0
  5  6  2  0
  6  7  1  0
  7  8  1  0
  7 31  1  0
  7 32  1  0
  8 24  1  0
  8  9  1  0
  8 57  1  6
 10  9  1  1
  9 33  1  0
  9 34  1  0
 10 16  1  0
 10 24  1  0
 10 11  1  0
 11 12  1  0
 11 35  1  0
 11 36  1  0
 12 25  1  0
 12 13  1  0
 12 37  1  6
 13 14  1  0
 13 38  1  0
 13 39  1  0
 14 15  1  0
 14 40  1  0
 14 41  1  0
 15 16  1  0
 15 25  1  0
 15 42  1  6
 16 17  1  0
 16 43  1  1
 17 22  2  0
 17 18  1  0
 18 19  2  0
 18 44  1  0
 19 20  1  0
 19 45  1  0
 20 21  2  0
 20 46  1  0
 21 22  1  0
 21 47  1  0
 22 23  1  0
 23 24  1  0
 23 48  1  0
 23 49  1  0
 24 50  1  6
 25 26  1  0
 25 27  1  0
 26 51  1  0
 26 52  1  0
 26 53  1  0
 27 54  1  0
 27 55  1  0
 27 56  1  0
M  CHG  1   8   1
M  END
>  <i_m_ct_stereo_status>  (303) 
1

>  <s_m_source_file>  (303) 
/var/tmp/pbs.5076255.sched01/tmpz7l6rxva/92z_h6r8yo.sdf

>  <i_m_source_file_index>  (303) 
32

>  <i_lp_mmshare_version>  (303) 
48012

>  <i_f3d_flags>  (303) 
0

>  <s_epik_input>  (303) 
W0NIM11uMW5ubmMxW0NIMl1OKFtDSDJdMilbQ0BASF0zW0NIMl1jKFtjSF1bY0hdW2NIXVtjSF00KWM0W0NASF0oW0NAXTIzNSlbQ0BASF02W0NIMl1bQ0gyXVtDQEhdKFtDSDJdNSlDNihbQ0gzXSlbQ0gzXQ==

>  <s_epik_cmdline>  (303) 
J2VwaWtfcHl0aG9uJywgJy1waHQnLCAnMi4wJywgJy1waCcsICc3LjAnLCAnLXRuJywgJzgnLCAnLW1hJywgJzIwMCcsICctaW1hZScsICc8aW5maWxlLm1hZT4nLCAnLW9tYWUnLCAnPG91dGZpbGUubWFlPic=

>  <r_lp_tautomer_probability>  (303) 
1

>  <r_epik_Ionization_Penalty>  (303) 
0.00310321

>  <r_epik_Ionization_Penalty_Charging>  (303) 
0.00310321

>  <r_epik_Ionization_Penalty_Neutral>  (303) 
2.07279e-11

>  <r_epik_State_Penalty>  (303) 
0.00218385

>  <r_epik_Charging_Adjusted_Penalty>  (303) 
0.00528707

>  <i_epik_Tot_Q>  (303) 
1

>  <i_epik_Tot_abs_Q>  (303) 
1

>  <s_lp_Force_Field>  (303) 
OPLS3e

>  <r_lp_Energy>  (303) 
68.0676

>  <b_lp_Chiralities_Consistent>  (303) 
1

>  <s_lp_Variant>  (303) 
79:0-1

>  <s_i_glide_gridfile>  (303) 
pfpi4k_grid

>  <i_i_glide_lignum>  (303) 
32

>  <i_i_glide_rotatable_bonds>  (303) 
2

>  <r_i_docking_score>  (303) 
-2.81456

>  <r_i_glide_ligand_efficiency>  (303) 
-0.104243

>  <r_i_glide_ligand_efficiency_sa>  (303) 
-0.312729

>  <r_i_glide_ligand_efficiency_ln>  (303) 
-0.655183

>  <r_i_glide_gscore>  (303) 
-2.81456

>  <r_i_glide_lipo>  (303) 
-0.247507

>  <r_i_glide_hbond>  (303) 
0

>  <r_i_glide_metal>  (303) 
-0

>  <r_i_glide_rewards>  (303) 
-0.923815

>  <r_i_glide_evdw>  (303) 
-18.3651

>  <r_i_glide_ecoul>  (303) 
-5.18

>  <r_i_glide_erotb>  (303) 
0.289399

>  <r_i_glide_esite>  (303) 
-0.237382

>  <r_i_glide_emodel>  (303) 
-29.8505

>  <r_i_glide_energy>  (303) 
-23.5451

>  <r_i_glide_einternal>  (303) 
0.414817

>  <r_i_glide_intrahb_reward>  (303) 
-0

>  <i_i_glide_confnum>  (303) 
4

>  <i_i_glide_posenum>  (303) 
2

>  <r_i_glide_eff_state_penalty>  (303) 
0

>  <ligand_id>  (303) 
79

>  <original_smiles>  (303) 
Cn1nnnc1CN1CC23CC4CCC(C2c2ccccc2CC13)C4(C)C

>  <smiles>  (303) 
[H]c1c([H])c([H])c2c(c1[H])C([H])([H])C1([H])C3(C([H])([H])C4([H])C([H])([H])C([H])([H])C([H])(C23[H])C4(C([H])([H])[H])C([H])([H])[H])C([H])([H])[N+]1([H])C([H])([H])c1nnnn1C([H])([H])[H]

$$$$
80:0:0
     RDKit          3D

 60 65  0  0  1  0  0  0  0  0999 V2000
    4.3027   -3.1575    4.4728 C   0  0  0  0  0  0  0  0  0  0  0  0
    3.4087   -2.8070    3.2545 C   0  0  1  0  0  0  0  0  0  0  0  0
    1.9194   -2.9765    3.6515 C   0  0  1  0  0  0  0  0  0  0  0  0
    1.0551   -1.7496    3.3018 C   0  0  0  0  0  0  0  0  0  0  0  0
    1.6097   -0.4136    3.8789 C   0  0  1  0  0  0  0  0  0  0  0  0
    3.1459   -0.3208    3.8036 C   0  0  0  0  0  0  0  0  0  0  0  0
    3.8541    0.5085    4.6311 C   0  0  0  0  0  0  0  0  0  0  0  0
    5.3165    0.5399    4.6805 C   0  0  0  0  0  0  0  0  0  0  0  0
    5.9605    1.1509    5.6901 C   0  0  0  0  0  0  0  0  0  0  0  0
    5.2957    1.7916    6.6977 O   0  0  0  0  0  0  0  0  0  0  0  0
    3.9619    2.0504    6.5016 C   0  0  0  0  0  0  0  0  0  0  0  0
    3.2093    1.4944    5.5237 C   0  0  0  0  0  0  0  0  0  0  0  0
    1.7765    2.0211    5.3834 C   0  0  0  0  0  0  0  0  0  0  0  0
    1.1986    2.2065    3.9473 C   0  0  1  0  0  0  0  0  0  0  0  0
    2.1955    3.0365    3.0939 C   0  0  0  0  0  0  0  0  0  0  0  0
    0.9482    0.8357    3.2327 C   0  0  2  0  0  0  0  0  0  0  0  0
   -0.5703    0.7255    3.0441 C   0  0  0  0  0  0  0  0  0  0  0  0
   -1.0549    2.1619    2.9340 C   0  0  0  0  0  0  0  0  0  0  0  0
   -0.2262    2.9058    3.9832 C   0  0  1  0  0  0  0  0  0  0  0  0
   -0.9804    2.8641    5.3313 C   0  0  0  0  0  0  0  0  0  0  0  0
   -0.2056    4.2873    3.6628 O   0  0  0  0  0  0  0  0  0  0  0  0
    3.6920   -1.3508    2.7846 C   0  0  1  0  0  0  0  0  0  0  0  0
    5.0375   -1.2187    2.3857 O   0  0  0  0  0  0  0  0  0  0  0  0
    1.4294   -4.1114    2.9389 O   0  0  0  0  0  0  0  0  0  0  0  0
    2.5235   -4.9117    2.5139 C   0  0  1  0  0  0  0  0  0  0  0  0
    2.2186   -5.5256    1.1574 C   0  0  0  0  0  0  0  0  0  0  0  0
    1.5825   -6.5607    0.9971 O   0  0  0  0  0  0  0  0  0  0  0  0
    2.7239   -4.7431    0.2066 O   0  0  0  0  0  0  0  0  0  0  0  0
    3.3009   -3.5540    0.7137 C   0  0  0  0  0  0  0  0  0  0  0  0
    3.6022   -3.8999    2.1865 C   0  0  1  0  0  0  0  0  0  0  0  0
    4.0955   -4.1612    4.8487 H   0  0  0  0  0  0  0  0  0  0  0  0
    4.1571   -2.4621    5.3006 H   0  0  0  0  0  0  0  0  0  0  0  0
    5.3593   -3.1282    4.2063 H   0  0  0  0  0  0  0  0  0  0  0  0
    1.8260   -3.1800    4.7198 H   0  0  0  0  0  0  0  0  0  0  0  0
    0.9766   -1.6754    2.2149 H   0  0  0  0  0  0  0  0  0  0  0  0
    0.0385   -1.9188    3.6607 H   0  0  0  0  0  0  0  0  0  0  0  0
    1.3521   -0.4623    4.9361 H   0  0  0  0  0  0  0  0  0  0  0  0
    5.9505    0.1775    3.8996 H   0  0  0  0  0  0  0  0  0  0  0  0
    7.0336    1.2575    5.7632 H   0  0  0  0  0  0  0  0  0  0  0  0
    3.5933    2.7857    7.2030 H   0  0  0  0  0  0  0  0  0  0  0  0
    1.1282    1.4110    6.0109 H   0  0  0  0  0  0  0  0  0  0  0  0
    1.7721    3.0105    5.8449 H   0  0  0  0  0  0  0  0  0  0  0  0
    1.7935    3.2686    2.1067 H   0  0  0  0  0  0  0  0  0  0  0  0
    3.1281    2.5011    2.9231 H   0  0  0  0  0  0  0  0  0  0  0  0
    2.4502    3.9808    3.5773 H   0  0  0  0  0  0  0  0  0  0  0  0
    1.3521    0.9125    2.2215 H   0  0  0  0  0  0  0  0  0  0  0  0
   -0.8210    0.1576    2.1489 H   0  0  0  0  0  0  0  0  0  0  0  0
   -1.0428    0.2399    3.8997 H   0  0  0  0  0  0  0  0  0  0  0  0
   -0.8227    2.5304    1.9354 H   0  0  0  0  0  0  0  0  0  0  0  0
   -2.1350    2.2514    3.0748 H   0  0  0  0  0  0  0  0  0  0  0  0
   -1.1199    1.8481    5.6992 H   0  0  0  0  0  0  0  0  0  0  0  0
   -1.9728    3.3061    5.2291 H   0  0  0  0  0  0  0  0  0  0  0  0
   -0.4653    3.4392    6.0999 H   0  0  0  0  0  0  0  0  0  0  0  0
    0.0009    4.3736    2.7326 H   0  0  0  0  0  0  0  0  0  0  0  0
    3.1424   -1.1349    1.8722 H   0  0  0  0  0  0  0  0  0  0  0  0
    5.1701   -1.7196    1.5963 H   0  0  0  0  0  0  0  0  0  0  0  0
    2.8219   -5.6451    3.2643 H   0  0  0  0  0  0  0  0  0  0  0  0
    4.2004   -3.2646    0.1723 H   0  0  0  0  0  0  0  0  0  0  0  0
    2.5608   -2.7590    0.6163 H   0  0  0  0  0  0  0  0  0  0  0  0
    4.5863   -4.3699    2.2551 H   0  0  0  0  0  0  0  0  0  0  0  0
  2  1  1  1
  1 31  1  0
  1 32  1  0
  1 33  1  0
  2 22  1  0
  2 30  1  0
  2  3  1  0
  3  4  1  0
  3 24  1  0
  3 34  1  1
  4  5  1  0
  4 35  1  0
  4 36  1  0
  5 16  1  0
  5  6  1  0
  5 37  1  1
  6  7  2  0
  6 22  1  0
  7 12  1  0
  7  8  1  0
  8  9  2  0
  8 38  1  0
  9 10  1  0
  9 39  1  0
 10 11  1  0
 11 12  2  0
 11 40  1  0
 12 13  1  0
 13 14  1  0
 13 41  1  0
 13 42  1  0
 14 19  1  0
 14 15  1  6
 14 16  1  0
 15 43  1  0
 15 44  1  0
 15 45  1  0
 16 17  1  0
 16 46  1  6
 17 18  1  0
 17 47  1  0
 17 48  1  0
 18 19  1  0
 18 49  1  0
 18 50  1  0
 19 20  1  0
 19 21  1  6
 20 51  1  0
 20 52  1  0
 20 53  1  0
 21 54  1  0
 22 23  1  0
 22 55  1  6
 23 56  1  0
 24 25  1  0
 25 30  1  0
 25 26  1  0
 25 57  1  1
 26 27  2  0
 26 28  1  0
 28 29  1  0
 29 30  1  0
 29 58  1  0
 29 59  1  0
 30 60  1  6
M  END
>  <i_m_ct_stereo_status>  (304) 
1

>  <s_m_source_file>  (304) 
/var/tmp/pbs.5076255.sched01/tmpz7l6rxva/92z_h6r8yo.sdf

>  <i_m_source_file_index>  (304) 
33

>  <i_lp_mmshare_version>  (304) 
48012

>  <i_f3d_flags>  (304) 
0

>  <s_epik_input>  (304) 
Tz1DMU9bQ0gyXVtDQEBIXTJbQ0BIXTFPW0NAQEhdKFtDQEBdMjNbQ0gzXSlbQ0gyXVtDQEhdNEMoW0NASF0zW09IXSk9QzVDKD1bQ0hdT1tDSF09W0NIXTUpW0NIMl1bQ0BAXTYoW0NIM10pW0NAQEhdNFtDSDJdW0NIMl1bQ0BdNihbQ0gzXSlbT0hd

>  <s_epik_cmdline>  (304) 
J2VwaWtfcHl0aG9uJywgJy1waHQnLCAnMi4wJywgJy1waCcsICc3LjAnLCAnLXRuJywgJzgnLCAnLW1hJywgJzIwMCcsICctaW1hZScsICc8aW5maWxlLm1hZT4nLCAnLW9tYWUnLCAnPG91dGZpbGUubWFlPic=

>  <r_lp_tautomer_probability>  (304) 
1

>  <r_epik_Ionization_Penalty>  (304) 
0.00012994

>  <r_epik_Ionization_Penalty_Charging>  (304) 
0

>  <r_epik_Ionization_Penalty_Neutral>  (304) 
0.00012994

>  <r_epik_State_Penalty>  (304) 
-0

>  <r_epik_Charging_Adjusted_Penalty>  (304) 
0

>  <i_epik_Tot_Q>  (304) 
0

>  <i_epik_Tot_abs_Q>  (304) 
0

>  <s_epik_Chemistry_Notes>  (304) 
This compound has an ester and may undergo hydrolysis at high or low pH.

>  <s_lp_Force_Field>  (304) 
OPLS3e

>  <r_lp_Energy>  (304) 
63.6296

>  <b_lp_Chiralities_Consistent>  (304) 
1

>  <s_lp_Variant>  (304) 
80:0-1

>  <s_i_glide_gridfile>  (304) 
pfpi4k_grid

>  <i_i_glide_lignum>  (304) 
33

>  <i_i_glide_rotatable_bonds>  (304) 
2

>  <r_i_docking_score>  (304) 
-2.90246

>  <r_i_glide_ligand_efficiency>  (304) 
-0.0967486

>  <r_i_glide_ligand_efficiency_sa>  (304) 
-0.300621

>  <r_i_glide_ligand_efficiency_ln>  (304) 
-0.65947

>  <r_i_glide_gscore>  (304) 
-2.90246

>  <r_i_glide_lipo>  (304) 
-0.196531

>  <r_i_glide_hbond>  (304) 
-0.16

>  <r_i_glide_metal>  (304) 
-0

>  <r_i_glide_rewards>  (304) 
-0.583013

>  <r_i_glide_evdw>  (304) 
-26.3776

>  <r_i_glide_ecoul>  (304) 
-4.02923

>  <r_i_glide_erotb>  (304) 
0

>  <r_i_glide_esite>  (304) 
-0.0396492

>  <r_i_glide_emodel>  (304) 
-36.0666

>  <r_i_glide_energy>  (304) 
-30.4068

>  <r_i_glide_einternal>  (304) 
0.636443

>  <r_i_glide_intrahb_reward>  (304) 
-0

>  <i_i_glide_confnum>  (304) 
2

>  <i_i_glide_posenum>  (304) 
18

>  <r_i_glide_eff_state_penalty>  (304) 
0

>  <ligand_id>  (304) 
80

>  <original_smiles>  (304) 
CC12C(CC3C(=C4C=COC=C4CC4(C)C3CCC4(C)O)C1O)OC1C(=O)OCC12

>  <smiles>  (304) 
[H]OC1([H])C2=C3C([H])=C([H])OC([H])=C3C([H])([H])C3(C([H])([H])[H])C([H])(C([H])([H])C([H])([H])C3(O[H])C([H])([H])[H])C2([H])C([H])([H])C2([H])OC3([H])C(=O)OC([H])([H])C3([H])C12C([H])([H])[H]

$$$$
80:0:1
     RDKit          3D

 60 65  0  0  1  0  0  0  0  0999 V2000
    4.2602   -3.1613    4.5458 C   0  0  0  0  0  0  0  0  0  0  0  0
    3.3844   -2.8077    3.3161 C   0  0  1  0  0  0  0  0  0  0  0  0
    1.8901   -2.9727    3.6945 C   0  0  1  0  0  0  0  0  0  0  0  0
    1.0304   -1.7450    3.3326 C   0  0  0  0  0  0  0  0  0  0  0  0
    1.5811   -0.4102    3.9172 C   0  0  1  0  0  0  0  0  0  0  0  0
    3.1197   -0.3210    3.8598 C   0  0  0  0  0  0  0  0  0  0  0  0
    3.8201    0.5091    4.6945 C   0  0  0  0  0  0  0  0  0  0  0  0
    5.2828    0.5408    4.7615 C   0  0  0  0  0  0  0  0  0  0  0  0
    5.9143    1.1467    5.7779 C   0  0  0  0  0  0  0  0  0  0  0  0
    5.2367    1.7857    6.7820 O   0  0  0  0  0  0  0  0  0  0  0  0
    3.9076    2.0488    6.5682 C   0  0  0  0  0  0  0  0  0  0  0  0
    3.1656    1.4952    5.5811 C   0  0  0  0  0  0  0  0  0  0  0  0
    1.7362    2.0253    5.4220 C   0  0  0  0  0  0  0  0  0  0  0  0
    1.1767    2.2112    3.9781 C   0  0  1  0  0  0  0  0  0  0  0  0
    2.1872    3.0379    3.1368 C   0  0  0  0  0  0  0  0  0  0  0  0
    0.9318    0.8406    3.2616 C   0  0  2  0  0  0  0  0  0  0  0  0
   -0.5854    0.7336    3.0553 C   0  0  0  0  0  0  0  0  0  0  0  0
   -1.0641    2.1705    2.9367 C   0  0  0  0  0  0  0  0  0  0  0  0
   -0.2459    2.9154    3.9939 C   0  0  1  0  0  0  0  0  0  0  0  0
   -1.0168    2.8782    5.3334 C   0  0  0  0  0  0  0  0  0  0  0  0
   -0.2140    4.2950    3.6688 O   0  0  0  0  0  0  0  0  0  0  0  0
    3.6754   -1.3527    2.8479 C   0  0  1  0  0  0  0  0  0  0  0  0
    5.0245   -1.2228    2.4594 O   0  0  0  0  0  0  0  0  0  0  0  0
    1.4149   -4.1086    2.9772 O   0  0  0  0  0  0  0  0  0  0  0  0
    2.5064   -4.9128    2.5645 C   0  0  1  0  0  0  0  0  0  0  0  0
    2.2124   -5.5244    1.2050 C   0  0  0  0  0  0  0  0  0  0  0  0
    1.5728   -6.5579    1.0363 O   0  0  0  0  0  0  0  0  0  0  0  0
    2.7289   -4.7426    0.2588 O   0  0  0  0  0  0  0  0  0  0  0  0
    3.3044   -3.5550    0.7738 C   0  0  0  0  0  0  0  0  0  0  0  0
    3.5874   -3.9017    2.2501 C   0  0  1  0  0  0  0  0  0  0  0  0
    4.0407   -4.1641    4.9179 H   0  0  0  0  0  0  0  0  0  0  0  0
    4.1051   -2.4667    5.3723 H   0  0  0  0  0  0  0  0  0  0  0  0
    5.3199   -3.1437    4.2939 H   0  0  0  0  0  0  0  0  0  0  0  0
    1.7793   -3.1764    4.7618 H   0  0  0  0  0  0  0  0  0  0  0  0
    0.9660   -1.6708    2.2445 H   0  0  0  0  0  0  0  0  0  0  0  0
    0.0079   -1.9120    3.6779 H   0  0  0  0  0  0  0  0  0  0  0  0
    1.3080   -0.4579    4.9710 H   0  0  0  0  0  0  0  0  0  0  0  0
    5.9284    0.1946    3.9814 H   0  0  0  0  0  0  0  0  0  0  0  0
    6.9860    1.2547    5.8652 H   0  0  0  0  0  0  0  0  0  0  0  0
    3.5318    2.7853    7.2655 H   0  0  0  0  0  0  0  0  0  0  0  0
    1.0778    1.4171    6.0410 H   0  0  0  0  0  0  0  0  0  0  0  0
    1.7283    3.0148    5.8831 H   0  0  0  0  0  0  0  0  0  0  0  0
    1.7973    3.2707    2.1448 H   0  0  0  0  0  0  0  0  0  0  0  0
    3.1205    2.4999    2.9775 H   0  0  0  0  0  0  0  0  0  0  0  0
    2.4384    3.9816    3.6231 H   0  0  0  0  0  0  0  0  0  0  0  0
    1.3479    0.9153    2.2556 H   0  0  0  0  0  0  0  0  0  0  0  0
   -0.8260    0.1668    2.1567 H   0  0  0  0  0  0  0  0  0  0  0  0
   -1.0690    0.2500    3.9055 H   0  0  0  0  0  0  0  0  0  0  0  0
   -0.8191    2.5333    1.9387 H   0  0  0  0  0  0  0  0  0  0  0  0
   -2.1455    2.2639    3.0654 H   0  0  0  0  0  0  0  0  0  0  0  0
   -1.1633    1.8629    5.6997 H   0  0  0  0  0  0  0  0  0  0  0  0
   -2.0067    3.3224    5.2196 H   0  0  0  0  0  0  0  0  0  0  0  0
   -0.5091    3.4514    6.1083 H   0  0  0  0  0  0  0  0  0  0  0  0
    0.0101    4.3756    2.7415 H   0  0  0  0  0  0  0  0  0  0  0  0
    3.1379   -1.1384    1.9286 H   0  0  0  0  0  0  0  0  0  0  0  0
    5.5653   -1.4542    3.1953 H   0  0  0  0  0  0  0  0  0  0  0  0
    2.7895   -5.6476    3.3185 H   0  0  0  0  0  0  0  0  0  0  0  0
    4.2114   -3.2662    0.2448 H   0  0  0  0  0  0  0  0  0  0  0  0
    2.5673   -2.7581    0.6671 H   0  0  0  0  0  0  0  0  0  0  0  0
    4.5693   -4.3732    2.3290 H   0  0  0  0  0  0  0  0  0  0  0  0
  2  1  1  1
  1 31  1  0
  1 32  1  0
  1 33  1  0
  2 22  1  0
  2 30  1  0
  2  3  1  0
  3  4  1  0
  3 24  1  0
  3 34  1  1
  4  5  1  0
  4 35  1  0
  4 36  1  0
  5 16  1  0
  5  6  1  0
  5 37  1  1
  6  7  2  0
  6 22  1  0
  7 12  1  0
  7  8  1  0
  8  9  2  0
  8 38  1  0
  9 10  1  0
  9 39  1  0
 10 11  1  0
 11 12  2  0
 11 40  1  0
 12 13  1  0
 13 14  1  0
 13 41  1  0
 13 42  1  0
 14 19  1  0
 14 15  1  6
 14 16  1  0
 15 43  1  0
 15 44  1  0
 15 45  1  0
 16 17  1  0
 16 46  1  6
 17 18  1  0
 17 47  1  0
 17 48  1  0
 18 19  1  0
 18 49  1  0
 18 50  1  0
 19 20  1  0
 19 21  1  6
 20 51  1  0
 20 52  1  0
 20 53  1  0
 21 54  1  0
 22 23  1  0
 22 55  1  6
 23 56  1  0
 24 25  1  0
 25 30  1  0
 25 26  1  0
 25 57  1  1
 26 27  2  0
 26 28  1  0
 28 29  1  0
 29 30  1  0
 29 58  1  0
 29 59  1  0
 30 60  1  6
M  END
>  <i_m_ct_stereo_status>  (305) 
1

>  <s_m_source_file>  (305) 
/var/tmp/pbs.5076255.sched01/tmpz7l6rxva/92z_h6r8yo.sdf

>  <i_m_source_file_index>  (305) 
33

>  <i_lp_mmshare_version>  (305) 
48012

>  <i_f3d_flags>  (305) 
0

>  <s_epik_input>  (305) 
Tz1DMU9bQ0gyXVtDQEBIXTJbQ0BIXTFPW0NAQEhdKFtDQEBdMjNbQ0gzXSlbQ0gyXVtDQEhdNEMoW0NASF0zW09IXSk9QzVDKD1bQ0hdT1tDSF09W0NIXTUpW0NIMl1bQ0BAXTYoW0NIM10pW0NAQEhdNFtDSDJdW0NIMl1bQ0BdNihbQ0gzXSlbT0hd

>  <s_epik_cmdline>  (305) 
J2VwaWtfcHl0aG9uJywgJy1waHQnLCAnMi4wJywgJy1waCcsICc3LjAnLCAnLXRuJywgJzgnLCAnLW1hJywgJzIwMCcsICctaW1hZScsICc8aW5maWxlLm1hZT4nLCAnLW9tYWUnLCAnPG91dGZpbGUubWFlPic=

>  <r_lp_tautomer_probability>  (305) 
1

>  <r_epik_Ionization_Penalty>  (305) 
0.00012994

>  <r_epik_Ionization_Penalty_Charging>  (305) 
0

>  <r_epik_Ionization_Penalty_Neutral>  (305) 
0.00012994

>  <r_epik_State_Penalty>  (305) 
-0

>  <r_epik_Charging_Adjusted_Penalty>  (305) 
0

>  <i_epik_Tot_Q>  (305) 
0

>  <i_epik_Tot_abs_Q>  (305) 
0

>  <s_epik_Chemistry_Notes>  (305) 
This compound has an ester and may undergo hydrolysis at high or low pH.

>  <s_lp_Force_Field>  (305) 
OPLS3e

>  <r_lp_Energy>  (305) 
63.6296

>  <b_lp_Chiralities_Consistent>  (305) 
1

>  <s_lp_Variant>  (305) 
80:0-1

>  <s_i_glide_gridfile>  (305) 
pfpi4k_grid

>  <i_i_glide_lignum>  (305) 
33

>  <i_i_glide_rotatable_bonds>  (305) 
2

>  <r_i_docking_score>  (305) 
-2.81016

>  <r_i_glide_ligand_efficiency>  (305) 
-0.0936722

>  <r_i_glide_ligand_efficiency_sa>  (305) 
-0.291061

>  <r_i_glide_ligand_efficiency_ln>  (305) 
-0.6385

>  <r_i_glide_gscore>  (305) 
-2.81016

>  <r_i_glide_lipo>  (305) 
-0.185411

>  <r_i_glide_hbond>  (305) 
-0.16

>  <r_i_glide_metal>  (305) 
-0

>  <r_i_glide_rewards>  (305) 
-0.583013

>  <r_i_glide_evdw>  (305) 
-26.3399

>  <r_i_glide_ecoul>  (305) 
-3.5063

>  <r_i_glide_erotb>  (305) 
0

>  <r_i_glide_esite>  (305) 
-0.0388015

>  <r_i_glide_emodel>  (305) 
-35.5638

>  <r_i_glide_energy>  (305) 
-29.8462

>  <r_i_glide_einternal>  (305) 
0.14305

>  <r_i_glide_intrahb_reward>  (305) 
-0

>  <i_i_glide_confnum>  (305) 
2

>  <i_i_glide_posenum>  (305) 
25

>  <r_i_glide_eff_state_penalty>  (305) 
0

>  <ligand_id>  (305) 
80

>  <original_smiles>  (305) 
CC12C(CC3C(=C4C=COC=C4CC4(C)C3CCC4(C)O)C1O)OC1C(=O)OCC12

>  <smiles>  (305) 
[H]OC1([H])C2=C3C([H])=C([H])OC([H])=C3C([H])([H])C3(C([H])([H])[H])C([H])(C([H])([H])C([H])([H])C3(O[H])C([H])([H])[H])C2([H])C([H])([H])C2([H])OC3([H])C(=O)OC([H])([H])C3([H])C12C([H])([H])[H]

$$$$
80:0:2
     RDKit          3D

 60 65  0  0  1  0  0  0  0  0999 V2000
    4.6048   -8.2261    0.9641 C   0  0  0  0  0  0  0  0  0  0  0  0
    5.2308   -7.4497    2.1518 C   0  0  1  0  0  0  0  0  0  0  0  0
    4.7319   -5.9801    2.1290 C   0  0  1  0  0  0  0  0  0  0  0  0
    4.1730   -5.5017    3.4834 C   0  0  0  0  0  0  0  0  0  0  0  0
    3.0610   -6.4311    4.0536 C   0  0  1  0  0  0  0  0  0  0  0  0
    3.3530   -7.9284    3.8244 C   0  0  0  0  0  0  0  0  0  0  0  0
    2.3508   -8.8616    3.8323 C   0  0  0  0  0  0  0  0  0  0  0  0
    2.5606  -10.2780    3.5231 C   0  0  0  0  0  0  0  0  0  0  0  0
    1.5193  -11.0865    3.2721 C   0  0  0  0  0  0  0  0  0  0  0  0
    0.2291  -10.6379    3.2797 O   0  0  0  0  0  0  0  0  0  0  0  0
   -0.0047   -9.4292    3.8835 C   0  0  0  0  0  0  0  0  0  0  0  0
    0.9579   -8.5364    4.2046 C   0  0  0  0  0  0  0  0  0  0  0  0
    0.5127   -7.3225    5.0264 C   0  0  0  0  0  0  0  0  0  0  0  0
    1.4677   -6.8000    6.1419 C   0  0  1  0  0  0  0  0  0  0  0  0
    1.8769   -7.9799    7.0663 C   0  0  0  0  0  0  0  0  0  0  0  0
    2.7663   -6.1510    5.5547 C   0  0  2  0  0  0  0  0  0  0  0  0
    2.7087   -4.6628    5.9313 C   0  0  0  0  0  0  0  0  0  0  0  0
    1.9046   -4.6208    7.2245 C   0  0  0  0  0  0  0  0  0  0  0  0
    0.7891   -5.6466    6.9913 C   0  0  1  0  0  0  0  0  0  0  0  0
   -0.4169   -4.9320    6.3416 C   0  0  0  0  0  0  0  0  0  0  0  0
    0.2846   -6.0859    8.2423 O   0  0  0  0  0  0  0  0  0  0  0  0
    4.8520   -8.1375    3.4939 C   0  0  1  0  0  0  0  0  0  0  0  0
    5.3534   -9.4540    3.5283 O   0  0  0  0  0  0  0  0  0  0  0  0
    5.8565   -5.1696    1.7944 O   0  0  0  0  0  0  0  0  0  0  0  0
    6.8433   -5.9722    1.1642 C   0  0  1  0  0  0  0  0  0  0  0  0
    8.2346   -5.4921    1.5398 C   0  0  0  0  0  0  0  0  0  0  0  0
    8.8575   -4.6337    0.9228 O   0  0  0  0  0  0  0  0  0  0  0  0
    8.6486   -6.1705    2.6088 O   0  0  0  0  0  0  0  0  0  0  0  0
    7.6833   -7.0880    3.0926 C   0  0  0  0  0  0  0  0  0  0  0  0
    6.7412   -7.2966    1.8900 C   0  0  1  0  0  0  0  0  0  0  0  0
    4.8130   -7.7329    0.0150 H   0  0  0  0  0  0  0  0  0  0  0  0
    3.5213   -8.3068    1.0537 H   0  0  0  0  0  0  0  0  0  0  0  0
    5.0026   -9.2389    0.8949 H   0  0  0  0  0  0  0  0  0  0  0  0
    3.9670   -5.8470    1.3614 H   0  0  0  0  0  0  0  0  0  0  0  0
    4.9983   -5.4294    4.1949 H   0  0  0  0  0  0  0  0  0  0  0  0
    3.7943   -4.4839    3.3724 H   0  0  0  0  0  0  0  0  0  0  0  0
    2.1851   -6.1849    3.4534 H   0  0  0  0  0  0  0  0  0  0  0  0
    3.5077  -10.7755    3.5591 H   0  0  0  0  0  0  0  0  0  0  0  0
    1.5918  -12.1444    3.0603 H   0  0  0  0  0  0  0  0  0  0  0  0
   -1.0502   -9.3127    4.1271 H   0  0  0  0  0  0  0  0  0  0  0  0
    0.2254   -6.5335    4.3329 H   0  0  0  0  0  0  0  0  0  0  0  0
   -0.4125   -7.6186    5.5252 H   0  0  0  0  0  0  0  0  0  0  0  0
    2.4701   -7.6408    7.9172 H   0  0  0  0  0  0  0  0  0  0  0  0
    2.4845   -8.7180    6.5440 H   0  0  0  0  0  0  0  0  0  0  0  0
    1.0048   -8.5096    7.4546 H   0  0  0  0  0  0  0  0  0  0  0  0
    3.6154   -6.5477    6.1148 H   0  0  0  0  0  0  0  0  0  0  0  0
    3.7030   -4.2316    6.0596 H   0  0  0  0  0  0  0  0  0  0  0  0
    2.1952   -4.0883    5.1594 H   0  0  0  0  0  0  0  0  0  0  0  0
    2.5451   -4.9250    8.0542 H   0  0  0  0  0  0  0  0  0  0  0  0
    1.5346   -3.6176    7.4488 H   0  0  0  0  0  0  0  0  0  0  0  0
   -0.1724   -4.5079    5.3681 H   0  0  0  0  0  0  0  0  0  0  0  0
   -0.7624   -4.1105    6.9702 H   0  0  0  0  0  0  0  0  0  0  0  0
   -1.2673   -5.6018    6.2190 H   0  0  0  0  0  0  0  0  0  0  0  0
    0.9985   -6.4718    8.7281 H   0  0  0  0  0  0  0  0  0  0  0  0
    5.3708   -7.6600    4.3196 H   0  0  0  0  0  0  0  0  0  0  0  0
    4.9521   -9.9481    2.8274 H   0  0  0  0  0  0  0  0  0  0  0  0
    6.6973   -6.0495    0.0876 H   0  0  0  0  0  0  0  0  0  0  0  0
    8.1256   -8.0270    3.4269 H   0  0  0  0  0  0  0  0  0  0  0  0
    7.1809   -6.6138    3.9351 H   0  0  0  0  0  0  0  0  0  0  0  0
    7.1320   -8.1001    1.2630 H   0  0  0  0  0  0  0  0  0  0  0  0
  2  1  1  6
  1 31  1  0
  1 32  1  0
  1 33  1  0
  2 22  1  0
  2 30  1  0
  2  3  1  0
  3  4  1  0
  3 24  1  0
  3 34  1  6
  4  5  1  0
  4 35  1  0
  4 36  1  0
  5 16  1  0
  5  6  1  0
  5 37  1  6
  6  7  2  0
  6 22  1  0
  7 12  1  0
  7  8  1  0
  8  9  2  0
  8 38  1  0
  9 10  1  0
  9 39  1  0
 10 11  1  0
 11 12  2  0
 11 40  1  0
 12 13  1  0
 13 14  1  0
 13 41  1  0
 13 42  1  0
 14 19  1  0
 14 15  1  1
 14 16  1  0
 15 43  1  0
 15 44  1  0
 15 45  1  0
 16 17  1  0
 16 46  1  1
 17 18  1  0
 17 47  1  0
 17 48  1  0
 18 19  1  0
 18 49  1  0
 18 50  1  0
 19 20  1  0
 19 21  1  1
 20 51  1  0
 20 52  1  0
 20 53  1  0
 21 54  1  0
 22 23  1  0
 22 55  1  1
 23 56  1  0
 24 25  1  0
 25 30  1  0
 25 26  1  0
 25 57  1  6
 26 27  2  0
 26 28  1  0
 28 29  1  0
 29 30  1  0
 29 58  1  0
 29 59  1  0
 30 60  1  6
M  END
>  <i_m_ct_stereo_status>  (306) 
1

>  <s_m_source_file>  (306) 
/var/tmp/pbs.5076255.sched01/tmpz7l6rxva/92z_h6r8yo.sdf

>  <i_m_source_file_index>  (306) 
33

>  <i_lp_mmshare_version>  (306) 
48012

>  <i_f3d_flags>  (306) 
0

>  <s_epik_input>  (306) 
Tz1DMU9bQ0gyXVtDQEBIXTJbQ0BIXTFPW0NAQEhdKFtDQEBdMjNbQ0gzXSlbQ0gyXVtDQEhdNEMoW0NASF0zW09IXSk9QzVDKD1bQ0hdT1tDSF09W0NIXTUpW0NIMl1bQ0BAXTYoW0NIM10pW0NAQEhdNFtDSDJdW0NIMl1bQ0BdNihbQ0gzXSlbT0hd

>  <s_epik_cmdline>  (306) 
J2VwaWtfcHl0aG9uJywgJy1waHQnLCAnMi4wJywgJy1waCcsICc3LjAnLCAnLXRuJywgJzgnLCAnLW1hJywgJzIwMCcsICctaW1hZScsICc8aW5maWxlLm1hZT4nLCAnLW9tYWUnLCAnPG91dGZpbGUubWFlPic=

>  <r_lp_tautomer_probability>  (306) 
1

>  <r_epik_Ionization_Penalty>  (306) 
0.00012994

>  <r_epik_Ionization_Penalty_Charging>  (306) 
0

>  <r_epik_Ionization_Penalty_Neutral>  (306) 
0.00012994

>  <r_epik_State_Penalty>  (306) 
-0

>  <r_epik_Charging_Adjusted_Penalty>  (306) 
0

>  <i_epik_Tot_Q>  (306) 
0

>  <i_epik_Tot_abs_Q>  (306) 
0

>  <s_epik_Chemistry_Notes>  (306) 
This compound has an ester and may undergo hydrolysis at high or low pH.

>  <s_lp_Force_Field>  (306) 
OPLS3e

>  <r_lp_Energy>  (306) 
63.6296

>  <b_lp_Chiralities_Consistent>  (306) 
1

>  <s_lp_Variant>  (306) 
80:0-1

>  <s_i_glide_gridfile>  (306) 
pfpi4k_grid

>  <i_i_glide_lignum>  (306) 
33

>  <i_i_glide_rotatable_bonds>  (306) 
2

>  <r_i_docking_score>  (306) 
-2.66295

>  <r_i_glide_ligand_efficiency>  (306) 
-0.088765

>  <r_i_glide_ligand_efficiency_sa>  (306) 
-0.275813

>  <r_i_glide_ligand_efficiency_ln>  (306) 
-0.605051

>  <r_i_glide_gscore>  (306) 
-2.66295

>  <r_i_glide_lipo>  (306) 
-0.369763

>  <r_i_glide_hbond>  (306) 
0

>  <r_i_glide_metal>  (306) 
-0

>  <r_i_glide_rewards>  (306) 
-0.635945

>  <r_i_glide_evdw>  (306) 
-26.6353

>  <r_i_glide_ecoul>  (306) 
-2.16984

>  <r_i_glide_erotb>  (306) 
0

>  <r_i_glide_esite>  (306) 
0

>  <r_i_glide_emodel>  (306) 
-34.3044

>  <r_i_glide_energy>  (306) 
-28.8052

>  <r_i_glide_einternal>  (306) 
0.0219451

>  <r_i_glide_intrahb_reward>  (306) 
-0

>  <i_i_glide_confnum>  (306) 
1

>  <i_i_glide_posenum>  (306) 
16

>  <r_i_glide_eff_state_penalty>  (306) 
0

>  <ligand_id>  (306) 
80

>  <original_smiles>  (306) 
CC12C(CC3C(=C4C=COC=C4CC4(C)C3CCC4(C)O)C1O)OC1C(=O)OCC12

>  <smiles>  (306) 
[H]OC1([H])C2=C3C([H])=C([H])OC([H])=C3C([H])([H])C3(C([H])([H])[H])C([H])(C([H])([H])C([H])([H])C3(O[H])C([H])([H])[H])C2([H])C([H])([H])C2([H])OC3([H])C(=O)OC([H])([H])C3([H])C12C([H])([H])[H]

$$$$
81:0:0
     RDKit          3D

 76 81  0  0  1  0  0  0  0  0999 V2000
    5.1978   -3.4591    5.6546 C   0  0  0  0  0  0  0  0  0  0  0  0
    4.8741   -2.2583    4.7393 C   0  0  2  0  0  0  0  0  0  0  0  0
    5.2617   -0.9484    5.4752 C   0  0  0  0  0  0  0  0  0  0  0  0
    5.3911    0.3753    4.6829 C   0  0  0  0  0  0  0  0  0  0  0  0
    4.1549    1.0752    4.0904 C   0  0  1  0  0  0  0  0  0  0  0  0
    3.3180    0.5007    2.9432 C   0  0  1  0  0  0  0  0  0  0  0  0
    3.8616   -0.7603    2.2438 C   0  0  2  0  0  0  0  0  0  0  0  0
    3.9370   -0.5559    0.7038 C   0  0  0  0  0  0  0  0  0  0  0  0
    5.2155   -1.1153    0.0413 C   0  0  0  0  0  0  0  0  0  0  0  0
    5.3033   -2.5954   -0.1044 N   0  0  0  0  0  0  0  0  0  0  0  0
    6.6788   -2.9116   -0.5867 C   0  0  0  0  0  0  0  0  0  0  0  0
    4.3520   -3.0853   -1.1440 C   0  0  0  0  0  0  0  0  0  0  0  0
    5.1231   -3.2940    1.2062 C   0  0  0  0  0  0  0  0  0  0  0  0
    3.6920   -3.3020    1.8108 C   0  0  0  0  0  0  0  0  0  0  0  0
    3.1789   -2.0837    2.6657 C   0  0  2  0  0  0  0  0  0  0  0  0
    1.6544   -2.0096    2.3654 C   0  0  0  0  0  0  0  0  0  0  0  0
    3.4063   -2.3529    4.2067 C   0  0  2  0  0  0  0  0  0  0  0  0
    2.3558   -1.7652    5.1768 C   0  0  0  0  0  0  0  0  0  0  0  0
    2.2448   -0.2457    5.3961 C   0  0  2  0  0  0  0  0  0  0  0  0
    0.8722    0.0289    5.6632 O   0  0  0  0  0  0  0  0  0  0  0  0
    0.4433    1.0389    4.8207 C   0  0  1  0  0  0  0  0  0  0  0  0
   -0.5435    1.8380    5.3827 O   0  0  0  0  0  0  0  0  0  0  0  0
   -1.0385    2.8666    4.5189 C   0  0  0  0  0  0  0  0  0  0  0  0
   -1.8511    2.2780    3.3470 C   0  0  0  0  0  0  0  0  0  0  0  0
   -1.9704    3.6895    5.4170 C   0  0  0  0  0  0  0  0  0  0  0  0
    0.1365    3.7438    4.0216 C   0  0  0  0  0  0  0  0  0  0  0  0
    1.3247    2.9221    3.4678 C   0  0  1  0  0  0  0  0  0  0  0  0
    2.4432    3.9125    3.0762 C   0  0  0  0  0  0  0  0  0  0  0  0
    1.6878    1.8642    4.5562 C   0  0  2  0  0  0  0  0  0  0  0  0
    2.7058    0.7524    4.3311 C   0  0  1  0  0  0  0  0  0  0  0  0
    4.5937   -3.4550    6.5624 H   0  0  0  0  0  0  0  0  0  0  0  0
    6.2445   -3.4503    5.9610 H   0  0  0  0  0  0  0  0  0  0  0  0
    5.0292   -4.4114    5.1493 H   0  0  0  0  0  0  0  0  0  0  0  0
    5.5618   -2.3709    3.9104 H   0  0  0  0  0  0  0  0  0  0  0  0
    4.6730   -0.8151    6.3781 H   0  0  0  0  0  0  0  0  0  0  0  0
    6.2604   -1.1207    5.8749 H   0  0  0  0  0  0  0  0  0  0  0  0
    5.8400    1.0941    5.3683 H   0  0  0  0  0  0  0  0  0  0  0  0
    6.1415    0.2684    3.8994 H   0  0  0  0  0  0  0  0  0  0  0  0
    4.3401    2.1439    4.0500 H   0  0  0  0  0  0  0  0  0  0  0  0
    2.9587    1.2172    2.2165 H   0  0  0  0  0  0  0  0  0  0  0  0
    4.9054   -0.8337    2.5219 H   0  0  0  0  0  0  0  0  0  0  0  0
    3.0308   -0.8783    0.1933 H   0  0  0  0  0  0  0  0  0  0  0  0
    3.9944    0.5161    0.5021 H   0  0  0  0  0  0  0  0  0  0  0  0
    5.2941   -0.6670   -0.9500 H   0  0  0  0  0  0  0  0  0  0  0  0
    6.0805   -0.7400    0.5957 H   0  0  0  0  0  0  0  0  0  0  0  0
    6.8003   -3.9815   -0.7473 H   0  0  0  0  0  0  0  0  0  0  0  0
    7.4397   -2.6027    0.1342 H   0  0  0  0  0  0  0  0  0  0  0  0
    6.8941   -2.4146   -1.5322 H   0  0  0  0  0  0  0  0  0  0  0  0
    4.3838   -4.1738   -1.2223 H   0  0  0  0  0  0  0  0  0  0  0  0
    4.6148   -2.6836   -2.1235 H   0  0  0  0  0  0  0  0  0  0  0  0
    3.3183   -2.7925   -0.9578 H   0  0  0  0  0  0  0  0  0  0  0  0
    5.3770   -4.3424    1.0455 H   0  0  0  0  0  0  0  0  0  0  0  0
    5.8626   -2.9400    1.9235 H   0  0  0  0  0  0  0  0  0  0  0  0
    2.9753   -3.5408    1.0275 H   0  0  0  0  0  0  0  0  0  0  0  0
    3.6420   -4.2009    2.4300 H   0  0  0  0  0  0  0  0  0  0  0  0
    1.1455   -2.9118    2.7098 H   0  0  0  0  0  0  0  0  0  0  0  0
    1.4442   -1.9155    1.2992 H   0  0  0  0  0  0  0  0  0  0  0  0
    1.1679   -1.1586    2.8359 H   0  0  0  0  0  0  0  0  0  0  0  0
    3.1579   -3.4080    4.3027 H   0  0  0  0  0  0  0  0  0  0  0  0
    1.3715   -2.1507    4.9077 H   0  0  0  0  0  0  0  0  0  0  0  0
    2.5239   -2.2083    6.1600 H   0  0  0  0  0  0  0  0  0  0  0  0
    2.7464    0.0304    6.3205 H   0  0  0  0  0  0  0  0  0  0  0  0
    0.0859    0.5529    3.9151 H   0  0  0  0  0  0  0  0  0  0  0  0
   -2.3883    3.0523    2.7975 H   0  0  0  0  0  0  0  0  0  0  0  0
   -2.5794    1.5714    3.7223 H   0  0  0  0  0  0  0  0  0  0  0  0
   -1.2305    1.7580    2.6178 H   0  0  0  0  0  0  0  0  0  0  0  0
   -2.3876    4.5346    4.8720 H   0  0  0  0  0  0  0  0  0  0  0  0
   -1.4303    4.0725    6.2836 H   0  0  0  0  0  0  0  0  0  0  0  0
   -2.7966    3.0827    5.7937 H   0  0  0  0  0  0  0  0  0  0  0  0
   -0.2253    4.4439    3.2674 H   0  0  0  0  0  0  0  0  0  0  0  0
    0.4930    4.3601    4.8482 H   0  0  0  0  0  0  0  0  0  0  0  0
    0.9990    2.4229    2.5567 H   0  0  0  0  0  0  0  0  0  0  0  0
    2.8395    4.4440    3.9416 H   0  0  0  0  0  0  0  0  0  0  0  0
    2.0495    4.6673    2.3906 H   0  0  0  0  0  0  0  0  0  0  0  0
    3.2711    3.4374    2.5535 H   0  0  0  0  0  0  0  0  0  0  0  0
    1.9583    2.3758    5.4811 H   0  0  0  0  0  0  0  0  0  0  0  0
  1  2  1  0
  1 31  1  0
  1 32  1  0
  1 33  1  0
  2 17  1  0
  2  3  1  0
  2 34  1  6
  3  4  1  0
  3 35  1  0
  3 36  1  0
  4  5  1  0
  4 37  1  0
  4 38  1  0
  5 30  1  0
  5  6  1  0
  5 39  1  6
  6 30  1  0
  6  7  1  0
  6 40  1  6
  7 15  1  0
  7  8  1  0
  7 41  1  1
  8  9  1  0
  8 42  1  0
  8 43  1  0
  9 10  1  0
  9 44  1  0
  9 45  1  0
 10 11  1  0
 10 12  1  0
 10 13  1  0
 11 46  1  0
 11 47  1  0
 11 48  1  0
 12 49  1  0
 12 50  1  0
 12 51  1  0
 13 14  1  0
 13 52  1  0
 13 53  1  0
 14 15  1  0
 14 54  1  0
 14 55  1  0
 15 16  1  1
 15 17  1  0
 16 56  1  0
 16 57  1  0
 16 58  1  0
 17 18  1  0
 17 59  1  6
 18 19  1  0
 18 60  1  0
 18 61  1  0
 30 19  1  1
 19 20  1  0
 19 62  1  1
 20 21  1  0
 21 29  1  0
 21 22  1  0
 21 63  1  6
 22 23  1  0
 23 24  1  0
 23 25  1  0
 23 26  1  0
 24 64  1  0
 24 65  1  0
 24 66  1  0
 25 67  1  0
 25 68  1  0
 25 69  1  0
 26 27  1  0
 26 70  1  0
 26 71  1  0
 27 28  1  0
 27 29  1  0
 27 72  1  6
 28 73  1  0
 28 74  1  0
 28 75  1  0
 29 30  1  0
 29 76  1  1
M  CHG  1  10   1
M  END
>  <i_m_ct_stereo_status>  (307) 
1

>  <s_m_source_file>  (307) 
/var/tmp/pbs.5076255.sched01/tmpz7l6rxva/92z_h6r8yo.sdf

>  <i_m_source_file_index>  (307) 
34

>  <i_lp_mmshare_version>  (307) 
48012

>  <i_f3d_flags>  (307) 
0

>  <s_epik_input>  (307) 
W0NIMl0xW0NIMl1bTitdKFtDSDNdKShbQ0gzXSlbQ0gyXVtDSDJdW0NAXShbQ0gzXSkoW0NAQEhdMVtDQEBIXTJbQ0BIXTNbQ0BAXTI0NSlbQ0BASF0oW0NASF0oW0NIM10pW0NIMl1bQ0gyXTMpW0NIMl1bQ0BASF00T1tDQEBIXTZbQ0BASF01W0NASF0oW0NIM10pW0NIMl1DKE82KShbQ0gzXSlbQ0gzXQ==

>  <s_epik_cmdline>  (307) 
J2VwaWtfcHl0aG9uJywgJy1waHQnLCAnMi4wJywgJy1waCcsICc3LjAnLCAnLXRuJywgJzgnLCAnLW1hJywgJzIwMCcsICctaW1hZScsICc8aW5maWxlLm1hZT4nLCAnLW9tYWUnLCAnPG91dGZpbGUubWFlPic=

>  <r_lp_tautomer_probability>  (307) 
1

>  <r_epik_Ionization_Penalty>  (307) 
2.03981e-12

>  <r_epik_Ionization_Penalty_Charging>  (307) 
0

>  <r_epik_Ionization_Penalty_Neutral>  (307) 
2.03981e-12

>  <r_epik_State_Penalty>  (307) 
-0

>  <r_epik_Charging_Adjusted_Penalty>  (307) 
0

>  <i_epik_Tot_Q>  (307) 
1

>  <i_epik_Tot_abs_Q>  (307) 
1

>  <s_epik_Chemistry_Notes>  (307) 
This compound contains an acetal/aminal-like group ( X-CH(R)-Y where X, Y are N, S, or O) that may be acid/base labile, releasing an aldehyde.

>  <s_lp_Force_Field>  (307) 
OPLS3e

>  <r_lp_Energy>  (307) 
88.6645

>  <b_lp_Chiralities_Consistent>  (307) 
1

>  <s_lp_Variant>  (307) 
81:0-1

>  <s_i_glide_gridfile>  (307) 
pfpi4k_grid

>  <i_i_glide_lignum>  (307) 
34

>  <i_i_glide_rotatable_bonds>  (307) 
0

>  <r_i_docking_score>  (307) 
-2.4391

>  <r_i_glide_ligand_efficiency>  (307) 
-0.0813032

>  <r_i_glide_ligand_efficiency_sa>  (307) 
-0.252628

>  <r_i_glide_ligand_efficiency_ln>  (307) 
-0.554189

>  <r_i_glide_gscore>  (307) 
-2.4391

>  <r_i_glide_lipo>  (307) 
-0.324802

>  <r_i_glide_hbond>  (307) 
0

>  <r_i_glide_metal>  (307) 
-0

>  <r_i_glide_rewards>  (307) 
-0.56823

>  <r_i_glide_evdw>  (307) 
-21.3593

>  <r_i_glide_ecoul>  (307) 
-3.14149

>  <r_i_glide_erotb>  (307) 
0

>  <r_i_glide_esite>  (307) 
-0.0068783

>  <r_i_glide_emodel>  (307) 
-28.815

>  <r_i_glide_energy>  (307) 
-24.5007

>  <r_i_glide_einternal>  (307) 
0

>  <r_i_glide_intrahb_reward>  (307) 
-0

>  <i_i_glide_confnum>  (307) 
2

>  <i_i_glide_posenum>  (307) 
25

>  <r_i_glide_eff_state_penalty>  (307) 
0

>  <ligand_id>  (307) 
81

>  <original_smiles>  (307) 
CC1CCC2C3C4CC[N+](C)(C)CCC4(C)C1CC1OC4OC(C)(C)CC(C)C4C123

>  <smiles>  (307) 
[H]C([H])([H])C1([H])C([H])([H])C([H])([H])C2([H])C3([H])C4([H])C([H])([H])C([H])([H])[N+](C([H])([H])[H])(C([H])([H])[H])C([H])([H])C([H])([H])C4(C([H])([H])[H])C1([H])C([H])([H])C1([H])OC4([H])OC(C([H])([H])[H])(C([H])([H])[H])C([H])([H])C([H])(C([H])([H])[H])C4([H])C123

$$$$
81:0:1
     RDKit          3D

 76 81  0  0  1  0  0  0  0  0999 V2000
    4.3841    2.2345    6.5940 C   0  0  0  0  0  0  0  0  0  0  0  0
    3.4186    1.1992    5.9761 C   0  0  2  0  0  0  0  0  0  0  0  0
    3.5940   -0.1532    6.7150 C   0  0  0  0  0  0  0  0  0  0  0  0
    2.5245   -1.2660    6.5626 C   0  0  0  0  0  0  0  0  0  0  0  0
    2.3319   -2.0140    5.2336 C   0  0  1  0  0  0  0  0  0  0  0  0
    1.8081   -1.3570    3.9536 C   0  0  1  0  0  0  0  0  0  0  0  0
    1.2736    0.0820    4.0716 C   0  0  2  0  0  0  0  0  0  0  0  0
   -0.1588    0.1972    3.4842 C   0  0  0  0  0  0  0  0  0  0  0  0
   -1.1310    1.0652    4.3191 C   0  0  0  0  0  0  0  0  0  0  0  0
   -0.9441    2.5352    4.2503 N   0  0  0  0  0  0  0  0  0  0  0  0
   -1.8493    3.1410    5.2604 C   0  0  0  0  0  0  0  0  0  0  0  0
   -1.3545    3.0571    2.9253 C   0  0  0  0  0  0  0  0  0  0  0  0
    0.4496    2.9276    4.6120 C   0  0  0  0  0  0  0  0  0  0  0  0
    1.5723    2.6017    3.5845 C   0  0  0  0  0  0  0  0  0  0  0  0
    2.2410    1.1781    3.5627 C   0  0  2  0  0  0  0  0  0  0  0  0
    2.5747    0.9341    2.0644 C   0  0  0  0  0  0  0  0  0  0  0  0
    3.5698    1.1701    4.4192 C   0  0  2  0  0  0  0  0  0  0  0  0
    4.7093    0.2507    3.9256 C   0  0  0  0  0  0  0  0  0  0  0  0
    4.5842   -1.2809    4.0039 C   0  0  2  0  0  0  0  0  0  0  0  0
    5.3118   -1.8043    2.8995 O   0  0  0  0  0  0  0  0  0  0  0  0
    4.5068   -2.6853    2.2031 C   0  0  1  0  0  0  0  0  0  0  0  0
    5.2081   -3.7217    1.6047 O   0  0  0  0  0  0  0  0  0  0  0  0
    4.4055   -4.6209    0.8353 C   0  0  0  0  0  0  0  0  0  0  0  0
    3.8537   -3.9306   -0.4320 C   0  0  0  0  0  0  0  0  0  0  0  0
    5.3767   -5.7391    0.4299 C   0  0  0  0  0  0  0  0  0  0  0  0
    3.2717   -5.1932    1.7225 C   0  0  0  0  0  0  0  0  0  0  0  0
    2.4994   -4.1077    2.5101 C   0  0  1  0  0  0  0  0  0  0  0  0
    1.4596   -4.8188    3.4044 C   0  0  0  0  0  0  0  0  0  0  0  0
    3.5653   -3.2426    3.2529 C   0  0  2  0  0  0  0  0  0  0  0  0
    3.2154   -1.9724    4.0151 C   0  0  1  0  0  0  0  0  0  0  0  0
    5.4290    1.9640    6.4389 H   0  0  0  0  0  0  0  0  0  0  0  0
    4.2272    2.3248    7.6693 H   0  0  0  0  0  0  0  0  0  0  0  0
    4.2327    3.2293    6.1729 H   0  0  0  0  0  0  0  0  0  0  0  0
    2.4358    1.5746    6.2345 H   0  0  0  0  0  0  0  0  0  0  0  0
    4.5975   -0.5473    6.5840 H   0  0  0  0  0  0  0  0  0  0  0  0
    3.5717    0.0910    7.7780 H   0  0  0  0  0  0  0  0  0  0  0  0
    2.7748   -2.0263    7.3022 H   0  0  0  0  0  0  0  0  0  0  0  0
    1.5566   -0.8920    6.8947 H   0  0  0  0  0  0  0  0  0  0  0  0
    1.9198   -3.0003    5.4393 H   0  0  0  0  0  0  0  0  0  0  0  0
    1.1453   -1.9634    3.3485 H   0  0  0  0  0  0  0  0  0  0  0  0
    1.1120    0.2604    5.1270 H   0  0  0  0  0  0  0  0  0  0  0  0
   -0.1633    0.4681    2.4303 H   0  0  0  0  0  0  0  0  0  0  0  0
   -0.6085   -0.7928    3.5203 H   0  0  0  0  0  0  0  0  0  0  0  0
   -2.1488    0.8342    3.9940 H   0  0  0  0  0  0  0  0  0  0  0  0
   -1.0843    0.7239    5.3578 H   0  0  0  0  0  0  0  0  0  0  0  0
   -1.7931    4.2301    5.2414 H   0  0  0  0  0  0  0  0  0  0  0  0
   -1.5986    2.8202    6.2751 H   0  0  0  0  0  0  0  0  0  0  0  0
   -2.8911    2.8680    5.0794 H   0  0  0  0  0  0  0  0  0  0  0  0
   -1.1698    4.1330    2.8645 H   0  0  0  0  0  0  0  0  0  0  0  0
   -2.4228    2.9011    2.7539 H   0  0  0  0  0  0  0  0  0  0  0  0
   -0.8409    2.5774    2.0872 H   0  0  0  0  0  0  0  0  0  0  0  0
    0.4632    4.0157    4.7137 H   0  0  0  0  0  0  0  0  0  0  0  0
    0.7010    2.5590    5.6081 H   0  0  0  0  0  0  0  0  0  0  0  0
    1.2331    2.8792    2.5886 H   0  0  0  0  0  0  0  0  0  0  0  0
    2.3531    3.3418    3.7608 H   0  0  0  0  0  0  0  0  0  0  0  0
    3.3046    1.6640    1.7151 H   0  0  0  0  0  0  0  0  0  0  0  0
    1.7038    1.0320    1.4138 H   0  0  0  0  0  0  0  0  0  0  0  0
    2.9837   -0.0560    1.8721 H   0  0  0  0  0  0  0  0  0  0  0  0
    4.0087    2.1363    4.1765 H   0  0  0  0  0  0  0  0  0  0  0  0
    4.9592    0.5220    2.9003 H   0  0  0  0  0  0  0  0  0  0  0  0
    5.6169    0.5164    4.4709 H   0  0  0  0  0  0  0  0  0  0  0  0
    5.1277   -1.6524    4.8684 H   0  0  0  0  0  0  0  0  0  0  0  0
    3.9763   -2.0887    1.4605 H   0  0  0  0  0  0  0  0  0  0  0  0
    3.4023   -4.6533   -1.1120 H   0  0  0  0  0  0  0  0  0  0  0  0
    4.6434   -3.4244   -0.9828 H   0  0  0  0  0  0  0  0  0  0  0  0
    3.0764   -3.2007   -0.2165 H   0  0  0  0  0  0  0  0  0  0  0  0
    4.8798   -6.5256   -0.1393 H   0  0  0  0  0  0  0  0  0  0  0  0
    5.8266   -6.1956    1.3133 H   0  0  0  0  0  0  0  0  0  0  0  0
    6.1902   -5.3426   -0.1781 H   0  0  0  0  0  0  0  0  0  0  0  0
    2.5906   -5.7816    1.1065 H   0  0  0  0  0  0  0  0  0  0  0  0
    3.7054   -5.8963    2.4346 H   0  0  0  0  0  0  0  0  0  0  0  0
    1.9585   -3.4866    1.8008 H   0  0  0  0  0  0  0  0  0  0  0  0
    1.9367   -5.4388    4.1642 H   0  0  0  0  0  0  0  0  0  0  0  0
    0.8391   -5.4845    2.8010 H   0  0  0  0  0  0  0  0  0  0  0  0
    0.7761   -4.1307    3.9000 H   0  0  0  0  0  0  0  0  0  0  0  0
    4.1460   -3.8776    3.9233 H   0  0  0  0  0  0  0  0  0  0  0  0
  1  2  1  0
  1 31  1  0
  1 32  1  0
  1 33  1  0
  2 17  1  0
  2  3  1  0
  2 34  1  6
  3  4  1  0
  3 35  1  0
  3 36  1  0
  4  5  1  0
  4 37  1  0
  4 38  1  0
  5 30  1  0
  5  6  1  0
  5 39  1  1
  6 30  1  0
  6  7  1  0
  6 40  1  6
  7 15  1  0
  7  8  1  0
  7 41  1  1
  8  9  1  0
  8 42  1  0
  8 43  1  0
  9 10  1  0
  9 44  1  0
  9 45  1  0
 10 11  1  0
 10 12  1  0
 10 13  1  0
 11 46  1  0
 11 47  1  0
 11 48  1  0
 12 49  1  0
 12 50  1  0
 12 51  1  0
 13 14  1  0
 13 52  1  0
 13 53  1  0
 14 15  1  0
 14 54  1  0
 14 55  1  0
 15 16  1  6
 15 17  1  0
 16 56  1  0
 16 57  1  0
 16 58  1  0
 17 18  1  0
 17 59  1  6
 18 19  1  0
 18 60  1  0
 18 61  1  0
 30 19  1  1
 19 20  1  0
 19 62  1  1
 20 21  1  0
 21 29  1  0
 21 22  1  0
 21 63  1  6
 22 23  1  0
 23 24  1  0
 23 25  1  0
 23 26  1  0
 24 64  1  0
 24 65  1  0
 24 66  1  0
 25 67  1  0
 25 68  1  0
 25 69  1  0
 26 27  1  0
 26 70  1  0
 26 71  1  0
 27 28  1  0
 27 29  1  0
 27 72  1  6
 28 73  1  0
 28 74  1  0
 28 75  1  0
 29 30  1  0
 29 76  1  1
M  CHG  1  10   1
M  END
>  <i_m_ct_stereo_status>  (308) 
1

>  <s_m_source_file>  (308) 
/var/tmp/pbs.5076255.sched01/tmpz7l6rxva/92z_h6r8yo.sdf

>  <i_m_source_file_index>  (308) 
34

>  <i_lp_mmshare_version>  (308) 
48012

>  <i_f3d_flags>  (308) 
0

>  <s_epik_input>  (308) 
W0NIMl0xW0NIMl1bTitdKFtDSDNdKShbQ0gzXSlbQ0gyXVtDSDJdW0NAXShbQ0gzXSkoW0NAQEhdMVtDQEBIXTJbQ0BIXTNbQ0BAXTI0NSlbQ0BASF0oW0NASF0oW0NIM10pW0NIMl1bQ0gyXTMpW0NIMl1bQ0BASF00T1tDQEBIXTZbQ0BASF01W0NASF0oW0NIM10pW0NIMl1DKE82KShbQ0gzXSlbQ0gzXQ==

>  <s_epik_cmdline>  (308) 
J2VwaWtfcHl0aG9uJywgJy1waHQnLCAnMi4wJywgJy1waCcsICc3LjAnLCAnLXRuJywgJzgnLCAnLW1hJywgJzIwMCcsICctaW1hZScsICc8aW5maWxlLm1hZT4nLCAnLW9tYWUnLCAnPG91dGZpbGUubWFlPic=

>  <r_lp_tautomer_probability>  (308) 
1

>  <r_epik_Ionization_Penalty>  (308) 
2.03981e-12

>  <r_epik_Ionization_Penalty_Charging>  (308) 
0

>  <r_epik_Ionization_Penalty_Neutral>  (308) 
2.03981e-12

>  <r_epik_State_Penalty>  (308) 
-0

>  <r_epik_Charging_Adjusted_Penalty>  (308) 
0

>  <i_epik_Tot_Q>  (308) 
1

>  <i_epik_Tot_abs_Q>  (308) 
1

>  <s_epik_Chemistry_Notes>  (308) 
This compound contains an acetal/aminal-like group ( X-CH(R)-Y where X, Y are N, S, or O) that may be acid/base labile, releasing an aldehyde.

>  <s_lp_Force_Field>  (308) 
OPLS3e

>  <r_lp_Energy>  (308) 
88.6645

>  <b_lp_Chiralities_Consistent>  (308) 
1

>  <s_lp_Variant>  (308) 
81:0-1

>  <s_i_glide_gridfile>  (308) 
pfpi4k_grid

>  <i_i_glide_lignum>  (308) 
34

>  <i_i_glide_rotatable_bonds>  (308) 
0

>  <r_i_docking_score>  (308) 
-2.16343

>  <r_i_glide_ligand_efficiency>  (308) 
-0.0721144

>  <r_i_glide_ligand_efficiency_sa>  (308) 
-0.224076

>  <r_i_glide_ligand_efficiency_ln>  (308) 
-0.491555

>  <r_i_glide_gscore>  (308) 
-2.16343

>  <r_i_glide_lipo>  (308) 
-0.242306

>  <r_i_glide_hbond>  (308) 
0

>  <r_i_glide_metal>  (308) 
-0

>  <r_i_glide_rewards>  (308) 
-0.599237

>  <r_i_glide_evdw>  (308) 
-18.627

>  <r_i_glide_ecoul>  (308) 
-2.43459

>  <r_i_glide_erotb>  (308) 
0

>  <r_i_glide_esite>  (308) 
-0.0253474

>  <r_i_glide_emodel>  (308) 
-24.8781

>  <r_i_glide_energy>  (308) 
-21.0616

>  <r_i_glide_einternal>  (308) 
0

>  <r_i_glide_intrahb_reward>  (308) 
-0

>  <i_i_glide_confnum>  (308) 
1

>  <i_i_glide_posenum>  (308) 
20

>  <r_i_glide_eff_state_penalty>  (308) 
0

>  <ligand_id>  (308) 
81

>  <original_smiles>  (308) 
CC1CCC2C3C4CC[N+](C)(C)CCC4(C)C1CC1OC4OC(C)(C)CC(C)C4C123

>  <smiles>  (308) 
[H]C([H])([H])C1([H])C([H])([H])C([H])([H])C2([H])C3([H])C4([H])C([H])([H])C([H])([H])[N+](C([H])([H])[H])(C([H])([H])[H])C([H])([H])C([H])([H])C4(C([H])([H])[H])C1([H])C([H])([H])C1([H])OC4([H])OC(C([H])([H])[H])(C([H])([H])[H])C([H])([H])C([H])(C([H])([H])[H])C4([H])C123

$$$$
81:0:2
     RDKit          3D

 76 81  0  0  1  0  0  0  0  0999 V2000
    4.4336    2.4904    5.8774 C   0  0  0  0  0  0  0  0  0  0  0  0
    3.3941    1.3933    5.5604 C   0  0  2  0  0  0  0  0  0  0  0  0
    3.6339    0.1891    6.5085 C   0  0  0  0  0  0  0  0  0  0  0  0
    2.5432   -0.8977    6.6738 C   0  0  0  0  0  0  0  0  0  0  0  0
    2.1924   -1.8668    5.5292 C   0  0  1  0  0  0  0  0  0  0  0  0
    1.5382   -1.4334    4.2149 C   0  0  1  0  0  0  0  0  0  0  0  0
    1.0381    0.0228    4.1261 C   0  0  2  0  0  0  0  0  0  0  0  0
   -0.4510    0.0775    3.6888 C   0  0  0  0  0  0  0  0  0  0  0  0
   -1.3090    1.1050    4.4580 C   0  0  0  0  0  0  0  0  0  0  0  0
   -1.1123    2.5387    4.1063 N   0  0  0  0  0  0  0  0  0  0  0  0
   -1.9003    3.3465    5.0824 C   0  0  0  0  0  0  0  0  0  0  0  0
   -1.6646    2.8306    2.7570 C   0  0  0  0  0  0  0  0  0  0  0  0
    0.3216    2.9482    4.2350 C   0  0  0  0  0  0  0  0  0  0  0  0
    1.3113    2.4060    3.1677 C   0  0  0  0  0  0  0  0  0  0  0  0
    1.9553    0.9802    3.3284 C   0  0  2  0  0  0  0  0  0  0  0  0
    2.1212    0.4657    1.8681 C   0  0  0  0  0  0  0  0  0  0  0  0
    3.3709    1.0828    4.0271 C   0  0  2  0  0  0  0  0  0  0  0  0
    4.4392    0.0563    3.5852 C   0  0  0  0  0  0  0  0  0  0  0  0
    4.3056   -1.4315    3.9542 C   0  0  2  0  0  0  0  0  0  0  0  0
    4.9027   -2.1717    2.8945 O   0  0  0  0  0  0  0  0  0  0  0  0
    4.0094   -3.1325    2.4551 C   0  0  1  0  0  0  0  0  0  0  0  0
    4.6282   -4.2816    1.9784 O   0  0  0  0  0  0  0  0  0  0  0  0
    3.7335   -5.2797    1.4729 C   0  0  0  0  0  0  0  0  0  0  0  0
    3.0464   -4.8167    0.1680 C   0  0  0  0  0  0  0  0  0  0  0  0
    4.6436   -6.4805    1.1739 C   0  0  0  0  0  0  0  0  0  0  0  0
    2.7011   -5.6475    2.5695 C   0  0  0  0  0  0  0  0  0  0  0  0
    2.0341   -4.4153    3.2286 C   0  0  1  0  0  0  0  0  0  0  0  0
    1.0919   -4.9227    4.3422 C   0  0  0  0  0  0  0  0  0  0  0  0
    3.1845   -3.4660    3.6833 C   0  0  2  0  0  0  0  0  0  0  0  0
    2.9396   -2.0668    4.2360 C   0  0  1  0  0  0  0  0  0  0  0  0
    5.4520    2.1583    5.6755 H   0  0  0  0  0  0  0  0  0  0  0  0
    4.3919    2.7803    6.9276 H   0  0  0  0  0  0  0  0  0  0  0  0
    4.2564    3.3965    5.2960 H   0  0  0  0  0  0  0  0  0  0  0  0
    2.4504    1.8397    5.8503 H   0  0  0  0  0  0  0  0  0  0  0  0
    4.6128   -0.2519    6.3437 H   0  0  0  0  0  0  0  0  0  0  0  0
    3.7332    0.6209    7.5051 H   0  0  0  0  0  0  0  0  0  0  0  0
    2.8657   -1.5229    7.5064 H   0  0  0  0  0  0  0  0  0  0  0  0
    1.6219   -0.4417    7.0353 H   0  0  0  0  0  0  0  0  0  0  0  0
    1.7972   -2.7859    5.9547 H   0  0  0  0  0  0  0  0  0  0  0  0
    0.8052   -2.1144    3.8042 H   0  0  0  0  0  0  0  0  0  0  0  0
    0.9982    0.3888    5.1446 H   0  0  0  0  0  0  0  0  0  0  0  0
   -0.5647    0.1665    2.6111 H   0  0  0  0  0  0  0  0  0  0  0  0
   -0.9170   -0.8774    3.9357 H   0  0  0  0  0  0  0  0  0  0  0  0
   -2.3558    0.8579    4.2871 H   0  0  0  0  0  0  0  0  0  0  0  0
   -1.1511    0.9572    5.5300 H   0  0  0  0  0  0  0  0  0  0  0  0
   -1.8317    4.4090    4.8550 H   0  0  0  0  0  0  0  0  0  0  0  0
   -1.5389    3.2011    6.1024 H   0  0  0  0  0  0  0  0  0  0  0  0
   -2.9546    3.0721    5.0609 H   0  0  0  0  0  0  0  0  0  0  0  0
   -1.4752    3.8691    2.4790 H   0  0  0  0  0  0  0  0  0  0  0  0
   -2.7442    2.6731    2.7315 H   0  0  0  0  0  0  0  0  0  0  0  0
   -1.2362    2.1901    1.9872 H   0  0  0  0  0  0  0  0  0  0  0  0
    0.3516    4.0337    4.1343 H   0  0  0  0  0  0  0  0  0  0  0  0
    0.6719    2.7529    5.2479 H   0  0  0  0  0  0  0  0  0  0  0  0
    0.8689    2.5143    2.1801 H   0  0  0  0  0  0  0  0  0  0  0  0
    2.1159    3.1421    3.1186 H   0  0  0  0  0  0  0  0  0  0  0  0
    2.8137    1.0974    1.3084 H   0  0  0  0  0  0  0  0  0  0  0  0
    1.1836    0.4705    1.3083 H   0  0  0  0  0  0  0  0  0  0  0  0
    2.4926   -0.5556    1.8162 H   0  0  0  0  0  0  0  0  0  0  0  0
    3.7913    1.9786    3.5776 H   0  0  0  0  0  0  0  0  0  0  0  0
    4.5801    0.1369    2.5071 H   0  0  0  0  0  0  0  0  0  0  0  0
    5.4029    0.3867    3.9758 H   0  0  0  0  0  0  0  0  0  0  0  0
    4.9365   -1.6591    4.8091 H   0  0  0  0  0  0  0  0  0  0  0  0
    3.4091   -2.6595    1.6796 H   0  0  0  0  0  0  0  0  0  0  0  0
    2.5171   -5.6391   -0.3148 H   0  0  0  0  0  0  0  0  0  0  0  0
    3.7774   -4.4374   -0.5469 H   0  0  0  0  0  0  0  0  0  0  0  0
    2.3145   -4.0280    0.3340 H   0  0  0  0  0  0  0  0  0  0  0  0
    4.0791   -7.3421    0.8148 H   0  0  0  0  0  0  0  0  0  0  0  0
    5.1836   -6.7832    2.0713 H   0  0  0  0  0  0  0  0  0  0  0  0
    5.3897   -6.2272    0.4185 H   0  0  0  0  0  0  0  0  0  0  0  0
    1.9482   -6.3162    2.1511 H   0  0  0  0  0  0  0  0  0  0  0  0
    3.2060   -6.2251    3.3458 H   0  0  0  0  0  0  0  0  0  0  0  0
    1.4239   -3.9143    2.4805 H   0  0  0  0  0  0  0  0  0  0  0  0
    1.6436   -5.4138    5.1443 H   0  0  0  0  0  0  0  0  0  0  0  0
    0.3983   -5.6634    3.9388 H   0  0  0  0  0  0  0  0  0  0  0  0
    0.4774   -4.1358    4.7775 H   0  0  0  0  0  0  0  0  0  0  0  0
    3.8299   -3.9875    4.3904 H   0  0  0  0  0  0  0  0  0  0  0  0
  1  2  1  0
  1 31  1  0
  1 32  1  0
  1 33  1  0
  2 17  1  0
  2  3  1  0
  2 34  1  1
  3  4  1  0
  3 35  1  0
  3 36  1  0
  4  5  1  0
  4 37  1  0
  4 38  1  0
  5 30  1  0
  5  6  1  0
  5 39  1  1
  6 30  1  0
  6  7  1  0
  6 40  1  6
  7 15  1  0
  7  8  1  0
  7 41  1  1
  8  9  1  0
  8 42  1  0
  8 43  1  0
  9 10  1  0
  9 44  1  0
  9 45  1  0
 10 11  1  0
 10 12  1  0
 10 13  1  0
 11 46  1  0
 11 47  1  0
 11 48  1  0
 12 49  1  0
 12 50  1  0
 12 51  1  0
 13 14  1  0
 13 52  1  0
 13 53  1  0
 14 15  1  0
 14 54  1  0
 14 55  1  0
 15 16  1  6
 15 17  1  0
 16 56  1  0
 16 57  1  0
 16 58  1  0
 17 18  1  0
 17 59  1  6
 18 19  1  0
 18 60  1  0
 18 61  1  0
 30 19  1  1
 19 20  1  0
 19 62  1  1
 20 21  1  0
 21 29  1  0
 21 22  1  0
 21 63  1  6
 22 23  1  0
 23 24  1  0
 23 25  1  0
 23 26  1  0
 24 64  1  0
 24 65  1  0
 24 66  1  0
 25 67  1  0
 25 68  1  0
 25 69  1  0
 26 27  1  0
 26 70  1  0
 26 71  1  0
 27 28  1  0
 27 29  1  0
 27 72  1  6
 28 73  1  0
 28 74  1  0
 28 75  1  0
 29 30  1  0
 29 76  1  1
M  CHG  1  10   1
M  END
>  <i_m_ct_stereo_status>  (309) 
1

>  <s_m_source_file>  (309) 
/var/tmp/pbs.5076255.sched01/tmpz7l6rxva/92z_h6r8yo.sdf

>  <i_m_source_file_index>  (309) 
34

>  <i_lp_mmshare_version>  (309) 
48012

>  <i_f3d_flags>  (309) 
0

>  <s_epik_input>  (309) 
W0NIMl0xW0NIMl1bTitdKFtDSDNdKShbQ0gzXSlbQ0gyXVtDSDJdW0NAXShbQ0gzXSkoW0NAQEhdMVtDQEBIXTJbQ0BIXTNbQ0BAXTI0NSlbQ0BASF0oW0NASF0oW0NIM10pW0NIMl1bQ0gyXTMpW0NIMl1bQ0BASF00T1tDQEBIXTZbQ0BASF01W0NASF0oW0NIM10pW0NIMl1DKE82KShbQ0gzXSlbQ0gzXQ==

>  <s_epik_cmdline>  (309) 
J2VwaWtfcHl0aG9uJywgJy1waHQnLCAnMi4wJywgJy1waCcsICc3LjAnLCAnLXRuJywgJzgnLCAnLW1hJywgJzIwMCcsICctaW1hZScsICc8aW5maWxlLm1hZT4nLCAnLW9tYWUnLCAnPG91dGZpbGUubWFlPic=

>  <r_lp_tautomer_probability>  (309) 
1

>  <r_epik_Ionization_Penalty>  (309) 
2.03981e-12

>  <r_epik_Ionization_Penalty_Charging>  (309) 
0

>  <r_epik_Ionization_Penalty_Neutral>  (309) 
2.03981e-12

>  <r_epik_State_Penalty>  (309) 
-0

>  <r_epik_Charging_Adjusted_Penalty>  (309) 
0

>  <i_epik_Tot_Q>  (309) 
1

>  <i_epik_Tot_abs_Q>  (309) 
1

>  <s_epik_Chemistry_Notes>  (309) 
This compound contains an acetal/aminal-like group ( X-CH(R)-Y where X, Y are N, S, or O) that may be acid/base labile, releasing an aldehyde.

>  <s_lp_Force_Field>  (309) 
OPLS3e

>  <r_lp_Energy>  (309) 
88.6645

>  <b_lp_Chiralities_Consistent>  (309) 
1

>  <s_lp_Variant>  (309) 
81:0-1

>  <s_i_glide_gridfile>  (309) 
pfpi4k_grid

>  <i_i_glide_lignum>  (309) 
34

>  <i_i_glide_rotatable_bonds>  (309) 
0

>  <r_i_docking_score>  (309) 
-2.05815

>  <r_i_glide_ligand_efficiency>  (309) 
-0.0686049

>  <r_i_glide_ligand_efficiency_sa>  (309) 
-0.213171

>  <r_i_glide_ligand_efficiency_ln>  (309) 
-0.467633

>  <r_i_glide_gscore>  (309) 
-2.05815

>  <r_i_glide_lipo>  (309) 
-0.151681

>  <r_i_glide_hbond>  (309) 
0

>  <r_i_glide_metal>  (309) 
-0

>  <r_i_glide_rewards>  (309) 
-0.570684

>  <r_i_glide_evdw>  (309) 
-19.7451

>  <r_i_glide_ecoul>  (309) 
-2.12828

>  <r_i_glide_erotb>  (309) 
0

>  <r_i_glide_esite>  (309) 
-0.0292855

>  <r_i_glide_emodel>  (309) 
-25.4981

>  <r_i_glide_energy>  (309) 
-21.8734

>  <r_i_glide_einternal>  (309) 
0

>  <r_i_glide_intrahb_reward>  (309) 
-0

>  <i_i_glide_confnum>  (309) 
2

>  <i_i_glide_posenum>  (309) 
40

>  <r_i_glide_eff_state_penalty>  (309) 
0

>  <ligand_id>  (309) 
81

>  <original_smiles>  (309) 
CC1CCC2C3C4CC[N+](C)(C)CCC4(C)C1CC1OC4OC(C)(C)CC(C)C4C123

>  <smiles>  (309) 
[H]C([H])([H])C1([H])C([H])([H])C([H])([H])C2([H])C3([H])C4([H])C([H])([H])C([H])([H])[N+](C([H])([H])[H])(C([H])([H])[H])C([H])([H])C([H])([H])C4(C([H])([H])[H])C1([H])C([H])([H])C1([H])OC4([H])OC(C([H])([H])[H])(C([H])([H])[H])C([H])([H])C([H])(C([H])([H])[H])C4([H])C123

$$$$
82:0:0
     RDKit          3D

 79 84  0  0  1  0  0  0  0  0999 V2000
    8.6267   -2.6489   -0.5855 C   0  0  0  0  0  0  0  0  0  0  0  0
    7.7177   -3.1286    0.5382 C   0  0  2  0  0  0  0  0  0  0  0  0
    6.8750   -4.2623    0.0257 C   0  0  0  0  0  0  0  0  0  0  0  0
    6.9809   -5.5690    0.3264 C   0  0  0  0  0  0  0  0  0  0  0  0
    8.0012   -6.2813    1.1948 C   0  0  2  0  0  0  0  0  0  0  0  0
    8.0916   -7.7372    0.7185 C   0  0  0  0  0  0  0  0  0  0  0  0
    7.7705   -6.1180    2.7303 C   0  0  2  0  0  0  0  0  0  0  0  0
    8.7496   -6.9089    3.6766 C   0  0  0  0  0  0  0  0  0  0  0  0
    7.9014   -7.8994    4.5319 C   0  0  0  0  0  0  0  0  0  0  0  0
    6.5824   -7.8887    3.7666 C   0  0  1  0  0  0  0  0  0  0  0  0
    5.2032   -8.3274    4.2149 C   0  0  0  0  0  0  0  0  0  0  0  0
    4.7979   -8.9910    5.3004 C   0  0  0  0  0  0  0  0  0  0  0  0
    3.3149   -9.2326    5.5299 C   0  0  0  0  0  0  0  0  0  0  0  0
    2.4381   -8.0224    5.1102 C   0  0  2  0  0  0  0  0  0  0  0  0
    1.0351   -8.3494    4.6149 C   0  0  1  0  0  0  0  0  0  0  0  0
   -0.1383   -8.8387    5.4562 C   0  0  0  0  0  0  0  0  0  0  0  0
   -1.3414   -8.5630    4.4945 C   0  0  0  0  0  0  0  0  0  0  0  0
   -0.7799   -7.5852    3.4644 C   0  0  0  0  0  0  0  0  0  0  0  0
   -1.3563   -7.2349    2.4379 O   0  0  0  0  0  0  0  0  0  0  0  0
    0.5557   -7.0649    3.9481 C   0  0  1  0  0  0  0  0  0  0  0  0
    0.2622   -5.8544    4.8672 C   0  0  0  0  0  0  0  0  0  0  0  0
    1.7285   -6.7933    3.0185 C   0  0  0  0  0  0  0  0  0  0  0  0
    2.9649   -7.1612    3.9228 C   0  0  2  0  0  0  0  0  0  0  0  0
    4.2260   -7.7317    3.1990 C   0  0  2  0  0  0  0  0  0  0  0  0
    3.8652   -8.8281    2.1700 C   0  0  0  0  0  0  0  0  0  0  0  0
    5.0844   -6.6448    2.4915 C   0  0  1  0  0  0  0  0  0  0  0  0
    4.3800   -5.4609    2.1944 O   0  0  0  0  0  0  0  0  0  0  0  0
    6.3727   -6.4483    3.3367 C   0  0  2  0  0  0  0  0  0  0  0  0
    6.1356   -5.4961    4.5539 C   0  0  0  0  0  0  0  0  0  0  0  0
    6.8644   -1.9966    1.1306 C   0  0  2  0  0  0  0  0  0  0  0  0
    5.8290   -2.3094    2.1836 C   0  0  0  0  0  0  0  0  0  0  0  0
    5.3762   -1.8260    0.8363 C   0  0  1  0  0  0  0  0  0  0  0  0
    4.7760   -0.4384    0.7327 C   0  0  0  0  0  0  0  0  0  0  0  0
    9.2057   -3.4855   -0.9830 H   0  0  0  0  0  0  0  0  0  0  0  0
    9.3283   -1.9023   -0.2224 H   0  0  0  0  0  0  0  0  0  0  0  0
    8.0496   -2.2455   -1.4104 H   0  0  0  0  0  0  0  0  0  0  0  0
    8.3703   -3.5118    1.3211 H   0  0  0  0  0  0  0  0  0  0  0  0
    6.1071   -3.9734   -0.6802 H   0  0  0  0  0  0  0  0  0  0  0  0
    6.2576   -6.2141   -0.1312 H   0  0  0  0  0  0  0  0  0  0  0  0
    8.9748   -5.8349    0.9771 H   0  0  0  0  0  0  0  0  0  0  0  0
    8.4591   -7.7990   -0.3102 H   0  0  0  0  0  0  0  0  0  0  0  0
    7.1451   -8.2785    0.7996 H   0  0  0  0  0  0  0  0  0  0  0  0
    8.7731   -8.2439    1.3580 H   0  0  0  0  0  0  0  0  0  0  0  0
    7.9763   -5.0595    2.8902 H   0  0  0  0  0  0  0  0  0  0  0  0
    9.5100   -7.4538    3.1215 H   0  0  0  0  0  0  0  0  0  0  0  0
    9.3104   -6.2264    4.3156 H   0  0  0  0  0  0  0  0  0  0  0  0
    8.3410   -8.8949    4.5452 H   0  0  0  0  0  0  0  0  0  0  0  0
    7.8095   -7.5592    5.5668 H   0  0  0  0  0  0  0  0  0  0  0  0
    6.7605   -8.5065    2.8861 H   0  0  0  0  0  0  0  0  0  0  0  0
    5.5015   -9.4068    6.0101 H   0  0  0  0  0  0  0  0  0  0  0  0
    3.0331  -10.1269    4.9702 H   0  0  0  0  0  0  0  0  0  0  0  0
    3.1432   -9.4431    6.5825 H   0  0  0  0  0  0  0  0  0  0  0  0
    2.3577   -7.3768    5.9862 H   0  0  0  0  0  0  0  0  0  0  0  0
    1.1701   -9.1091    3.8346 H   0  0  0  0  0  0  0  0  0  0  0  0
   -0.0584   -9.8990    5.7147 H   0  0  0  0  0  0  0  0  0  0  0  0
   -0.2113   -8.2595    6.3777 H   0  0  0  0  0  0  0  0  0  0  0  0
   -1.7042   -9.4491    3.9882 H   0  0  0  0  0  0  0  0  0  0  0  0
   -2.1831   -8.0920    5.0077 H   0  0  0  0  0  0  0  0  0  0  0  0
    1.0773   -5.6383    5.5530 H   0  0  0  0  0  0  0  0  0  0  0  0
   -0.6373   -6.0002    5.4667 H   0  0  0  0  0  0  0  0  0  0  0  0
    0.0970   -4.9549    4.2709 H   0  0  0  0  0  0  0  0  0  0  0  0
    1.6426   -7.4011    2.1178 H   0  0  0  0  0  0  0  0  0  0  0  0
    1.7621   -5.7541    2.6907 H   0  0  0  0  0  0  0  0  0  0  0  0
    3.2644   -6.2280    4.3976 H   0  0  0  0  0  0  0  0  0  0  0  0
    3.3868   -8.4068    1.2821 H   0  0  0  0  0  0  0  0  0  0  0  0
    3.2079   -9.5906    2.5911 H   0  0  0  0  0  0  0  0  0  0  0  0
    4.7643   -9.3349    1.8141 H   0  0  0  0  0  0  0  0  0  0  0  0
    5.3507   -7.1002    1.5438 H   0  0  0  0  0  0  0  0  0  0  0  0
    3.7358   -5.6566    1.5231 H   0  0  0  0  0  0  0  0  0  0  0  0
    5.3105   -5.8170    5.1804 H   0  0  0  0  0  0  0  0  0  0  0  0
    5.9148   -4.4789    4.2350 H   0  0  0  0  0  0  0  0  0  0  0  0
    7.0138   -5.4201    5.1939 H   0  0  0  0  0  0  0  0  0  0  0  0
    7.4519   -1.1025    1.3247 H   0  0  0  0  0  0  0  0  0  0  0  0
    5.6993   -3.3604    2.3973 H   0  0  0  0  0  0  0  0  0  0  0  0
    5.7361   -1.6450    3.0420 H   0  0  0  0  0  0  0  0  0  0  0  0
    4.8824   -2.5808    0.2137 H   0  0  0  0  0  0  0  0  0  0  0  0
    5.1687    0.2405    1.4961 H   0  0  0  0  0  0  0  0  0  0  0  0
    3.6948   -0.4982    0.8473 H   0  0  0  0  0  0  0  0  0  0  0  0
    4.9882   -0.0336   -0.2527 H   0  0  0  0  0  0  0  0  0  0  0  0
  1  2  1  0
  1 34  1  0
  1 35  1  0
  1 36  1  0
  2  3  1  0
  2 30  1  0
  2 37  1  1
  3  4  2  3
  3 38  1  0
  4  5  1  0
  4 39  1  0
  5  6  1  0
  5  7  1  0
  5 40  1  6
  6 41  1  0
  6 42  1  0
  6 43  1  0
  7 28  1  0
  7  8  1  0
  7 44  1  1
  8  9  1  0
  8 45  1  0
  8 46  1  0
  9 10  1  0
  9 47  1  0
  9 48  1  0
 10 28  1  0
 10 11  1  0
 10 49  1  6
 11 24  1  0
 11 12  2  0
 12 13  1  0
 12 50  1  0
 13 14  1  0
 13 51  1  0
 13 52  1  0
 14 23  1  0
 14 15  1  0
 14 53  1  1
 15 20  1  0
 15 16  1  0
 15 54  1  6
 16 17  1  0
 16 55  1  0
 16 56  1  0
 17 18  1  0
 17 57  1  0
 17 58  1  0
 18 19  2  0
 18 20  1  0
 20 21  1  1
 20 22  1  0
 21 59  1  0
 21 60  1  0
 21 61  1  0
 22 23  1  0
 22 62  1  0
 22 63  1  0
 23 24  1  0
 23 64  1  1
 24 25  1  6
 24 26  1  0
 25 65  1  0
 25 66  1  0
 25 67  1  0
 26 27  1  0
 26 28  1  0
 26 68  1  6
 27 69  1  0
 28 29  1  1
 29 70  1  0
 29 71  1  0
 29 72  1  0
 30 32  1  0
 30 31  1  0
 30 73  1  1
 31 32  1  0
 31 74  1  0
 31 75  1  0
 32 33  1  0
 32 76  1  6
 33 77  1  0
 33 78  1  0
 33 79  1  0
M  END
>  <i_m_ct_stereo_status>  (310) 
1

>  <s_m_source_file>  (310) 
/var/tmp/pbs.5076255.sched01/tmpz7l6rxva/92z_h6r8yo.sdf

>  <i_m_source_file_index>  (310) 
35

>  <i_lp_mmshare_version>  (310) 
48012

>  <i_f3d_flags>  (310) 
0

>  <s_epik_input>  (310) 
W0NIM11bQ0BASF0xW0NIMl1bQ0BIXTFbQ0BIXShbQ0gzXSkvW0NIXT1bQ0hdL1tDQEhdKFtDSDNdKVtDQEhdKFtDSDJdW0NIMl0yKVtDQEBdKFtDSDNdKShbQ0BASF0zW09IXSlbQ0BASF0yQyg9W0NIXVtDSDJdNClbQ0BAXTMoW0NIM10pW0NAQEhdKFtDSDJdNSlbQ0BIXTRbQ0BIXShbQ0BAXTU2W0NIM10pW0NIMl1bQ0gyXUM2PU8=

>  <s_epik_cmdline>  (310) 
J2VwaWtfcHl0aG9uJywgJy1waHQnLCAnMi4wJywgJy1waCcsICc3LjAnLCAnLXRuJywgJzgnLCAnLW1hJywgJzIwMCcsICctaW1hZScsICc8aW5maWxlLm1hZT4nLCAnLW9tYWUnLCAnPG91dGZpbGUubWFlPic=

>  <r_lp_tautomer_probability>  (310) 
1

>  <r_epik_Ionization_Penalty>  (310) 
1.2186e-06

>  <r_epik_Ionization_Penalty_Charging>  (310) 
0

>  <r_epik_Ionization_Penalty_Neutral>  (310) 
1.2186e-06

>  <r_epik_State_Penalty>  (310) 
-0

>  <r_epik_Charging_Adjusted_Penalty>  (310) 
0

>  <i_epik_Tot_Q>  (310) 
0

>  <i_epik_Tot_abs_Q>  (310) 
0

>  <s_lp_Force_Field>  (310) 
OPLS3e

>  <r_lp_Energy>  (310) 
49.9097

>  <b_lp_Chiralities_Consistent>  (310) 
1

>  <s_lp_Variant>  (310) 
82:0-1

>  <s_i_glide_gridfile>  (310) 
pfpi4k_grid

>  <i_i_glide_lignum>  (310) 
35

>  <i_i_glide_rotatable_bonds>  (310) 
5

>  <r_i_docking_score>  (310) 
-2.14952

>  <r_i_glide_ligand_efficiency>  (310) 
-0.0651371

>  <r_i_glide_ligand_efficiency_sa>  (310) 
-0.208929

>  <r_i_glide_ligand_efficiency_ln>  (310) 
-0.478043

>  <r_i_glide_gscore>  (310) 
-2.14952

>  <r_i_glide_lipo>  (310) 
-0.645235

>  <r_i_glide_hbond>  (310) 
-0.155187

>  <r_i_glide_metal>  (310) 
-0

>  <r_i_glide_rewards>  (310) 
-0.336165

>  <r_i_glide_evdw>  (310) 
-19.1496

>  <r_i_glide_ecoul>  (310) 
-2.58286

>  <r_i_glide_erotb>  (310) 
0.394849

>  <r_i_glide_esite>  (310) 
-0.0628749

>  <r_i_glide_emodel>  (310) 
-16.9202

>  <r_i_glide_energy>  (310) 
-21.7325

>  <r_i_glide_einternal>  (310) 
13.3866

>  <r_i_glide_intrahb_reward>  (310) 
-0

>  <i_i_glide_confnum>  (310) 
5

>  <i_i_glide_posenum>  (310) 
35

>  <r_i_glide_eff_state_penalty>  (310) 
0

>  <ligand_id>  (310) 
82

>  <original_smiles>  (310) 
CC(C=CC(C)C1CCC2C3=CCC4C5CCC(=O)C5(C)CC4C3(C)C(O)C21C)C1CC1C

>  <smiles>  (310) 
[H]OC1([H])C2(C([H])([H])[H])C(=C([H])C([H])([H])C3([H])C4([H])C([H])([H])C([H])([H])C(=O)C4(C([H])([H])[H])C([H])([H])C32[H])C2([H])C([H])([H])C([H])([H])C([H])(C([H])(C([H])=C([H])C([H])(C([H])([H])[H])C3([H])C([H])([H])C3([H])C([H])([H])[H])C([H])([H])[H])C12C([H])([H])[H]

$$$$
83:0:0
     RDKit          3D

 50 53  0  0  1  0  0  0  0  0999 V2000
    5.0241    0.3268    4.7156 C   0  0  0  0  0  0  0  0  0  0  0  0
    4.3317    0.1057    3.3648 C   0  0  0  0  0  0  0  0  0  0  0  0
    3.0492    0.8940    3.0697 C   0  0  0  0  0  0  0  0  0  0  0  0
    2.1886    1.5171    3.8943 C   0  0  0  0  0  0  0  0  0  0  0  0
    2.1953    1.6151    5.3368 C   0  0  0  0  0  0  0  0  0  0  0  0
    1.2681    2.3701    5.9574 C   0  0  0  0  0  0  0  0  0  0  0  0
    1.2064    2.5590    7.3275 O   0  0  0  0  0  0  0  0  0  0  0  0
    2.1806    1.8821    8.1187 C   0  0  0  0  0  0  0  0  0  0  0  0
    0.2079    3.1995    5.1880 C   0  0  2  0  0  0  0  0  0  0  0  0
   -0.0743    4.4461    5.9478 C   0  0  0  0  0  0  0  0  0  0  0  0
   -0.2818    5.4108    6.5548 N   0  0  0  0  0  0  0  0  0  0  0  0
   -1.1141    2.4574    4.9171 C   0  0  1  0  0  0  0  0  0  0  0  0
   -1.8997    2.5074    6.0800 O   0  0  0  0  0  0  0  0  0  0  0  0
   -1.7532    3.2018    3.9460 O   0  0  0  0  0  0  0  0  0  0  0  0
   -0.8276    3.8377    3.1541 C   0  0  1  0  0  0  0  0  0  0  0  0
   -1.0046    5.2181    3.2745 O   0  0  0  0  0  0  0  0  0  0  0  0
   -1.9000    5.7713    2.3303 C   0  0  0  0  0  0  0  0  0  0  0  0
    0.5664    3.4559    3.7137 C   0  0  1  0  0  0  0  0  0  0  0  0
    1.6069    4.5861    3.5264 C   0  0  0  0  0  0  0  0  0  0  0  0
    1.0119    2.0821    3.1297 C   0  0  1  0  0  0  0  0  0  0  0  0
    1.4724    2.0477    1.6667 C   0  0  0  0  0  0  0  0  0  0  0  0
    2.5970    0.9974    1.6278 C   0  0  0  0  0  0  0  0  0  0  0  0
   -0.0477    1.1148    3.1897 O   0  0  0  0  0  0  0  0  0  0  0  0
   -0.8528    1.0455    4.3037 C   0  0  0  0  0  0  0  0  0  0  0  0
   -1.2545   -0.1973    4.5718 C   0  0  0  0  0  0  0  0  0  0  0  0
   -2.1288   -0.7029    5.6866 C   0  0  0  0  0  0  0  0  0  0  0  0
   -2.3197   -1.9275    5.6770 O   0  0  0  0  0  0  0  0  0  0  0  0
   -2.6059    0.1399    6.4910 O   0  0  0  0  0  0  0  0  0  0  0  0
    6.0173   -0.1385    4.7412 H   0  0  0  0  0  0  0  0  0  0  0  0
    4.4329   -0.1160    5.5263 H   0  0  0  0  0  0  0  0  0  0  0  0
    5.1472    1.3932    4.8927 H   0  0  0  0  0  0  0  0  0  0  0  0
    5.0355    0.3306    2.5674 H   0  0  0  0  0  0  0  0  0  0  0  0
    4.0995   -0.9493    3.2470 H   0  0  0  0  0  0  0  0  0  0  0  0
    2.9625    1.1126    5.9079 H   0  0  0  0  0  0  0  0  0  0  0  0
    1.9961    2.0767    9.1696 H   0  0  0  0  0  0  0  0  0  0  0  0
    3.2003    2.2155    7.9133 H   0  0  0  0  0  0  0  0  0  0  0  0
    2.1506    0.7976    7.9963 H   0  0  0  0  0  0  0  0  0  0  0  0
   -2.4576    1.7325    6.1035 H   0  0  0  0  0  0  0  0  0  0  0  0
   -1.0341    3.3799    2.1820 H   0  0  0  0  0  0  0  0  0  0  0  0
   -1.9533    6.8381    2.4723 H   0  0  0  0  0  0  0  0  0  0  0  0
   -2.9017    5.3231    2.4015 H   0  0  0  0  0  0  0  0  0  0  0  0
   -1.5259    5.7983    1.3095 H   0  0  0  0  0  0  0  0  0  0  0  0
    1.6715    4.8909    2.4813 H   0  0  0  0  0  0  0  0  0  0  0  0
    2.5928    4.2619    3.8639 H   0  0  0  0  0  0  0  0  0  0  0  0
    1.3455    5.4767    4.1016 H   0  0  0  0  0  0  0  0  0  0  0  0
    0.6447    1.8274    0.9737 H   0  0  0  0  0  0  0  0  0  0  0  0
    1.8798    3.0164    1.3888 H   0  0  0  0  0  0  0  0  0  0  0  0
    3.4336    1.2889    0.9942 H   0  0  0  0  0  0  0  0  0  0  0  0
    2.2293    0.0350    1.2644 H   0  0  0  0  0  0  0  0  0  0  0  0
   -0.8565   -0.9611    3.9256 H   0  0  0  0  0  0  0  0  0  0  0  0
  1  2  1  0
  1 29  1  0
  1 30  1  0
  1 31  1  0
  2  3  1  0
  2 32  1  0
  2 33  1  0
  3 22  1  0
  3  4  2  0
  4 20  1  0
  4  5  1  0
  5  6  2  0
  5 34  1  0
  6  7  1  0
  6  9  1  0
  7  8  1  0
  8 35  1  0
  8 36  1  0
  8 37  1  0
  9 18  1  0
  9 10  1  1
  9 12  1  0
 10 11  3  0
 12 24  1  0
 12 13  1  1
 12 14  1  0
 13 38  1  0
 14 15  1  0
 15 16  1  0
 15 18  1  0
 15 39  1  6
 16 17  1  0
 17 40  1  0
 17 41  1  0
 17 42  1  0
 18 19  1  1
 18 20  1  0
 19 43  1  0
 19 44  1  0
 19 45  1  0
 20 21  1  0
 20 23  1  6
 21 22  1  0
 21 46  1  0
 21 47  1  0
 22 48  1  0
 22 49  1  0
 23 24  1  0
 24 25  2  3
 25 26  1  0
 25 50  1  0
 26 27  2  0
 26 28  1  0
M  CHG  1  28  -1
M  END
>  <i_m_ct_stereo_status>  (311) 
1

>  <s_m_source_file>  (311) 
/var/tmp/pbs.5076255.sched01/tmpz7l6rxva/92z_h6r8yo.sdf

>  <i_m_source_file_index>  (311) 
36

>  <i_lp_mmshare_version>  (311) 
48012

>  <i_f3d_flags>  (311) 
0

>  <s_epik_input>  (311) 
W0NIM11bQ0gyXUMoW0NIMl1bQ0gyXTEpPUMoW0NAXTEyMylbQ0hdPUMoT1tDSDNdKVtDQF00KEMjTilbQ0BAXShbT0hdKShPW0NAQEhdKE9bQ0gzXSlbQ0BdMjRbQ0gzXSkvQyhPMyk9W0NIXVxDKD1PKVtPSF0=

>  <s_epik_cmdline>  (311) 
J2VwaWtfcHl0aG9uJywgJy1waHQnLCAnMi4wJywgJy1waCcsICc3LjAnLCAnLXRuJywgJzgnLCAnLW1hJywgJzIwMCcsICctaW1hZScsICc8aW5maWxlLm1hZT4nLCAnLW9tYWUnLCAnPG91dGZpbGUubWFlPic=

>  <r_epik_Ionization_Penalty>  (311) 
0.338115

>  <r_epik_Ionization_Penalty_Charging>  (311) 
0.290773

>  <r_epik_Ionization_Penalty_Neutral>  (311) 
0.0473423

>  <r_epik_State_Penalty>  (311) 
0.369289

>  <r_epik_Charging_Adjusted_Penalty>  (311) 
0.660062

>  <i_epik_Tot_Q>  (311) 
-1

>  <i_epik_Tot_abs_Q>  (311) 
1

>  <s_epik_Chemistry_Notes>  (311) 
This compound contains an acetal/aminal-like group ( X-CH(R)-Y where X, Y are N, S, or O) that may be acid/base labile, releasing an aldehyde.

>  <s_lp_Force_Field>  (311) 
OPLS3e

>  <r_lp_Energy>  (311) 
26.5099

>  <b_lp_Chiralities_Consistent>  (311) 
1

>  <s_lp_Variant>  (311) 
83:0-1

>  <s_i_glide_gridfile>  (311) 
pfpi4k_grid

>  <i_i_glide_lignum>  (311) 
36

>  <i_i_glide_rotatable_bonds>  (311) 
6

>  <r_i_docking_score>  (311) 
-3.49082

>  <r_i_glide_ligand_efficiency>  (311) 
-0.124672

>  <r_i_glide_ligand_efficiency_sa>  (311) 
-0.378578

>  <r_i_glide_ligand_efficiency_ln>  (311) 
-0.805784

>  <r_i_glide_gscore>  (311) 
-3.49082

>  <r_i_glide_lipo>  (311) 
-0.0921621

>  <r_i_glide_hbond>  (311) 
-0.351605

>  <r_i_glide_metal>  (311) 
-0

>  <r_i_glide_rewards>  (311) 
-1.26097

>  <r_i_glide_evdw>  (311) 
-12.5029

>  <r_i_glide_ecoul>  (311) 
-7.26827

>  <r_i_glide_erotb>  (311) 
0.12916

>  <r_i_glide_esite>  (311) 
-0.199859

>  <r_i_glide_emodel>  (311) 
-27.4288

>  <r_i_glide_energy>  (311) 
-19.7712

>  <r_i_glide_einternal>  (311) 
5.6696

>  <r_i_glide_intrahb_reward>  (311) 
-0.5

>  <i_i_glide_confnum>  (311) 
2

>  <i_i_glide_posenum>  (311) 
23

>  <r_i_glide_eff_state_penalty>  (311) 
0

>  <ligand_id>  (311) 
83

>  <original_smiles>  (311) 
CCC1=C2C=C(OC)C3(C#N)C4(O)OC(OC)C3(C)C2(CC1)OC4=CC(=O)O

>  <smiles>  (311) 
[H]OC12OC([H])(OC([H])([H])[H])C3(C([H])([H])[H])C1(C#N)C(OC([H])([H])[H])=C([H])C1=C(C([H])([H])C([H])([H])[H])C([H])([H])C([H])([H])C13OC2=C([H])C(=O)[O-]

$$$$
83:0:1
     RDKit          3D

 50 53  0  0  1  0  0  0  0  0999 V2000
    4.5549    2.1573    7.1378 C   0  0  0  0  0  0  0  0  0  0  0  0
    4.5155    2.4457    5.6346 C   0  0  0  0  0  0  0  0  0  0  0  0
    3.1537    2.4396    4.9237 C   0  0  0  0  0  0  0  0  0  0  0  0
    1.9130    2.2437    5.3874 C   0  0  0  0  0  0  0  0  0  0  0  0
    1.4633    2.0021    6.7478 C   0  0  0  0  0  0  0  0  0  0  0  0
    0.1581    1.9531    7.0130 C   0  0  0  0  0  0  0  0  0  0  0  0
   -0.3833    1.7565    8.2738 O   0  0  0  0  0  0  0  0  0  0  0  0
    0.5316    1.5868    9.3571 C   0  0  0  0  0  0  0  0  0  0  0  0
   -0.9187    2.2238    5.9320 C   0  0  2  0  0  0  0  0  0  0  0  0
   -2.0973    2.8631    6.5854 C   0  0  0  0  0  0  0  0  0  0  0  0
   -3.0020    3.3565    7.1091 N   0  0  0  0  0  0  0  0  0  0  0  0
   -1.3711    0.9301    5.2345 C   0  0  1  0  0  0  0  0  0  0  0  0
   -2.1814    0.1950    6.0879 O   0  0  0  0  0  0  0  0  0  0  0  0
   -2.0433    1.3987    4.0900 O   0  0  0  0  0  0  0  0  0  0  0  0
   -1.5346    2.6373    3.6720 C   0  0  1  0  0  0  0  0  0  0  0  0
   -2.5313    3.6111    3.7650 O   0  0  0  0  0  0  0  0  0  0  0  0
   -3.5162    3.4778    2.7517 C   0  0  0  0  0  0  0  0  0  0  0  0
   -0.4146    2.9590    4.6999 C   0  0  1  0  0  0  0  0  0  0  0  0
   -0.2480    4.4881    4.9036 C   0  0  0  0  0  0  0  0  0  0  0  0
    0.8944    2.2221    4.2581 C   0  0  1  0  0  0  0  0  0  0  0  0
    1.6626    2.8321    3.0541 C   0  0  0  0  0  0  0  0  0  0  0  0
    3.1385    2.6355    3.4329 C   0  0  0  0  0  0  0  0  0  0  0  0
    0.6694    0.8321    3.9441 O   0  0  0  0  0  0  0  0  0  0  0  0
   -0.1832    0.1001    4.7204 C   0  0  0  0  0  0  0  0  0  0  0  0
    0.0886   -1.2208    4.8565 C   0  0  0  0  0  0  0  0  0  0  0  0
   -0.5378   -2.4794    5.5145 C   0  0  0  0  0  0  0  0  0  0  0  0
    0.1469   -3.5184    5.4369 O   0  0  0  0  0  0  0  0  0  0  0  0
   -1.6689   -2.3610    6.0291 O   0  0  0  0  0  0  0  0  0  0  0  0
    5.5616    2.1548    7.5505 H   0  0  0  0  0  0  0  0  0  0  0  0
    4.1354    1.1666    7.3308 H   0  0  0  0  0  0  0  0  0  0  0  0
    3.9827    2.9188    7.6723 H   0  0  0  0  0  0  0  0  0  0  0  0
    4.9677    3.4211    5.4596 H   0  0  0  0  0  0  0  0  0  0  0  0
    5.1494    1.7107    5.1368 H   0  0  0  0  0  0  0  0  0  0  0  0
    2.1629    1.8490    7.5521 H   0  0  0  0  0  0  0  0  0  0  0  0
   -0.0207    1.4053   10.2793 H   0  0  0  0  0  0  0  0  0  0  0  0
    1.1490    2.4700    9.5259 H   0  0  0  0  0  0  0  0  0  0  0  0
    1.1889    0.7304    9.2131 H   0  0  0  0  0  0  0  0  0  0  0  0
   -2.3380   -0.6697    5.6867 H   0  0  0  0  0  0  0  0  0  0  0  0
   -1.1570    2.5465    2.6468 H   0  0  0  0  0  0  0  0  0  0  0  0
   -4.2567    4.2645    2.8350 H   0  0  0  0  0  0  0  0  0  0  0  0
   -4.0571    2.5387    2.7948 H   0  0  0  0  0  0  0  0  0  0  0  0
   -3.0699    3.5602    1.7696 H   0  0  0  0  0  0  0  0  0  0  0  0
   -0.0981    5.0064    3.9574 H   0  0  0  0  0  0  0  0  0  0  0  0
    0.5927    4.6964    5.5693 H   0  0  0  0  0  0  0  0  0  0  0  0
   -1.1357    4.9136    5.3709 H   0  0  0  0  0  0  0  0  0  0  0  0
    1.3963    2.3846    2.0892 H   0  0  0  0  0  0  0  0  0  0  0  0
    1.4965    3.9071    2.9516 H   0  0  0  0  0  0  0  0  0  0  0  0
    3.7297    3.5056    3.1600 H   0  0  0  0  0  0  0  0  0  0  0  0
    3.5200    1.7367    2.9492 H   0  0  0  0  0  0  0  0  0  0  0  0
    1.0081   -1.4465    4.3536 H   0  0  0  0  0  0  0  0  0  0  0  0
  1  2  1  0
  1 29  1  0
  1 30  1  0
  1 31  1  0
  2  3  1  0
  2 32  1  0
  2 33  1  0
  3 22  1  0
  3  4  2  0
  4 20  1  0
  4  5  1  0
  5  6  2  0
  5 34  1  0
  6  7  1  0
  6  9  1  0
  7  8  1  0
  8 35  1  0
  8 36  1  0
  8 37  1  0
  9 18  1  0
  9 10  1  1
  9 12  1  0
 10 11  3  0
 12 24  1  0
 12 13  1  1
 12 14  1  0
 13 38  1  0
 14 15  1  0
 15 16  1  0
 15 18  1  0
 15 39  1  6
 16 17  1  0
 17 40  1  0
 17 41  1  0
 17 42  1  0
 18 19  1  1
 18 20  1  0
 19 43  1  0
 19 44  1  0
 19 45  1  0
 20 21  1  0
 20 23  1  6
 21 22  1  0
 21 46  1  0
 21 47  1  0
 22 48  1  0
 22 49  1  0
 23 24  1  0
 24 25  2  3
 25 26  1  0
 25 50  1  0
 26 27  2  0
 26 28  1  0
M  CHG  1  28  -1
M  END
>  <i_m_ct_stereo_status>  (312) 
1

>  <s_m_source_file>  (312) 
/var/tmp/pbs.5076255.sched01/tmpz7l6rxva/92z_h6r8yo.sdf

>  <i_m_source_file_index>  (312) 
36

>  <i_lp_mmshare_version>  (312) 
48012

>  <i_f3d_flags>  (312) 
0

>  <s_epik_input>  (312) 
W0NIM11bQ0gyXUMoW0NIMl1bQ0gyXTEpPUMoW0NAXTEyMylbQ0hdPUMoT1tDSDNdKVtDQF00KEMjTilbQ0BAXShbT0hdKShPW0NAQEhdKE9bQ0gzXSlbQ0BdMjRbQ0gzXSkvQyhPMyk9W0NIXVxDKD1PKVtPSF0=

>  <s_epik_cmdline>  (312) 
J2VwaWtfcHl0aG9uJywgJy1waHQnLCAnMi4wJywgJy1waCcsICc3LjAnLCAnLXRuJywgJzgnLCAnLW1hJywgJzIwMCcsICctaW1hZScsICc8aW5maWxlLm1hZT4nLCAnLW9tYWUnLCAnPG91dGZpbGUubWFlPic=

>  <r_epik_Ionization_Penalty>  (312) 
0.338115

>  <r_epik_Ionization_Penalty_Charging>  (312) 
0.290773

>  <r_epik_Ionization_Penalty_Neutral>  (312) 
0.0473423

>  <r_epik_State_Penalty>  (312) 
0.369289

>  <r_epik_Charging_Adjusted_Penalty>  (312) 
0.660062

>  <i_epik_Tot_Q>  (312) 
-1

>  <i_epik_Tot_abs_Q>  (312) 
1

>  <s_epik_Chemistry_Notes>  (312) 
This compound contains an acetal/aminal-like group ( X-CH(R)-Y where X, Y are N, S, or O) that may be acid/base labile, releasing an aldehyde.

>  <s_lp_Force_Field>  (312) 
OPLS3e

>  <r_lp_Energy>  (312) 
26.5099

>  <b_lp_Chiralities_Consistent>  (312) 
1

>  <s_lp_Variant>  (312) 
83:0-1

>  <s_i_glide_gridfile>  (312) 
pfpi4k_grid

>  <i_i_glide_lignum>  (312) 
36

>  <i_i_glide_rotatable_bonds>  (312) 
6

>  <r_i_docking_score>  (312) 
-2.79132

>  <r_i_glide_ligand_efficiency>  (312) 
-0.09969

>  <r_i_glide_ligand_efficiency_sa>  (312) 
-0.302717

>  <r_i_glide_ligand_efficiency_ln>  (312) 
-0.644318

>  <r_i_glide_gscore>  (312) 
-2.79132

>  <r_i_glide_lipo>  (312) 
-0.0382662

>  <r_i_glide_hbond>  (312) 
0

>  <r_i_glide_metal>  (312) 
-0

>  <r_i_glide_rewards>  (312) 
-1.38579

>  <r_i_glide_evdw>  (312) 
-16.2419

>  <r_i_glide_ecoul>  (312) 
-3.96721

>  <r_i_glide_erotb>  (312) 
0.12916

>  <r_i_glide_esite>  (312) 
-0.0892516

>  <r_i_glide_emodel>  (312) 
-29.2722

>  <r_i_glide_energy>  (312) 
-20.2091

>  <r_i_glide_einternal>  (312) 
4.95067

>  <r_i_glide_intrahb_reward>  (312) 
-0.5

>  <i_i_glide_confnum>  (312) 
1

>  <i_i_glide_posenum>  (312) 
33

>  <r_i_glide_eff_state_penalty>  (312) 
0

>  <ligand_id>  (312) 
83

>  <original_smiles>  (312) 
CCC1=C2C=C(OC)C3(C#N)C4(O)OC(OC)C3(C)C2(CC1)OC4=CC(=O)O

>  <smiles>  (312) 
[H]OC12OC([H])(OC([H])([H])[H])C3(C([H])([H])[H])C1(C#N)C(OC([H])([H])[H])=C([H])C1=C(C([H])([H])C([H])([H])[H])C([H])([H])C([H])([H])C13OC2=C([H])C(=O)[O-]

$$$$
83:0:2
     RDKit          3D

 50 53  0  0  1  0  0  0  0  0999 V2000
    5.6866    0.1001    4.6047 C   0  0  0  0  0  0  0  0  0  0  0  0
    5.0105   -0.2518    3.2695 C   0  0  0  0  0  0  0  0  0  0  0  0
    3.5729    0.2239    3.0458 C   0  0  0  0  0  0  0  0  0  0  0  0
    2.6369    0.6398    3.9107 C   0  0  0  0  0  0  0  0  0  0  0  0
    2.7391    0.7945    5.3566 C   0  0  0  0  0  0  0  0  0  0  0  0
    1.6915    1.3152    6.0419 C   0  0  0  0  0  0  0  0  0  0  0  0
    1.6762    1.5408    7.4042 O   0  0  0  0  0  0  0  0  0  0  0  0
    2.8159    1.1247    8.1426 C   0  0  0  0  0  0  0  0  0  0  0  0
    0.4283    1.8365    5.3426 C   0  0  2  0  0  0  0  0  0  0  0  0
   -0.1059    2.9996    6.0836 C   0  0  0  0  0  0  0  0  0  0  0  0
   -0.5227    3.9033    6.6781 N   0  0  0  0  0  0  0  0  0  0  0  0
   -0.6770    0.7702    5.1924 C   0  0  1  0  0  0  0  0  0  0  0  0
   -1.2871    0.5335    6.4520 O   0  0  0  0  0  0  0  0  0  0  0  0
   -1.5688    1.3293    4.2806 O   0  0  0  0  0  0  0  0  0  0  0  0
   -0.8847    2.1815    3.3989 C   0  0  1  0  0  0  0  0  0  0  0  0
   -1.3614    3.4774    3.5494 O   0  0  0  0  0  0  0  0  0  0  0  0
   -2.7000    3.6338    3.1183 C   0  0  0  0  0  0  0  0  0  0  0  0
    0.6025    2.1401    3.8418 C   0  0  1  0  0  0  0  0  0  0  0  0
    1.3538    3.4725    3.5618 C   0  0  0  0  0  0  0  0  0  0  0  0
    1.3183    0.9052    3.2099 C   0  0  1  0  0  0  0  0  0  0  0  0
    1.6989    0.9592    1.7070 C   0  0  0  0  0  0  0  0  0  0  0  0
    3.0315    0.1830    1.6275 C   0  0  0  0  0  0  0  0  0  0  0  0
    0.5298   -0.2789    3.3269 O   0  0  0  0  0  0  0  0  0  0  0  0
   -0.1113   -0.5130    4.5260 C   0  0  0  0  0  0  0  0  0  0  0  0
   -0.2386   -1.8067    4.8913 C   0  0  0  0  0  0  0  0  0  0  0  0
   -0.9750   -2.4103    6.0896 C   0  0  0  0  0  0  0  0  0  0  0  0
   -2.2318   -2.3222    6.0843 O   0  0  0  0  0  0  0  0  0  0  0  0
   -0.2638   -2.9461    6.9812 O   0  0  0  0  0  0  0  0  0  0  0  0
    6.7596   -0.0937    4.5776 H   0  0  0  0  0  0  0  0  0  0  0  0
    5.2537   -0.4823    5.4237 H   0  0  0  0  0  0  0  0  0  0  0  0
    5.5701    1.1623    4.8117 H   0  0  0  0  0  0  0  0  0  0  0  0
    5.6077    0.1511    2.4563 H   0  0  0  0  0  0  0  0  0  0  0  0
    5.0347   -1.3324    3.1442 H   0  0  0  0  0  0  0  0  0  0  0  0
    3.6256    0.4904    5.8757 H   0  0  0  0  0  0  0  0  0  0  0  0
    2.6628    1.3043    9.2020 H   0  0  0  0  0  0  0  0  0  0  0  0
    3.7161    1.6694    7.8568 H   0  0  0  0  0  0  0  0  0  0  0  0
    3.0148    0.0578    8.0335 H   0  0  0  0  0  0  0  0  0  0  0  0
   -1.2952    1.3360    6.9554 H   0  0  0  0  0  0  0  0  0  0  0  0
   -1.0208    1.8413    2.3714 H   0  0  0  0  0  0  0  0  0  0  0  0
   -2.9471    4.6892    3.1908 H   0  0  0  0  0  0  0  0  0  0  0  0
   -3.3892    3.0713    3.7534 H   0  0  0  0  0  0  0  0  0  0  0  0
   -2.8438    3.3308    2.0793 H   0  0  0  0  0  0  0  0  0  0  0  0
    1.3132    3.7495    2.5086 H   0  0  0  0  0  0  0  0  0  0  0  0
    2.4059    3.3954    3.8326 H   0  0  0  0  0  0  0  0  0  0  0  0
    0.9412    4.3096    4.1264 H   0  0  0  0  0  0  0  0  0  0  0  0
    0.9183    0.5546    1.0414 H   0  0  0  0  0  0  0  0  0  0  0  0
    1.8843    1.9834    1.3859 H   0  0  0  0  0  0  0  0  0  0  0  0
    3.7309    0.6377    0.9249 H   0  0  0  0  0  0  0  0  0  0  0  0
    2.8647   -0.8534    1.3230 H   0  0  0  0  0  0  0  0  0  0  0  0
    0.2361   -2.5213    4.2423 H   0  0  0  0  0  0  0  0  0  0  0  0
  1  2  1  0
  1 29  1  0
  1 30  1  0
  1 31  1  0
  2  3  1  0
  2 32  1  0
  2 33  1  0
  3 22  1  0
  3  4  2  0
  4 20  1  0
  4  5  1  0
  5  6  2  0
  5 34  1  0
  6  7  1  0
  6  9  1  0
  7  8  1  0
  8 35  1  0
  8 36  1  0
  8 37  1  0
  9 18  1  0
  9 10  1  1
  9 12  1  0
 10 11  3  0
 12 24  1  0
 12 13  1  1
 12 14  1  0
 13 38  1  0
 14 15  1  0
 15 16  1  0
 15 18  1  0
 15 39  1  6
 16 17  1  0
 17 40  1  0
 17 41  1  0
 17 42  1  0
 18 19  1  1
 18 20  1  0
 19 43  1  0
 19 44  1  0
 19 45  1  0
 20 21  1  0
 20 23  1  6
 21 22  1  0
 21 46  1  0
 21 47  1  0
 22 48  1  0
 22 49  1  0
 23 24  1  0
 24 25  2  3
 25 26  1  0
 25 50  1  0
 26 27  2  0
 26 28  1  0
M  CHG  1  28  -1
M  END
>  <i_m_ct_stereo_status>  (313) 
1

>  <s_m_source_file>  (313) 
/var/tmp/pbs.5076255.sched01/tmpz7l6rxva/92z_h6r8yo.sdf

>  <i_m_source_file_index>  (313) 
36

>  <i_lp_mmshare_version>  (313) 
48012

>  <i_f3d_flags>  (313) 
0

>  <s_epik_input>  (313) 
W0NIM11bQ0gyXUMoW0NIMl1bQ0gyXTEpPUMoW0NAXTEyMylbQ0hdPUMoT1tDSDNdKVtDQF00KEMjTilbQ0BAXShbT0hdKShPW0NAQEhdKE9bQ0gzXSlbQ0BdMjRbQ0gzXSkvQyhPMyk9W0NIXVxDKD1PKVtPSF0=

>  <s_epik_cmdline>  (313) 
J2VwaWtfcHl0aG9uJywgJy1waHQnLCAnMi4wJywgJy1waCcsICc3LjAnLCAnLXRuJywgJzgnLCAnLW1hJywgJzIwMCcsICctaW1hZScsICc8aW5maWxlLm1hZT4nLCAnLW9tYWUnLCAnPG91dGZpbGUubWFlPic=

>  <r_epik_Ionization_Penalty>  (313) 
0.338115

>  <r_epik_Ionization_Penalty_Charging>  (313) 
0.290773

>  <r_epik_Ionization_Penalty_Neutral>  (313) 
0.0473423

>  <r_epik_State_Penalty>  (313) 
0.369289

>  <r_epik_Charging_Adjusted_Penalty>  (313) 
0.660062

>  <i_epik_Tot_Q>  (313) 
-1

>  <i_epik_Tot_abs_Q>  (313) 
1

>  <s_epik_Chemistry_Notes>  (313) 
This compound contains an acetal/aminal-like group ( X-CH(R)-Y where X, Y are N, S, or O) that may be acid/base labile, releasing an aldehyde.

>  <s_lp_Force_Field>  (313) 
OPLS3e

>  <r_lp_Energy>  (313) 
26.5099

>  <b_lp_Chiralities_Consistent>  (313) 
1

>  <s_lp_Variant>  (313) 
83:0-1

>  <s_i_glide_gridfile>  (313) 
pfpi4k_grid

>  <i_i_glide_lignum>  (313) 
36

>  <i_i_glide_rotatable_bonds>  (313) 
6

>  <r_i_docking_score>  (313) 
-2.52624

>  <r_i_glide_ligand_efficiency>  (313) 
-0.090223

>  <r_i_glide_ligand_efficiency_sa>  (313) 
-0.27397

>  <r_i_glide_ligand_efficiency_ln>  (313) 
-0.583131

>  <r_i_glide_gscore>  (313) 
-2.52624

>  <r_i_glide_lipo>  (313) 
-0.247242

>  <r_i_glide_hbond>  (313) 
0

>  <r_i_glide_metal>  (313) 
-0

>  <r_i_glide_rewards>  (313) 
-0.760969

>  <r_i_glide_evdw>  (313) 
-20.5626

>  <r_i_glide_ecoul>  (313) 
-3.3843

>  <r_i_glide_erotb>  (313) 
0.12916

>  <r_i_glide_esite>  (313) 
-0.111417

>  <r_i_glide_emodel>  (313) 
-27.9592

>  <r_i_glide_energy>  (313) 
-23.9469

>  <r_i_glide_einternal>  (313) 
4.27116

>  <r_i_glide_intrahb_reward>  (313) 
-0

>  <i_i_glide_confnum>  (313) 
3

>  <i_i_glide_posenum>  (313) 
38

>  <r_i_glide_eff_state_penalty>  (313) 
0

>  <ligand_id>  (313) 
83

>  <original_smiles>  (313) 
CCC1=C2C=C(OC)C3(C#N)C4(O)OC(OC)C3(C)C2(CC1)OC4=CC(=O)O

>  <smiles>  (313) 
[H]OC12OC([H])(OC([H])([H])[H])C3(C([H])([H])[H])C1(C#N)C(OC([H])([H])[H])=C([H])C1=C(C([H])([H])C([H])([H])[H])C([H])([H])C([H])([H])C13OC2=C([H])C(=O)[O-]

$$$$
83:1:0
     RDKit          3D

 50 53  0  0  1  0  0  0  0  0999 V2000
    4.6715   -8.5073    5.5152 C   0  0  0  0  0  0  0  0  0  0  0  0
    5.7891   -7.5792    5.0116 C   0  0  0  0  0  0  0  0  0  0  0  0
    5.5700   -7.1029    3.5821 C   0  0  0  0  0  0  0  0  0  0  0  0
    5.3823   -5.8543    3.1332 C   0  0  0  0  0  0  0  0  0  0  0  0
    5.3846   -4.6235    3.8982 C   0  0  0  0  0  0  0  0  0  0  0  0
    5.2184   -3.4455    3.2451 C   0  0  0  0  0  0  0  0  0  0  0  0
    5.2352   -2.1985    3.8317 O   0  0  0  0  0  0  0  0  0  0  0  0
    5.2917   -2.1279    5.2457 C   0  0  0  0  0  0  0  0  0  0  0  0
    5.1287   -3.3444    1.7030 C   0  0  2  0  0  0  0  0  0  0  0  0
    5.7282   -2.0819    1.2152 C   0  0  0  0  0  0  0  0  0  0  0  0
    6.1996   -1.0935    0.8289 N   0  0  0  0  0  0  0  0  0  0  0  0
    3.6945   -3.4513    1.1448 C   0  0  1  0  0  0  0  0  0  0  0  0
    2.9657   -2.2605    1.3654 O   0  0  0  0  0  0  0  0  0  0  0  0
    3.8720   -3.6837   -0.2163 O   0  0  0  0  0  0  0  0  0  0  0  0
    5.0671   -4.3785   -0.4431 C   0  0  1  0  0  0  0  0  0  0  0  0
    5.9162   -3.6152   -1.2421 O   0  0  0  0  0  0  0  0  0  0  0  0
    5.4556   -3.4499   -2.5770 C   0  0  0  0  0  0  0  0  0  0  0  0
    5.7073   -4.5655    0.9636 C   0  0  1  0  0  0  0  0  0  0  0  0
    7.2592   -4.5927    0.8966 C   0  0  0  0  0  0  0  0  0  0  0  0
    5.0853   -5.8329    1.6488 C   0  0  1  0  0  0  0  0  0  0  0  0
    5.5670   -7.2296    1.1939 C   0  0  0  0  0  0  0  0  0  0  0  0
    5.5042   -8.1051    2.4617 C   0  0  0  0  0  0  0  0  0  0  0  0
    3.6633   -5.8656    1.5029 O   0  0  0  0  0  0  0  0  0  0  0  0
    2.9944   -4.6866    1.7308 C   0  0  0  0  0  0  0  0  0  0  0  0
    1.8199   -4.7075    2.3816 C   0  0  0  0  0  0  0  0  0  0  0  0
    1.1028   -5.9642    2.9469 C   0  0  0  0  0  0  0  0  0  0  0  0
    0.0164   -6.2647    2.3901 O   0  0  0  0  0  0  0  0  0  0  0  0
    1.6436   -6.5019    3.9330 O   0  0  0  0  0  0  0  0  0  0  0  0
    4.8690   -8.8299    6.5367 H   0  0  0  0  0  0  0  0  0  0  0  0
    4.5860   -9.4102    4.9104 H   0  0  0  0  0  0  0  0  0  0  0  0
    3.7028   -8.0091    5.5140 H   0  0  0  0  0  0  0  0  0  0  0  0
    5.8900   -6.7333    5.6888 H   0  0  0  0  0  0  0  0  0  0  0  0
    6.7365   -8.1123    5.0432 H   0  0  0  0  0  0  0  0  0  0  0  0
    5.5126   -4.6693    4.9697 H   0  0  0  0  0  0  0  0  0  0  0  0
    5.2528   -1.0805    5.5494 H   0  0  0  0  0  0  0  0  0  0  0  0
    6.2154   -2.5511    5.6469 H   0  0  0  0  0  0  0  0  0  0  0  0
    4.4329   -2.6332    5.6912 H   0  0  0  0  0  0  0  0  0  0  0  0
    2.3298   -2.1653    0.6704 H   0  0  0  0  0  0  0  0  0  0  0  0
    4.8528   -5.3291   -0.9360 H   0  0  0  0  0  0  0  0  0  0  0  0
    6.1933   -2.8804   -3.1411 H   0  0  0  0  0  0  0  0  0  0  0  0
    4.5106   -2.9050   -2.6170 H   0  0  0  0  0  0  0  0  0  0  0  0
    5.3239   -4.4050   -3.0867 H   0  0  0  0  0  0  0  0  0  0  0  0
    7.6245   -5.3582    0.2120 H   0  0  0  0  0  0  0  0  0  0  0  0
    7.6872   -4.7862    1.8778 H   0  0  0  0  0  0  0  0  0  0  0  0
    7.6728   -3.6455    0.5526 H   0  0  0  0  0  0  0  0  0  0  0  0
    4.9762   -7.6344    0.3617 H   0  0  0  0  0  0  0  0  0  0  0  0
    6.6080   -7.1979    0.8727 H   0  0  0  0  0  0  0  0  0  0  0  0
    6.3227   -8.8206    2.5133 H   0  0  0  0  0  0  0  0  0  0  0  0
    4.5555   -8.6371    2.5171 H   0  0  0  0  0  0  0  0  0  0  0  0
    1.3150   -3.7702    2.5308 H   0  0  0  0  0  0  0  0  0  0  0  0
  1  2  1  0
  1 29  1  0
  1 30  1  0
  1 31  1  0
  2  3  1  0
  2 32  1  0
  2 33  1  0
  3 22  1  0
  3  4  2  0
  4 20  1  0
  4  5  1  0
  5  6  2  0
  5 34  1  0
  6  7  1  0
  6  9  1  0
  7  8  1  0
  8 35  1  0
  8 36  1  0
  8 37  1  0
  9 18  1  0
  9 10  1  6
  9 12  1  0
 10 11  3  0
 12 24  1  0
 12 13  1  6
 12 14  1  0
 13 38  1  0
 14 15  1  0
 15 16  1  0
 15 18  1  0
 15 39  1  6
 16 17  1  0
 17 40  1  0
 17 41  1  0
 17 42  1  0
 18 19  1  6
 18 20  1  0
 19 43  1  0
 19 44  1  0
 19 45  1  0
 20 21  1  0
 20 23  1  1
 21 22  1  0
 21 46  1  0
 21 47  1  0
 22 48  1  0
 22 49  1  0
 23 24  1  0
 24 25  2  3
 25 26  1  0
 25 50  1  0
 26 27  2  0
 26 28  1  0
M  CHG  1  28  -1
M  END
>  <i_m_ct_stereo_status>  (314) 
1

>  <s_m_source_file>  (314) 
/var/tmp/pbs.5076255.sched01/tmpz7l6rxva/92z_h6r8yo.sdf

>  <i_m_source_file_index>  (314) 
37

>  <i_lp_mmshare_version>  (314) 
48012

>  <i_f3d_flags>  (314) 
0

>  <s_epik_input>  (314) 
W0NIM11bQ0gyXUMoW0NIMl1bQ0gyXTEpPUMoW0NAXTEyMylbQ0hdPUMoT1tDSDNdKVtDQF00KEMjTilbQ0BAXShbT0hdKShPW0NAQEhdKE9bQ0gzXSlbQ0BdMjRbQ0gzXSkvQyhPMyk9W0NIXVxDKD1PKVtPSF0=

>  <s_epik_cmdline>  (314) 
J2VwaWtfcHl0aG9uJywgJy1waHQnLCAnMi4wJywgJy1waCcsICc3LjAnLCAnLXRuJywgJzgnLCAnLW1hJywgJzIwMCcsICctaW1hZScsICc8aW5maWxlLm1hZT4nLCAnLW9tYWUnLCAnPG91dGZpbGUubWFlPic=

>  <r_epik_Ionization_Penalty>  (314) 
0.338115

>  <r_epik_Ionization_Penalty_Charging>  (314) 
0.290773

>  <r_epik_Ionization_Penalty_Neutral>  (314) 
0.0473423

>  <r_epik_State_Penalty>  (314) 
0.369289

>  <r_epik_Charging_Adjusted_Penalty>  (314) 
0.660062

>  <i_epik_Tot_Q>  (314) 
-1

>  <i_epik_Tot_abs_Q>  (314) 
1

>  <s_epik_Chemistry_Notes>  (314) 
This compound contains an acetal/aminal-like group ( X-CH(R)-Y where X, Y are N, S, or O) that may be acid/base labile, releasing an aldehyde.

>  <s_lp_Force_Field>  (314) 
OPLS3e

>  <r_lp_Energy>  (314) 
20.7221

>  <b_lp_Chiralities_Consistent>  (314) 
1

>  <s_lp_Variant>  (314) 
83:0-2

>  <s_i_glide_gridfile>  (314) 
pfpi4k_grid

>  <i_i_glide_lignum>  (314) 
37

>  <i_i_glide_rotatable_bonds>  (314) 
6

>  <r_i_docking_score>  (314) 
-3.15161

>  <r_i_glide_ligand_efficiency>  (314) 
-0.112558

>  <r_i_glide_ligand_efficiency_sa>  (314) 
-0.341791

>  <r_i_glide_ligand_efficiency_ln>  (314) 
-0.727485

>  <r_i_glide_gscore>  (314) 
-3.15161

>  <r_i_glide_lipo>  (314) 
-0.675981

>  <r_i_glide_hbond>  (314) 
-0.232119

>  <r_i_glide_metal>  (314) 
-0

>  <r_i_glide_rewards>  (314) 
-0.99187

>  <r_i_glide_evdw>  (314) 
-17.858

>  <r_i_glide_ecoul>  (314) 
-3.00185

>  <r_i_glide_erotb>  (314) 
0.12916

>  <r_i_glide_esite>  (314) 
-0.0376289

>  <r_i_glide_emodel>  (314) 
-25.3472

>  <r_i_glide_energy>  (314) 
-20.8598

>  <r_i_glide_einternal>  (314) 
2.51351

>  <r_i_glide_intrahb_reward>  (314) 
-0

>  <i_i_glide_confnum>  (314) 
4

>  <i_i_glide_posenum>  (314) 
1

>  <r_i_glide_eff_state_penalty>  (314) 
0

>  <ligand_id>  (314) 
83

>  <original_smiles>  (314) 
CCC1=C2C=C(OC)C3(C#N)C4(O)OC(OC)C3(C)C2(CC1)OC4=CC(=O)O

>  <smiles>  (314) 
[H]OC12OC([H])(OC([H])([H])[H])C3(C([H])([H])[H])C1(C#N)C(OC([H])([H])[H])=C([H])C1=C(C([H])([H])C([H])([H])[H])C([H])([H])C([H])([H])C13OC2=C([H])C(=O)[O-]

$$$$
83:1:1
     RDKit          3D

 50 53  0  0  1  0  0  0  0  0999 V2000
    2.9256   -8.5203    1.3353 C   0  0  0  0  0  0  0  0  0  0  0  0
    3.3038   -7.2992    2.1805 C   0  0  0  0  0  0  0  0  0  0  0  0
    3.2315   -5.9962    1.4012 C   0  0  0  0  0  0  0  0  0  0  0  0
    4.2135   -5.1272    1.1277 C   0  0  0  0  0  0  0  0  0  0  0  0
    5.6251   -5.2527    1.4336 C   0  0  0  0  0  0  0  0  0  0  0  0
    6.4653   -4.2741    1.0168 C   0  0  0  0  0  0  0  0  0  0  0  0
    7.8354   -4.2810    1.1793 O   0  0  0  0  0  0  0  0  0  0  0  0
    8.4217   -5.3601    1.8903 C   0  0  0  0  0  0  0  0  0  0  0  0
    5.9984   -3.0859    0.1476 C   0  0  2  0  0  0  0  0  0  0  0  0
    7.0769   -2.6950   -0.7712 C   0  0  0  0  0  0  0  0  0  0  0  0
    7.9204   -2.3909   -1.4935 N   0  0  0  0  0  0  0  0  0  0  0  0
    5.5269   -1.8386    0.9236 C   0  0  1  0  0  0  0  0  0  0  0  0
    6.6136   -1.1471    1.4743 O   0  0  0  0  0  0  0  0  0  0  0  0
    4.8723   -1.0605   -0.0320 O   0  0  0  0  0  0  0  0  0  0  0  0
    4.2852   -1.8820   -1.0008 C   0  0  1  0  0  0  0  0  0  0  0  0
    4.8035   -1.5820   -2.2649 O   0  0  0  0  0  0  0  0  0  0  0  0
    4.1501   -0.5012   -2.9172 C   0  0  0  0  0  0  0  0  0  0  0  0
    4.6886   -3.3309   -0.6041 C   0  0  1  0  0  0  0  0  0  0  0  0
    4.8351   -4.2404   -1.8512 C   0  0  0  0  0  0  0  0  0  0  0  0
    3.6867   -3.8789    0.4635 C   0  0  1  0  0  0  0  0  0  0  0  0
    2.2975   -4.3162   -0.0281 C   0  0  0  0  0  0  0  0  0  0  0  0
    1.9005   -5.4825    0.9107 C   0  0  0  0  0  0  0  0  0  0  0  0
    3.4329   -2.9335    1.5106 O   0  0  0  0  0  0  0  0  0  0  0  0
    4.5051   -2.2268    1.9978 C   0  0  0  0  0  0  0  0  0  0  0  0
    4.5631   -1.9295    3.3124 C   0  0  0  0  0  0  0  0  0  0  0  0
    3.5225   -2.3725    4.3740 C   0  0  0  0  0  0  0  0  0  0  0  0
    2.3552   -1.9468    4.2343 O   0  0  0  0  0  0  0  0  0  0  0  0
    3.9706   -3.1052    5.2821 O   0  0  0  0  0  0  0  0  0  0  0  0
    2.9618   -9.4323    1.9295 H   0  0  0  0  0  0  0  0  0  0  0  0
    3.6175   -8.6414    0.5011 H   0  0  0  0  0  0  0  0  0  0  0  0
    1.9108   -8.4431    0.9421 H   0  0  0  0  0  0  0  0  0  0  0  0
    2.6254   -7.2207    3.0305 H   0  0  0  0  0  0  0  0  0  0  0  0
    4.2965   -7.4417    2.6093 H   0  0  0  0  0  0  0  0  0  0  0  0
    5.9750   -6.1064    1.9893 H   0  0  0  0  0  0  0  0  0  0  0  0
    9.4928   -5.1789    2.0005 H   0  0  0  0  0  0  0  0  0  0  0  0
    8.2981   -6.2991    1.3484 H   0  0  0  0  0  0  0  0  0  0  0  0
    8.0062   -5.4547    2.8948 H   0  0  0  0  0  0  0  0  0  0  0  0
    6.2682   -0.4419    2.0006 H   0  0  0  0  0  0  0  0  0  0  0  0
    3.2010   -1.7445   -0.9910 H   0  0  0  0  0  0  0  0  0  0  0  0
    4.6032   -0.3341   -3.8952 H   0  0  0  0  0  0  0  0  0  0  0  0
    4.2211    0.4269   -2.3515 H   0  0  0  0  0  0  0  0  0  0  0  0
    3.0956   -0.7231   -3.0850 H   0  0  0  0  0  0  0  0  0  0  0  0
    3.9387   -4.2181   -2.4640 H   0  0  0  0  0  0  0  0  0  0  0  0
    5.0121   -5.2727   -1.5547 H   0  0  0  0  0  0  0  0  0  0  0  0
    5.6515   -3.9326   -2.5041 H   0  0  0  0  0  0  0  0  0  0  0  0
    1.6300   -3.4613   -0.0634 H   0  0  0  0  0  0  0  0  0  0  0  0
    2.3255   -4.6871   -1.0475 H   0  0  0  0  0  0  0  0  0  0  0  0
    1.3342   -6.2553    0.3954 H   0  0  0  0  0  0  0  0  0  0  0  0
    1.3363   -5.1389    1.7781 H   0  0  0  0  0  0  0  0  0  0  0  0
    5.4184   -1.3965    3.6931 H   0  0  0  0  0  0  0  0  0  0  0  0
  1  2  1  0
  1 29  1  0
  1 30  1  0
  1 31  1  0
  2  3  1  0
  2 32  1  0
  2 33  1  0
  3 22  1  0
  3  4  2  0
  4 20  1  0
  4  5  1  0
  5  6  2  0
  5 34  1  0
  6  7  1  0
  6  9  1  0
  7  8  1  0
  8 35  1  0
  8 36  1  0
  8 37  1  0
  9 18  1  0
  9 10  1  6
  9 12  1  0
 10 11  3  0
 12 24  1  0
 12 13  1  1
 12 14  1  0
 13 38  1  0
 14 15  1  0
 15 16  1  0
 15 18  1  0
 15 39  1  6
 16 17  1  0
 17 40  1  0
 17 41  1  0
 17 42  1  0
 18 19  1  6
 18 20  1  0
 19 43  1  0
 19 44  1  0
 19 45  1  0
 20 21  1  0
 20 23  1  1
 21 22  1  0
 21 46  1  0
 21 47  1  0
 22 48  1  0
 22 49  1  0
 23 24  1  0
 24 25  2  3
 25 26  1  0
 25 50  1  0
 26 27  2  0
 26 28  1  0
M  CHG  1  28  -1
M  END
>  <i_m_ct_stereo_status>  (315) 
1

>  <s_m_source_file>  (315) 
/var/tmp/pbs.5076255.sched01/tmpz7l6rxva/92z_h6r8yo.sdf

>  <i_m_source_file_index>  (315) 
37

>  <i_lp_mmshare_version>  (315) 
48012

>  <i_f3d_flags>  (315) 
0

>  <s_epik_input>  (315) 
W0NIM11bQ0gyXUMoW0NIMl1bQ0gyXTEpPUMoW0NAXTEyMylbQ0hdPUMoT1tDSDNdKVtDQF00KEMjTilbQ0BAXShbT0hdKShPW0NAQEhdKE9bQ0gzXSlbQ0BdMjRbQ0gzXSkvQyhPMyk9W0NIXVxDKD1PKVtPSF0=

>  <s_epik_cmdline>  (315) 
J2VwaWtfcHl0aG9uJywgJy1waHQnLCAnMi4wJywgJy1waCcsICc3LjAnLCAnLXRuJywgJzgnLCAnLW1hJywgJzIwMCcsICctaW1hZScsICc8aW5maWxlLm1hZT4nLCAnLW9tYWUnLCAnPG91dGZpbGUubWFlPic=

>  <r_epik_Ionization_Penalty>  (315) 
0.338115

>  <r_epik_Ionization_Penalty_Charging>  (315) 
0.290773

>  <r_epik_Ionization_Penalty_Neutral>  (315) 
0.0473423

>  <r_epik_State_Penalty>  (315) 
0.369289

>  <r_epik_Charging_Adjusted_Penalty>  (315) 
0.660062

>  <i_epik_Tot_Q>  (315) 
-1

>  <i_epik_Tot_abs_Q>  (315) 
1

>  <s_epik_Chemistry_Notes>  (315) 
This compound contains an acetal/aminal-like group ( X-CH(R)-Y where X, Y are N, S, or O) that may be acid/base labile, releasing an aldehyde.

>  <s_lp_Force_Field>  (315) 
OPLS3e

>  <r_lp_Energy>  (315) 
20.7221

>  <b_lp_Chiralities_Consistent>  (315) 
1

>  <s_lp_Variant>  (315) 
83:0-2

>  <s_i_glide_gridfile>  (315) 
pfpi4k_grid

>  <i_i_glide_lignum>  (315) 
37

>  <i_i_glide_rotatable_bonds>  (315) 
6

>  <r_i_docking_score>  (315) 
-2.93594

>  <r_i_glide_ligand_efficiency>  (315) 
-0.104855

>  <r_i_glide_ligand_efficiency_sa>  (315) 
-0.318402

>  <r_i_glide_ligand_efficiency_ln>  (315) 
-0.677702

>  <r_i_glide_gscore>  (315) 
-2.93594

>  <r_i_glide_lipo>  (315) 
-0.59804

>  <r_i_glide_hbond>  (315) 
-0.16

>  <r_i_glide_metal>  (315) 
-0

>  <r_i_glide_rewards>  (315) 
-0.880599

>  <r_i_glide_evdw>  (315) 
-21.7855

>  <r_i_glide_ecoul>  (315) 
-1.89864

>  <r_i_glide_erotb>  (315) 
0.12916

>  <r_i_glide_esite>  (315) 
-0.0523934

>  <r_i_glide_emodel>  (315) 
-27.7307

>  <r_i_glide_energy>  (315) 
-23.6842

>  <r_i_glide_einternal>  (315) 
2.5402

>  <r_i_glide_intrahb_reward>  (315) 
-0

>  <i_i_glide_confnum>  (315) 
4

>  <i_i_glide_posenum>  (315) 
34

>  <r_i_glide_eff_state_penalty>  (315) 
0

>  <ligand_id>  (315) 
83

>  <original_smiles>  (315) 
CCC1=C2C=C(OC)C3(C#N)C4(O)OC(OC)C3(C)C2(CC1)OC4=CC(=O)O

>  <smiles>  (315) 
[H]OC12OC([H])(OC([H])([H])[H])C3(C([H])([H])[H])C1(C#N)C(OC([H])([H])[H])=C([H])C1=C(C([H])([H])C([H])([H])[H])C([H])([H])C([H])([H])C13OC2=C([H])C(=O)[O-]

$$$$
83:1:2
     RDKit          3D

 50 53  0  0  1  0  0  0  0  0999 V2000
    2.4775   -7.6033    2.9337 C   0  0  0  0  0  0  0  0  0  0  0  0
    3.0487   -7.5694    1.5072 C   0  0  0  0  0  0  0  0  0  0  0  0
    3.0128   -6.1845    0.8788 C   0  0  0  0  0  0  0  0  0  0  0  0
    4.0126   -5.3091    0.7018 C   0  0  0  0  0  0  0  0  0  0  0  0
    5.4126   -5.4925    1.0282 C   0  0  0  0  0  0  0  0  0  0  0  0
    6.2780   -4.4892    0.7383 C   0  0  0  0  0  0  0  0  0  0  0  0
    7.6418   -4.5331    0.9428 O   0  0  0  0  0  0  0  0  0  0  0  0
    8.1874   -5.6743    1.5862 C   0  0  0  0  0  0  0  0  0  0  0  0
    5.8544   -3.2138   -0.0202 C   0  0  2  0  0  0  0  0  0  0  0  0
    6.9678   -2.7430   -0.8547 C   0  0  0  0  0  0  0  0  0  0  0  0
    7.8413   -2.3726   -1.5083 N   0  0  0  0  0  0  0  0  0  0  0  0
    5.3791   -2.0434    0.8650 C   0  0  1  0  0  0  0  0  0  0  0  0
    6.4585   -1.4309    1.5251 O   0  0  0  0  0  0  0  0  0  0  0  0
    4.7696   -1.1608   -0.0325 O   0  0  0  0  0  0  0  0  0  0  0  0
    4.1935   -1.8739   -1.0928 C   0  0  1  0  0  0  0  0  0  0  0  0
    4.7458   -1.4680   -2.3118 O   0  0  0  0  0  0  0  0  0  0  0  0
    4.1284   -0.3207   -2.8729 C   0  0  0  0  0  0  0  0  0  0  0  0
    4.5638   -3.3585   -0.8329 C   0  0  1  0  0  0  0  0  0  0  0  0
    4.7488   -4.1310   -2.1627 C   0  0  0  0  0  0  0  0  0  0  0  0
    3.5173   -3.9925    0.1428 C   0  0  1  0  0  0  0  0  0  0  0  0
    2.1246   -4.3585   -0.4063 C   0  0  0  0  0  0  0  0  0  0  0  0
    1.7054   -5.6214    0.3914 C   0  0  0  0  0  0  0  0  0  0  0  0
    3.2400   -3.1337    1.2519 O   0  0  0  0  0  0  0  0  0  0  0  0
    4.3142   -2.5265    1.8553 C   0  0  0  0  0  0  0  0  0  0  0  0
    4.3299   -2.3941    3.1983 C   0  0  0  0  0  0  0  0  0  0  0  0
    3.2477   -2.9184    4.1855 C   0  0  0  0  0  0  0  0  0  0  0  0
    2.6349   -3.9627    3.8664 O   0  0  0  0  0  0  0  0  0  0  0  0
    3.1043   -2.2431    5.2260 O   0  0  0  0  0  0  0  0  0  0  0  0
    2.5201   -8.6138    3.3407 H   0  0  0  0  0  0  0  0  0  0  0  0
    1.4332   -7.2886    2.9697 H   0  0  0  0  0  0  0  0  0  0  0  0
    3.0449   -6.9585    3.6064 H   0  0  0  0  0  0  0  0  0  0  0  0
    4.0657   -7.9590    1.5104 H   0  0  0  0  0  0  0  0  0  0  0  0
    2.4660   -8.2469    0.8839 H   0  0  0  0  0  0  0  0  0  0  0  0
    5.7333   -6.4062    1.5021 H   0  0  0  0  0  0  0  0  0  0  0  0
    9.2585   -5.5254    1.7373 H   0  0  0  0  0  0  0  0  0  0  0  0
    8.0623   -6.5690    0.9746 H   0  0  0  0  0  0  0  0  0  0  0  0
    7.7399   -5.8309    2.5688 H   0  0  0  0  0  0  0  0  0  0  0  0
    6.0924   -0.7950    2.1220 H   0  0  0  0  0  0  0  0  0  0  0  0
    3.1113   -1.7199   -1.0960 H   0  0  0  0  0  0  0  0  0  0  0  0
    4.6006   -0.0626   -3.8188 H   0  0  0  0  0  0  0  0  0  0  0  0
    4.2155    0.5407   -2.2196 H   0  0  0  0  0  0  0  0  0  0  0  0
    3.0691   -0.4883   -3.0637 H   0  0  0  0  0  0  0  0  0  0  0  0
    3.8638   -4.0558   -2.7934 H   0  0  0  0  0  0  0  0  0  0  0  0
    4.9717   -5.1758   -1.9591 H   0  0  0  0  0  0  0  0  0  0  0  0
    5.5784   -3.7590   -2.7616 H   0  0  0  0  0  0  0  0  0  0  0  0
    1.4311   -3.5196   -0.3577 H   0  0  0  0  0  0  0  0  0  0  0  0
    2.1652   -4.6161   -1.4577 H   0  0  0  0  0  0  0  0  0  0  0  0
    1.1573   -6.3269   -0.2292 H   0  0  0  0  0  0  0  0  0  0  0  0
    1.1168   -5.3979    1.2783 H   0  0  0  0  0  0  0  0  0  0  0  0
    5.1715   -1.9049    3.6605 H   0  0  0  0  0  0  0  0  0  0  0  0
  1  2  1  0
  1 29  1  0
  1 30  1  0
  1 31  1  0
  2  3  1  0
  2 32  1  0
  2 33  1  0
  3 22  1  0
  3  4  2  0
  4 20  1  0
  4  5  1  0
  5  6  2  0
  5 34  1  0
  6  7  1  0
  6  9  1  0
  7  8  1  0
  8 35  1  0
  8 36  1  0
  8 37  1  0
  9 18  1  0
  9 10  1  6
  9 12  1  0
 10 11  3  0
 12 24  1  0
 12 13  1  1
 12 14  1  0
 13 38  1  0
 14 15  1  0
 15 16  1  0
 15 18  1  0
 15 39  1  6
 16 17  1  0
 17 40  1  0
 17 41  1  0
 17 42  1  0
 18 19  1  6
 18 20  1  0
 19 43  1  0
 19 44  1  0
 19 45  1  0
 20 21  1  0
 20 23  1  1
 21 22  1  0
 21 46  1  0
 21 47  1  0
 22 48  1  0
 22 49  1  0
 23 24  1  0
 24 25  2  3
 25 26  1  0
 25 50  1  0
 26 27  2  0
 26 28  1  0
M  CHG  1  28  -1
M  END
>  <i_m_ct_stereo_status>  (316) 
1

>  <s_m_source_file>  (316) 
/var/tmp/pbs.5076255.sched01/tmpz7l6rxva/92z_h6r8yo.sdf

>  <i_m_source_file_index>  (316) 
37

>  <i_lp_mmshare_version>  (316) 
48012

>  <i_f3d_flags>  (316) 
0

>  <s_epik_input>  (316) 
W0NIM11bQ0gyXUMoW0NIMl1bQ0gyXTEpPUMoW0NAXTEyMylbQ0hdPUMoT1tDSDNdKVtDQF00KEMjTilbQ0BAXShbT0hdKShPW0NAQEhdKE9bQ0gzXSlbQ0BdMjRbQ0gzXSkvQyhPMyk9W0NIXVxDKD1PKVtPSF0=

>  <s_epik_cmdline>  (316) 
J2VwaWtfcHl0aG9uJywgJy1waHQnLCAnMi4wJywgJy1waCcsICc3LjAnLCAnLXRuJywgJzgnLCAnLW1hJywgJzIwMCcsICctaW1hZScsICc8aW5maWxlLm1hZT4nLCAnLW9tYWUnLCAnPG91dGZpbGUubWFlPic=

>  <r_epik_Ionization_Penalty>  (316) 
0.338115

>  <r_epik_Ionization_Penalty_Charging>  (316) 
0.290773

>  <r_epik_Ionization_Penalty_Neutral>  (316) 
0.0473423

>  <r_epik_State_Penalty>  (316) 
0.369289

>  <r_epik_Charging_Adjusted_Penalty>  (316) 
0.660062

>  <i_epik_Tot_Q>  (316) 
-1

>  <i_epik_Tot_abs_Q>  (316) 
1

>  <s_epik_Chemistry_Notes>  (316) 
This compound contains an acetal/aminal-like group ( X-CH(R)-Y where X, Y are N, S, or O) that may be acid/base labile, releasing an aldehyde.

>  <s_lp_Force_Field>  (316) 
OPLS3e

>  <r_lp_Energy>  (316) 
20.7221

>  <b_lp_Chiralities_Consistent>  (316) 
1

>  <s_lp_Variant>  (316) 
83:0-2

>  <s_i_glide_gridfile>  (316) 
pfpi4k_grid

>  <i_i_glide_lignum>  (316) 
37

>  <i_i_glide_rotatable_bonds>  (316) 
6

>  <r_i_docking_score>  (316) 
-2.85952

>  <r_i_glide_ligand_efficiency>  (316) 
-0.102126

>  <r_i_glide_ligand_efficiency_sa>  (316) 
-0.310113

>  <r_i_glide_ligand_efficiency_ln>  (316) 
-0.66006

>  <r_i_glide_gscore>  (316) 
-2.85952

>  <r_i_glide_lipo>  (316) 
-0.594733

>  <r_i_glide_hbond>  (316) 
-0.16

>  <r_i_glide_metal>  (316) 
-0

>  <r_i_glide_rewards>  (316) 
-0.847525

>  <r_i_glide_evdw>  (316) 
-20.3573

>  <r_i_glide_ecoul>  (316) 
-2.12539

>  <r_i_glide_erotb>  (316) 
0.12916

>  <r_i_glide_esite>  (316) 
-0.0497442

>  <r_i_glide_emodel>  (316) 
-26.0525

>  <r_i_glide_energy>  (316) 
-22.4827

>  <r_i_glide_einternal>  (316) 
3.06178

>  <r_i_glide_intrahb_reward>  (316) 
-0

>  <i_i_glide_confnum>  (316) 
4

>  <i_i_glide_posenum>  (316) 
17

>  <r_i_glide_eff_state_penalty>  (316) 
0

>  <ligand_id>  (316) 
83

>  <original_smiles>  (316) 
CCC1=C2C=C(OC)C3(C#N)C4(O)OC(OC)C3(C)C2(CC1)OC4=CC(=O)O

>  <smiles>  (316) 
[H]OC12OC([H])(OC([H])([H])[H])C3(C([H])([H])[H])C1(C#N)C(OC([H])([H])[H])=C([H])C1=C(C([H])([H])C([H])([H])[H])C([H])([H])C([H])([H])C13OC2=C([H])C(=O)[O-]

$$$$
83:2:0
     RDKit          3D

 50 53  0  0  1  0  0  0  0  0999 V2000
   -1.4029   -1.9463    5.6391 C   0  0  0  0  0  0  0  0  0  0  0  0
   -0.0108   -2.0272    4.9879 C   0  0  0  0  0  0  0  0  0  0  0  0
    0.6029   -0.7305    4.4346 C   0  0  0  0  0  0  0  0  0  0  0  0
    0.4692    0.5474    4.8097 C   0  0  0  0  0  0  0  0  0  0  0  0
   -0.2943    1.0967    5.9263 C   0  0  0  0  0  0  0  0  0  0  0  0
   -0.2377    2.4079    6.2088 C   0  0  0  0  0  0  0  0  0  0  0  0
   -0.9151    3.0072    7.2611 O   0  0  0  0  0  0  0  0  0  0  0  0
   -1.7879    2.1855    8.0337 C   0  0  0  0  0  0  0  0  0  0  0  0
    0.7016    3.3746    5.4603 C   0  0  2  0  0  0  0  0  0  0  0  0
    1.1915    4.3914    6.4245 C   0  0  0  0  0  0  0  0  0  0  0  0
    1.5759    5.1790    7.1911 N   0  0  0  0  0  0  0  0  0  0  0  0
    0.0040    3.9973    4.2225 C   0  0  1  0  0  0  0  0  0  0  0  0
   -0.8779    4.8503    4.6547 O   0  0  0  0  0  0  0  0  0  0  0  0
    1.1353    4.5893    3.5653 O   0  0  0  0  0  0  0  0  0  0  0  0
    2.2899    3.8038    3.7436 C   0  0  1  0  0  0  0  0  0  0  0  0
    3.3248    4.5426    4.3309 O   0  0  0  0  0  0  0  0  0  0  0  0
    3.7385    5.6536    3.5530 C   0  0  0  0  0  0  0  0  0  0  0  0
    1.8534    2.6647    4.7149 C   0  0  1  0  0  0  0  0  0  0  0  0
    3.0077    2.2236    5.6594 C   0  0  0  0  0  0  0  0  0  0  0  0
    1.2363    1.4839    3.8938 C   0  0  1  0  0  0  0  0  0  0  0  0
    2.1911    0.5381    3.1313 C   0  0  0  0  0  0  0  0  0  0  0  0
    1.5388   -0.8531    3.2533 C   0  0  0  0  0  0  0  0  0  0  0  0
    0.3247    1.9329    2.9007 O   0  0  0  0  0  0  0  0  0  0  0  0
   -0.5652    2.9137    3.2682 C   0  0  0  0  0  0  0  0  0  0  0  0
   -1.8011    2.7908    2.6957 C   0  0  0  0  0  0  0  0  0  0  0  0
   -2.9508    3.6711    2.7157 C   0  0  0  0  0  0  0  0  0  0  0  0
   -2.9833    4.8946    2.8018 O   0  0  0  0  0  0  0  0  0  0  0  0
   -4.0752    2.9386    2.4075 O   0  0  0  0  0  0  0  0  0  0  0  0
   -1.7899   -2.9405    5.8883 H   0  0  0  0  0  0  0  0  0  0  0  0
   -2.1155   -1.4693    4.9592 H   0  0  0  0  0  0  0  0  0  0  0  0
   -1.3777   -1.4083    6.5755 H   0  0  0  0  0  0  0  0  0  0  0  0
    0.6973   -2.4809    5.6725 H   0  0  0  0  0  0  0  0  0  0  0  0
   -0.0851   -2.7242    4.1626 H   0  0  0  0  0  0  0  0  0  0  0  0
   -0.8675    0.4447    6.5544 H   0  0  0  0  0  0  0  0  0  0  0  0
   -2.2882    2.8017    8.7769 H   0  0  0  0  0  0  0  0  0  0  0  0
   -1.2441    1.4115    8.5715 H   0  0  0  0  0  0  0  0  0  0  0  0
   -2.5625    1.7181    7.4287 H   0  0  0  0  0  0  0  0  0  0  0  0
    2.5917    3.4146    2.7672 H   0  0  0  0  0  0  0  0  0  0  0  0
    4.5889    6.1292    4.0402 H   0  0  0  0  0  0  0  0  0  0  0  0
    2.9433    6.3947    3.4779 H   0  0  0  0  0  0  0  0  0  0  0  0
    4.0392    5.3635    2.5442 H   0  0  0  0  0  0  0  0  0  0  0  0
    3.8789    1.9074    5.0907 H   0  0  0  0  0  0  0  0  0  0  0  0
    2.6939    1.3955    6.2959 H   0  0  0  0  0  0  0  0  0  0  0  0
    3.3414    3.0227    6.3240 H   0  0  0  0  0  0  0  0  0  0  0  0
    2.3674    0.8465    2.0951 H   0  0  0  0  0  0  0  0  0  0  0  0
    3.1571    0.4873    3.6216 H   0  0  0  0  0  0  0  0  0  0  0  0
    2.2775   -1.6405    3.3813 H   0  0  0  0  0  0  0  0  0  0  0  0
    0.9663   -1.0894    2.3587 H   0  0  0  0  0  0  0  0  0  0  0  0
   -1.8703    1.9214    2.0779 H   0  0  0  0  0  0  0  0  0  0  0  0
   -3.9148    2.0061    2.3782 H   0  0  0  0  0  0  0  0  0  0  0  0
  1  2  1  0
  1 29  1  0
  1 30  1  0
  1 31  1  0
  2  3  1  0
  2 32  1  0
  2 33  1  0
  3 22  1  0
  3  4  2  0
  4 20  1  0
  4  5  1  0
  5  6  2  0
  5 34  1  0
  6  7  1  0
  6  9  1  0
  7  8  1  0
  8 35  1  0
  8 36  1  0
  8 37  1  0
  9 18  1  0
  9 10  1  1
  9 12  1  0
 10 11  3  0
 12 24  1  0
 12 13  1  1
 12 14  1  0
 14 15  1  0
 15 16  1  0
 15 18  1  0
 15 38  1  6
 16 17  1  0
 17 39  1  0
 17 40  1  0
 17 41  1  0
 18 19  1  1
 18 20  1  0
 19 42  1  0
 19 43  1  0
 19 44  1  0
 20 21  1  0
 20 23  1  6
 21 22  1  0
 21 45  1  0
 21 46  1  0
 22 47  1  0
 22 48  1  0
 23 24  1  0
 24 25  2  3
 25 26  1  0
 25 49  1  0
 26 27  2  0
 26 28  1  0
 28 50  1  0
M  CHG  1  13  -1
M  END
>  <i_m_ct_stereo_status>  (317) 
1

>  <s_m_source_file>  (317) 
/var/tmp/pbs.5076255.sched01/tmpz7l6rxva/92z_h6r8yo.sdf

>  <i_m_source_file_index>  (317) 
38

>  <i_lp_mmshare_version>  (317) 
48012

>  <i_f3d_flags>  (317) 
0

>  <s_epik_input>  (317) 
W0NIM11bQ0gyXUMoW0NIMl1bQ0gyXTEpPUMoW0NAXTEyMylbQ0hdPUMoT1tDSDNdKVtDQF00KEMjTilbQ0BAXShbT0hdKShPW0NAQEhdKE9bQ0gzXSlbQ0BdMjRbQ0gzXSkvQyhPMyk9W0NIXVxDKD1PKVtPSF0=

>  <s_epik_cmdline>  (317) 
J2VwaWtfcHl0aG9uJywgJy1waHQnLCAnMi4wJywgJy1waCcsICc3LjAnLCAnLXRuJywgJzgnLCAnLW1hJywgJzIwMCcsICctaW1hZScsICc8aW5maWxlLm1hZT4nLCAnLW9tYWUnLCAnPG91dGZpbGUubWFlPic=

>  <r_epik_Ionization_Penalty>  (317) 
0.50885

>  <r_epik_Ionization_Penalty_Charging>  (317) 
0.208665

>  <r_epik_Ionization_Penalty_Neutral>  (317) 
0.300186

>  <r_epik_State_Penalty>  (317) 
0.895564

>  <r_epik_Charging_Adjusted_Penalty>  (317) 
1.10423

>  <i_epik_Tot_Q>  (317) 
-1

>  <i_epik_Tot_abs_Q>  (317) 
1

>  <s_epik_Chemistry_Notes>  (317) 
This compound contains an acetal/aminal-like group ( X-CH(R)-Y where X, Y are N, S, or O) that may be acid/base labile, releasing an aldehyde.

>  <s_lp_Force_Field>  (317) 
OPLS3e

>  <r_lp_Energy>  (317) 
37.6731

>  <b_lp_Chiralities_Consistent>  (317) 
1

>  <s_lp_Variant>  (317) 
83:0-3

>  <s_i_glide_gridfile>  (317) 
pfpi4k_grid

>  <i_i_glide_lignum>  (317) 
38

>  <i_i_glide_rotatable_bonds>  (317) 
6

>  <r_i_docking_score>  (317) 
-3.08109

>  <r_i_glide_ligand_efficiency>  (317) 
-0.110039

>  <r_i_glide_ligand_efficiency_sa>  (317) 
-0.334143

>  <r_i_glide_ligand_efficiency_ln>  (317) 
-0.711205

>  <r_i_glide_gscore>  (317) 
-3.08109

>  <r_i_glide_lipo>  (317) 
-0.024916

>  <r_i_glide_hbond>  (317) 
-0.18669

>  <r_i_glide_metal>  (317) 
-0

>  <r_i_glide_rewards>  (317) 
-0.760969

>  <r_i_glide_evdw>  (317) 
-16.888

>  <r_i_glide_ecoul>  (317) 
-8.41504

>  <r_i_glide_erotb>  (317) 
0.12916

>  <r_i_glide_esite>  (317) 
-0.131014

>  <r_i_glide_emodel>  (317) 
-28.4487

>  <r_i_glide_energy>  (317) 
-25.3031

>  <r_i_glide_einternal>  (317) 
5.37935

>  <r_i_glide_intrahb_reward>  (317) 
-0

>  <i_i_glide_confnum>  (317) 
2

>  <i_i_glide_posenum>  (317) 
37

>  <r_i_glide_eff_state_penalty>  (317) 
0

>  <ligand_id>  (317) 
83

>  <original_smiles>  (317) 
CCC1=C2C=C(OC)C3(C#N)C4(O)OC(OC)C3(C)C2(CC1)OC4=CC(=O)O

>  <smiles>  (317) 
[H]OC(=O)C([H])=C1OC23C(=C(C([H])([H])C([H])([H])[H])C([H])([H])C2([H])[H])C([H])=C(OC([H])([H])[H])C2(C#N)C1([O-])OC([H])(OC([H])([H])[H])C23C([H])([H])[H]

$$$$
83:2:1
     RDKit          3D

 50 53  0  0  1  0  0  0  0  0999 V2000
    0.9543   -3.0801    5.5121 C   0  0  0  0  0  0  0  0  0  0  0  0
   -0.0442   -2.0844    4.9019 C   0  0  0  0  0  0  0  0  0  0  0  0
    0.6098   -0.8142    4.3661 C   0  0  0  0  0  0  0  0  0  0  0  0
    0.4531    0.4575    4.7636 C   0  0  0  0  0  0  0  0  0  0  0  0
   -0.3364    0.9447    5.8784 C   0  0  0  0  0  0  0  0  0  0  0  0
   -0.2966    2.2618    6.1894 C   0  0  0  0  0  0  0  0  0  0  0  0
   -0.9807    2.8459    7.2354 O   0  0  0  0  0  0  0  0  0  0  0  0
   -1.8653    2.0384    7.9956 C   0  0  0  0  0  0  0  0  0  0  0  0
    0.6458    3.2649    5.4867 C   0  0  2  0  0  0  0  0  0  0  0  0
    1.1302    4.2631    6.4691 C   0  0  0  0  0  0  0  0  0  0  0  0
    1.5152    5.0364    7.2488 N   0  0  0  0  0  0  0  0  0  0  0  0
   -0.0077    3.9445    4.2605 C   0  0  1  0  0  0  0  0  0  0  0  0
   -0.8754    4.8269    4.6789 O   0  0  0  0  0  0  0  0  0  0  0  0
    1.1256    4.5484    3.6458 O   0  0  0  0  0  0  0  0  0  0  0  0
    2.2678    3.7531    3.8029 C   0  0  1  0  0  0  0  0  0  0  0  0
    3.3099    4.4667    4.4035 O   0  0  0  0  0  0  0  0  0  0  0  0
    3.7269    5.6122    3.6708 C   0  0  0  0  0  0  0  0  0  0  0  0
    1.8188    2.5946    4.7460 C   0  0  1  0  0  0  0  0  0  0  0  0
    2.9657    2.1287    5.6859 C   0  0  0  0  0  0  0  0  0  0  0  0
    1.2123    1.4310    3.8888 C   0  0  1  0  0  0  0  0  0  0  0  0
    2.1757    0.4954    3.1149 C   0  0  0  0  0  0  0  0  0  0  0  0
    1.5288   -0.9031    3.1761 C   0  0  0  0  0  0  0  0  0  0  0  0
    0.2983    1.9106    2.9112 O   0  0  0  0  0  0  0  0  0  0  0  0
   -0.5909    2.8992    3.2751 C   0  0  0  0  0  0  0  0  0  0  0  0
   -1.7943    2.7822    2.6773 C   0  0  0  0  0  0  0  0  0  0  0  0
   -2.9482    3.6716    2.6971 C   0  0  0  0  0  0  0  0  0  0  0  0
   -2.9619    4.8935    2.8182 O   0  0  0  0  0  0  0  0  0  0  0  0
   -4.0706    2.9783    2.3569 O   0  0  0  0  0  0  0  0  0  0  0  0
    0.4490   -3.9829    5.8578 H   0  0  0  0  0  0  0  0  0  0  0  0
    1.4695   -2.6435    6.3677 H   0  0  0  0  0  0  0  0  0  0  0  0
    1.7072   -3.3991    4.7918 H   0  0  0  0  0  0  0  0  0  0  0  0
   -0.5653   -2.5733    4.0788 H   0  0  0  0  0  0  0  0  0  0  0  0
   -0.8112   -1.8467    5.6374 H   0  0  0  0  0  0  0  0  0  0  0  0
   -0.9481    0.2468    6.4297 H   0  0  0  0  0  0  0  0  0  0  0  0
   -2.3615    2.6641    8.7419 H   0  0  0  0  0  0  0  0  0  0  0  0
   -1.3222    1.2567    8.5297 H   0  0  0  0  0  0  0  0  0  0  0  0
   -2.6420    1.5924    7.3704 H   0  0  0  0  0  0  0  0  0  0  0  0
    2.5884    3.3901    2.8225 H   0  0  0  0  0  0  0  0  0  0  0  0
    4.5751    6.0788    4.1766 H   0  0  0  0  0  0  0  0  0  0  0  0
    2.9307    6.3578    3.6166 H   0  0  0  0  0  0  0  0  0  0  0  0
    4.0357    5.3668    2.6506 H   0  0  0  0  0  0  0  0  0  0  0  0
    3.8470    1.8245    5.1237 H   0  0  0  0  0  0  0  0  0  0  0  0
    2.6485    1.2876    6.3032 H   0  0  0  0  0  0  0  0  0  0  0  0
    3.2928    2.9135    6.3654 H   0  0  0  0  0  0  0  0  0  0  0  0
    2.3657    0.8328    2.0930 H   0  0  0  0  0  0  0  0  0  0  0  0
    3.1364    0.4283    3.6169 H   0  0  0  0  0  0  0  0  0  0  0  0
    2.2777   -1.6848    3.2852 H   0  0  0  0  0  0  0  0  0  0  0  0
    0.9516   -1.1093    2.2731 H   0  0  0  0  0  0  0  0  0  0  0  0
   -1.8869    1.9060    2.0503 H   0  0  0  0  0  0  0  0  0  0  0  0
   -3.9247    2.0424    2.3193 H   0  0  0  0  0  0  0  0  0  0  0  0
  1  2  1  0
  1 29  1  0
  1 30  1  0
  1 31  1  0
  2  3  1  0
  2 32  1  0
  2 33  1  0
  3 22  1  0
  3  4  2  0
  4 20  1  0
  4  5  1  0
  5  6  2  0
  5 34  1  0
  6  7  1  0
  6  9  1  0
  7  8  1  0
  8 35  1  0
  8 36  1  0
  8 37  1  0
  9 18  1  0
  9 10  1  1
  9 12  1  0
 10 11  3  0
 12 24  1  0
 12 13  1  1
 12 14  1  0
 14 15  1  0
 15 16  1  0
 15 18  1  0
 15 38  1  6
 16 17  1  0
 17 39  1  0
 17 40  1  0
 17 41  1  0
 18 19  1  1
 18 20  1  0
 19 42  1  0
 19 43  1  0
 19 44  1  0
 20 21  1  0
 20 23  1  6
 21 22  1  0
 21 45  1  0
 21 46  1  0
 22 47  1  0
 22 48  1  0
 23 24  1  0
 24 25  2  3
 25 26  1  0
 25 49  1  0
 26 27  2  0
 26 28  1  0
 28 50  1  0
M  CHG  1  13  -1
M  END
>  <i_m_ct_stereo_status>  (318) 
1

>  <s_m_source_file>  (318) 
/var/tmp/pbs.5076255.sched01/tmpz7l6rxva/92z_h6r8yo.sdf

>  <i_m_source_file_index>  (318) 
38

>  <i_lp_mmshare_version>  (318) 
48012

>  <i_f3d_flags>  (318) 
0

>  <s_epik_input>  (318) 
W0NIM11bQ0gyXUMoW0NIMl1bQ0gyXTEpPUMoW0NAXTEyMylbQ0hdPUMoT1tDSDNdKVtDQF00KEMjTilbQ0BAXShbT0hdKShPW0NAQEhdKE9bQ0gzXSlbQ0BdMjRbQ0gzXSkvQyhPMyk9W0NIXVxDKD1PKVtPSF0=

>  <s_epik_cmdline>  (318) 
J2VwaWtfcHl0aG9uJywgJy1waHQnLCAnMi4wJywgJy1waCcsICc3LjAnLCAnLXRuJywgJzgnLCAnLW1hJywgJzIwMCcsICctaW1hZScsICc8aW5maWxlLm1hZT4nLCAnLW9tYWUnLCAnPG91dGZpbGUubWFlPic=

>  <r_epik_Ionization_Penalty>  (318) 
0.50885

>  <r_epik_Ionization_Penalty_Charging>  (318) 
0.208665

>  <r_epik_Ionization_Penalty_Neutral>  (318) 
0.300186

>  <r_epik_State_Penalty>  (318) 
0.895564

>  <r_epik_Charging_Adjusted_Penalty>  (318) 
1.10423

>  <i_epik_Tot_Q>  (318) 
-1

>  <i_epik_Tot_abs_Q>  (318) 
1

>  <s_epik_Chemistry_Notes>  (318) 
This compound contains an acetal/aminal-like group ( X-CH(R)-Y where X, Y are N, S, or O) that may be acid/base labile, releasing an aldehyde.

>  <s_lp_Force_Field>  (318) 
OPLS3e

>  <r_lp_Energy>  (318) 
37.6731

>  <b_lp_Chiralities_Consistent>  (318) 
1

>  <s_lp_Variant>  (318) 
83:0-3

>  <s_i_glide_gridfile>  (318) 
pfpi4k_grid

>  <i_i_glide_lignum>  (318) 
38

>  <i_i_glide_rotatable_bonds>  (318) 
6

>  <r_i_docking_score>  (318) 
-3.02326

>  <r_i_glide_ligand_efficiency>  (318) 
-0.107974

>  <r_i_glide_ligand_efficiency_sa>  (318) 
-0.327871

>  <r_i_glide_ligand_efficiency_ln>  (318) 
-0.697857

>  <r_i_glide_gscore>  (318) 
-3.02326

>  <r_i_glide_lipo>  (318) 
-0.020287

>  <r_i_glide_hbond>  (318) 
-0.182443

>  <r_i_glide_metal>  (318) 
-0

>  <r_i_glide_rewards>  (318) 
-0.760969

>  <r_i_glide_evdw>  (318) 
-16.485

>  <r_i_glide_ecoul>  (318) 
-8.25808

>  <r_i_glide_erotb>  (318) 
0.12916

>  <r_i_glide_esite>  (318) 
-0.12576

>  <r_i_glide_emodel>  (318) 
-29.229

>  <r_i_glide_energy>  (318) 
-24.743

>  <r_i_glide_einternal>  (318) 
3.38541

>  <r_i_glide_intrahb_reward>  (318) 
-0

>  <i_i_glide_confnum>  (318) 
3

>  <i_i_glide_posenum>  (318) 
5

>  <r_i_glide_eff_state_penalty>  (318) 
0

>  <ligand_id>  (318) 
83

>  <original_smiles>  (318) 
CCC1=C2C=C(OC)C3(C#N)C4(O)OC(OC)C3(C)C2(CC1)OC4=CC(=O)O

>  <smiles>  (318) 
[H]OC(=O)C([H])=C1OC23C(=C(C([H])([H])C([H])([H])[H])C([H])([H])C2([H])[H])C([H])=C(OC([H])([H])[H])C2(C#N)C1([O-])OC([H])(OC([H])([H])[H])C23C([H])([H])[H]

$$$$
83:2:2
     RDKit          3D

 50 53  0  0  1  0  0  0  0  0999 V2000
    2.7514   -8.5533    1.2886 C   0  0  0  0  0  0  0  0  0  0  0  0
    3.1567   -7.3286    2.1256 C   0  0  0  0  0  0  0  0  0  0  0  0
    3.1235   -6.0147    1.3528 C   0  0  0  0  0  0  0  0  0  0  0  0
    4.1096   -5.1250    1.1393 C   0  0  0  0  0  0  0  0  0  0  0  0
    5.5000   -5.2428    1.5132 C   0  0  0  0  0  0  0  0  0  0  0  0
    6.3695   -4.2806    1.1125 C   0  0  0  0  0  0  0  0  0  0  0  0
    7.7286   -4.3096    1.3328 O   0  0  0  0  0  0  0  0  0  0  0  0
    8.2721   -5.3953    2.0716 C   0  0  0  0  0  0  0  0  0  0  0  0
    5.9639   -3.1035    0.1901 C   0  0  2  0  0  0  0  0  0  0  0  0
    7.0823   -2.8195   -0.7294 C   0  0  0  0  0  0  0  0  0  0  0  0
    7.9626   -2.6044   -1.4527 N   0  0  0  0  0  0  0  0  0  0  0  0
    5.4545   -1.8551    0.9279 C   0  0  1  0  0  0  0  0  0  0  0  0
    6.5180   -1.2384    1.4411 O   0  0  0  0  0  0  0  0  0  0  0  0
    4.8817   -1.0778   -0.1071 O   0  0  0  0  0  0  0  0  0  0  0  0
    4.2865   -1.9248   -1.0519 C   0  0  1  0  0  0  0  0  0  0  0  0
    4.7863   -1.6804   -2.3380 O   0  0  0  0  0  0  0  0  0  0  0  0
    4.2015   -0.5587   -2.9813 C   0  0  0  0  0  0  0  0  0  0  0  0
    4.6711   -3.3593   -0.6018 C   0  0  1  0  0  0  0  0  0  0  0  0
    4.8691   -4.2737   -1.8265 C   0  0  0  0  0  0  0  0  0  0  0  0
    3.6154   -3.8841    0.4273 C   0  0  1  0  0  0  0  0  0  0  0  0
    2.2460   -4.3230   -0.1090 C   0  0  0  0  0  0  0  0  0  0  0  0
    1.8221   -5.5125    0.7877 C   0  0  0  0  0  0  0  0  0  0  0  0
    3.3188   -2.9171    1.4350 O   0  0  0  0  0  0  0  0  0  0  0  0
    4.3686   -2.1721    1.9662 C   0  0  0  0  0  0  0  0  0  0  0  0
    4.2004   -1.8705    3.2747 C   0  0  0  0  0  0  0  0  0  0  0  0
    5.0009   -1.0730    4.1986 C   0  0  0  0  0  0  0  0  0  0  0  0
    5.8075   -0.1698    3.9404 O   0  0  0  0  0  0  0  0  0  0  0  0
    4.6861   -1.3810    5.4864 O   0  0  0  0  0  0  0  0  0  0  0  0
    2.7555   -9.4619    1.8953 H   0  0  0  0  0  0  0  0  0  0  0  0
    3.4535   -8.7066    0.4758 H   0  0  0  0  0  0  0  0  0  0  0  0
    1.7453   -8.4581    0.8813 H   0  0  0  0  0  0  0  0  0  0  0  0
    2.4781   -7.2388    2.9758 H   0  0  0  0  0  0  0  0  0  0  0  0
    4.1456   -7.5010    2.5482 H   0  0  0  0  0  0  0  0  0  0  0  0
    5.8171   -6.0924    2.0987 H   0  0  0  0  0  0  0  0  0  0  0  0
    9.3326   -5.2029    2.2492 H   0  0  0  0  0  0  0  0  0  0  0  0
    8.1880   -6.3204    1.4977 H   0  0  0  0  0  0  0  0  0  0  0  0
    7.7959   -5.5173    3.0473 H   0  0  0  0  0  0  0  0  0  0  0  0
    3.2024   -1.7720   -1.0247 H   0  0  0  0  0  0  0  0  0  0  0  0
    4.6070   -0.4620   -3.9900 H   0  0  0  0  0  0  0  0  0  0  0  0
    4.4193    0.3623   -2.4409 H   0  0  0  0  0  0  0  0  0  0  0  0
    3.1177   -0.6623   -3.0729 H   0  0  0  0  0  0  0  0  0  0  0  0
    3.9954   -4.1957   -2.4670 H   0  0  0  0  0  0  0  0  0  0  0  0
    4.9902   -5.3114   -1.5233 H   0  0  0  0  0  0  0  0  0  0  0  0
    5.7272   -4.0067   -2.4439 H   0  0  0  0  0  0  0  0  0  0  0  0
    1.5562   -3.4835   -0.1698 H   0  0  0  0  0  0  0  0  0  0  0  0
    2.3197   -4.6689   -1.1239 H   0  0  0  0  0  0  0  0  0  0  0  0
    1.2989   -6.2780    0.2211 H   0  0  0  0  0  0  0  0  0  0  0  0
    1.1992   -5.2136    1.6293 H   0  0  0  0  0  0  0  0  0  0  0  0
    3.3025   -2.2995    3.6930 H   0  0  0  0  0  0  0  0  0  0  0  0
    4.0368   -2.0710    5.5517 H   0  0  0  0  0  0  0  0  0  0  0  0
  1  2  1  0
  1 29  1  0
  1 30  1  0
  1 31  1  0
  2  3  1  0
  2 32  1  0
  2 33  1  0
  3 22  1  0
  3  4  2  0
  4 20  1  0
  4  5  1  0
  5  6  2  0
  5 34  1  0
  6  7  1  0
  6  9  1  0
  7  8  1  0
  8 35  1  0
  8 36  1  0
  8 37  1  0
  9 18  1  0
  9 10  1  6
  9 12  1  0
 10 11  3  0
 12 24  1  0
 12 13  1  1
 12 14  1  0
 14 15  1  0
 15 16  1  0
 15 18  1  0
 15 38  1  6
 16 17  1  0
 17 39  1  0
 17 40  1  0
 17 41  1  0
 18 19  1  6
 18 20  1  0
 19 42  1  0
 19 43  1  0
 19 44  1  0
 20 21  1  0
 20 23  1  1
 21 22  1  0
 21 45  1  0
 21 46  1  0
 22 47  1  0
 22 48  1  0
 23 24  1  0
 24 25  2  3
 25 26  1  0
 25 49  1  0
 26 27  2  0
 26 28  1  0
 28 50  1  0
M  CHG  1  13  -1
M  END
>  <i_m_ct_stereo_status>  (319) 
1

>  <s_m_source_file>  (319) 
/var/tmp/pbs.5076255.sched01/tmpz7l6rxva/92z_h6r8yo.sdf

>  <i_m_source_file_index>  (319) 
38

>  <i_lp_mmshare_version>  (319) 
48012

>  <i_f3d_flags>  (319) 
0

>  <s_epik_input>  (319) 
W0NIM11bQ0gyXUMoW0NIMl1bQ0gyXTEpPUMoW0NAXTEyMylbQ0hdPUMoT1tDSDNdKVtDQF00KEMjTilbQ0BAXShbT0hdKShPW0NAQEhdKE9bQ0gzXSlbQ0BdMjRbQ0gzXSkvQyhPMyk9W0NIXVxDKD1PKVtPSF0=

>  <s_epik_cmdline>  (319) 
J2VwaWtfcHl0aG9uJywgJy1waHQnLCAnMi4wJywgJy1waCcsICc3LjAnLCAnLXRuJywgJzgnLCAnLW1hJywgJzIwMCcsICctaW1hZScsICc8aW5maWxlLm1hZT4nLCAnLW9tYWUnLCAnPG91dGZpbGUubWFlPic=

>  <r_epik_Ionization_Penalty>  (319) 
0.50885

>  <r_epik_Ionization_Penalty_Charging>  (319) 
0.208665

>  <r_epik_Ionization_Penalty_Neutral>  (319) 
0.300186

>  <r_epik_State_Penalty>  (319) 
0.895564

>  <r_epik_Charging_Adjusted_Penalty>  (319) 
1.10423

>  <i_epik_Tot_Q>  (319) 
-1

>  <i_epik_Tot_abs_Q>  (319) 
1

>  <s_epik_Chemistry_Notes>  (319) 
This compound contains an acetal/aminal-like group ( X-CH(R)-Y where X, Y are N, S, or O) that may be acid/base labile, releasing an aldehyde.

>  <s_lp_Force_Field>  (319) 
OPLS3e

>  <r_lp_Energy>  (319) 
37.6731

>  <b_lp_Chiralities_Consistent>  (319) 
1

>  <s_lp_Variant>  (319) 
83:0-3

>  <s_i_glide_gridfile>  (319) 
pfpi4k_grid

>  <i_i_glide_lignum>  (319) 
38

>  <i_i_glide_rotatable_bonds>  (319) 
6

>  <r_i_docking_score>  (319) 
-2.8465

>  <r_i_glide_ligand_efficiency>  (319) 
-0.101661

>  <r_i_glide_ligand_efficiency_sa>  (319) 
-0.308701

>  <r_i_glide_ligand_efficiency_ln>  (319) 
-0.657055

>  <r_i_glide_gscore>  (319) 
-2.8465

>  <r_i_glide_lipo>  (319) 
-0.540147

>  <r_i_glide_hbond>  (319) 
-0.16

>  <r_i_glide_metal>  (319) 
-0

>  <r_i_glide_rewards>  (319) 
-0.958659

>  <r_i_glide_evdw>  (319) 
-22.6635

>  <r_i_glide_ecoul>  (319) 
-0.976401

>  <r_i_glide_erotb>  (319) 
0.12916

>  <r_i_glide_esite>  (319) 
-0.0372142

>  <r_i_glide_emodel>  (319) 
-27.6879

>  <r_i_glide_energy>  (319) 
-23.6399

>  <r_i_glide_einternal>  (319) 
3.22586

>  <r_i_glide_intrahb_reward>  (319) 
-0

>  <i_i_glide_confnum>  (319) 
2

>  <i_i_glide_posenum>  (319) 
2

>  <r_i_glide_eff_state_penalty>  (319) 
0

>  <ligand_id>  (319) 
83

>  <original_smiles>  (319) 
CCC1=C2C=C(OC)C3(C#N)C4(O)OC(OC)C3(C)C2(CC1)OC4=CC(=O)O

>  <smiles>  (319) 
[H]OC(=O)C([H])=C1OC23C(=C(C([H])([H])C([H])([H])[H])C([H])([H])C2([H])[H])C([H])=C(OC([H])([H])[H])C2(C#N)C1([O-])OC([H])(OC([H])([H])[H])C23C([H])([H])[H]

$$$$
83:3:0
     RDKit          3D

 50 53  0  0  1  0  0  0  0  0999 V2000
    8.1639   -3.3747   -1.7210 C   0  0  0  0  0  0  0  0  0  0  0  0
    8.2104   -3.7402   -0.2303 C   0  0  0  0  0  0  0  0  0  0  0  0
    6.9936   -3.2481    0.5408 C   0  0  0  0  0  0  0  0  0  0  0  0
    5.9441   -3.9512    1.0013 C   0  0  0  0  0  0  0  0  0  0  0  0
    5.7284   -5.3824    0.9195 C   0  0  0  0  0  0  0  0  0  0  0  0
    4.6400   -5.9193    1.5307 C   0  0  0  0  0  0  0  0  0  0  0  0
    4.3158   -7.2644    1.5459 O   0  0  0  0  0  0  0  0  0  0  0  0
    5.0133   -8.1244    0.6742 C   0  0  0  0  0  0  0  0  0  0  0  0
    3.6570   -5.0964    2.3764 C   0  0  2  0  0  0  0  0  0  0  0  0
    3.1442   -5.9157    3.5030 C   0  0  0  0  0  0  0  0  0  0  0  0
    2.7480   -6.5630    4.3854 N   0  0  0  0  0  0  0  0  0  0  0  0
    2.4932   -4.5126    1.5427 C   0  0  1  0  0  0  0  0  0  0  0  0
    1.6343   -5.4605    1.2036 O   0  0  0  0  0  0  0  0  0  0  0  0
    1.9289   -3.5892    2.4731 O   0  0  0  0  0  0  0  0  0  0  0  0
    2.9350   -2.9975    3.2521 C   0  0  1  0  0  0  0  0  0  0  0  0
    2.6702   -3.1590    4.6140 O   0  0  0  0  0  0  0  0  0  0  0  0
    1.5759   -2.3945    5.0980 C   0  0  0  0  0  0  0  0  0  0  0  0
    4.2402   -3.7509    2.8698 C   0  0  1  0  0  0  0  0  0  0  0  0
    5.1953   -3.9165    4.0810 C   0  0  0  0  0  0  0  0  0  0  0  0
    4.8977   -3.0528    1.6260 C   0  0  1  0  0  0  0  0  0  0  0  0
    5.6784   -1.7356    1.8516 C   0  0  0  0  0  0  0  0  0  0  0  0
    6.8435   -1.7825    0.8491 C   0  0  0  0  0  0  0  0  0  0  0  0
    3.9415   -2.7403    0.6172 O   0  0  0  0  0  0  0  0  0  0  0  0
    2.9867   -3.7116    0.3150 C   0  0  0  0  0  0  0  0  0  0  0  0
    2.5439   -3.8502   -0.9471 C   0  0  0  0  0  0  0  0  0  0  0  0
    3.0739   -3.0985   -2.0719 C   0  0  0  0  0  0  0  0  0  0  0  0
    4.0392   -2.3262   -2.0456 O   0  0  0  0  0  0  0  0  0  0  0  0
    2.4344   -3.4009   -3.2404 O   0  0  0  0  0  0  0  0  0  0  0  0
    9.0448   -3.7496   -2.2363 H   0  0  0  0  0  0  0  0  0  0  0  0
    8.1296   -2.3001   -1.8900 H   0  0  0  0  0  0  0  0  0  0  0  0
    7.3068   -3.8173   -2.2247 H   0  0  0  0  0  0  0  0  0  0  0  0
    8.3278   -4.8165   -0.1246 H   0  0  0  0  0  0  0  0  0  0  0  0
    9.1017   -3.3004    0.2141 H   0  0  0  0  0  0  0  0  0  0  0  0
    6.4436   -5.9839    0.3896 H   0  0  0  0  0  0  0  0  0  0  0  0
    4.6242   -9.1389    0.7679 H   0  0  0  0  0  0  0  0  0  0  0  0
    6.0819   -8.1518    0.8987 H   0  0  0  0  0  0  0  0  0  0  0  0
    4.8475   -7.7947   -0.3486 H   0  0  0  0  0  0  0  0  0  0  0  0
    3.0102   -1.9340    3.0216 H   0  0  0  0  0  0  0  0  0  0  0  0
    1.4622   -2.5601    6.1703 H   0  0  0  0  0  0  0  0  0  0  0  0
    0.6461   -2.6939    4.6163 H   0  0  0  0  0  0  0  0  0  0  0  0
    1.7244   -1.3242    4.9468 H   0  0  0  0  0  0  0  0  0  0  0  0
    5.4595   -2.9542    4.5154 H   0  0  0  0  0  0  0  0  0  0  0  0
    6.1110   -4.4269    3.7844 H   0  0  0  0  0  0  0  0  0  0  0  0
    4.7590   -4.5076    4.8886 H   0  0  0  0  0  0  0  0  0  0  0  0
    5.0603   -0.8428    1.7414 H   0  0  0  0  0  0  0  0  0  0  0  0
    6.1081   -1.7033    2.8473 H   0  0  0  0  0  0  0  0  0  0  0  0
    7.7533   -1.3499    1.2562 H   0  0  0  0  0  0  0  0  0  0  0  0
    6.6007   -1.2434   -0.0604 H   0  0  0  0  0  0  0  0  0  0  0  0
    1.7777   -4.6057   -1.1335 H   0  0  0  0  0  0  0  0  0  0  0  0
    1.7555   -4.0498   -3.1244 H   0  0  0  0  0  0  0  0  0  0  0  0
  1  2  1  0
  1 29  1  0
  1 30  1  0
  1 31  1  0
  2  3  1  0
  2 32  1  0
  2 33  1  0
  3 22  1  0
  3  4  2  0
  4 20  1  0
  4  5  1  0
  5  6  2  0
  5 34  1  0
  6  7  1  0
  6  9  1  0
  7  8  1  0
  8 35  1  0
  8 36  1  0
  8 37  1  0
  9 18  1  0
  9 10  1  1
  9 12  1  0
 10 11  3  0
 12 24  1  0
 12 13  1  6
 12 14  1  0
 14 15  1  0
 15 16  1  0
 15 18  1  0
 15 38  1  1
 16 17  1  0
 17 39  1  0
 17 40  1  0
 17 41  1  0
 18 19  1  1
 18 20  1  0
 19 42  1  0
 19 43  1  0
 19 44  1  0
 20 21  1  0
 20 23  1  6
 21 22  1  0
 21 45  1  0
 21 46  1  0
 22 47  1  0
 22 48  1  0
 23 24  1  0
 24 25  2  3
 25 26  1  0
 25 49  1  0
 26 27  2  0
 26 28  1  0
 28 50  1  0
M  CHG  1  13  -1
M  END
>  <i_m_ct_stereo_status>  (320) 
1

>  <s_m_source_file>  (320) 
/var/tmp/pbs.5076255.sched01/tmpz7l6rxva/92z_h6r8yo.sdf

>  <i_m_source_file_index>  (320) 
39

>  <i_lp_mmshare_version>  (320) 
48012

>  <i_f3d_flags>  (320) 
0

>  <s_epik_input>  (320) 
W0NIM11bQ0gyXUMoW0NIMl1bQ0gyXTEpPUMoW0NAXTEyMylbQ0hdPUMoT1tDSDNdKVtDQF00KEMjTilbQ0BAXShbT0hdKShPW0NAQEhdKE9bQ0gzXSlbQ0BdMjRbQ0gzXSkvQyhPMyk9W0NIXVxDKD1PKVtPSF0=

>  <s_epik_cmdline>  (320) 
J2VwaWtfcHl0aG9uJywgJy1waHQnLCAnMi4wJywgJy1waCcsICc3LjAnLCAnLXRuJywgJzgnLCAnLW1hJywgJzIwMCcsICctaW1hZScsICc8aW5maWxlLm1hZT4nLCAnLW9tYWUnLCAnPG91dGZpbGUubWFlPic=

>  <r_epik_Ionization_Penalty>  (320) 
0.50885

>  <r_epik_Ionization_Penalty_Charging>  (320) 
0.208665

>  <r_epik_Ionization_Penalty_Neutral>  (320) 
0.300186

>  <r_epik_State_Penalty>  (320) 
0.895564

>  <r_epik_Charging_Adjusted_Penalty>  (320) 
1.10423

>  <i_epik_Tot_Q>  (320) 
-1

>  <i_epik_Tot_abs_Q>  (320) 
1

>  <s_epik_Chemistry_Notes>  (320) 
This compound contains an acetal/aminal-like group ( X-CH(R)-Y where X, Y are N, S, or O) that may be acid/base labile, releasing an aldehyde.

>  <s_lp_Force_Field>  (320) 
OPLS3e

>  <r_lp_Energy>  (320) 
29.6179

>  <b_lp_Chiralities_Consistent>  (320) 
1

>  <s_lp_Variant>  (320) 
83:0-4

>  <s_i_glide_gridfile>  (320) 
pfpi4k_grid

>  <i_i_glide_lignum>  (320) 
39

>  <i_i_glide_rotatable_bonds>  (320) 
6

>  <r_i_docking_score>  (320) 
-3.18951

>  <r_i_glide_ligand_efficiency>  (320) 
-0.113911

>  <r_i_glide_ligand_efficiency_sa>  (320) 
-0.345901

>  <r_i_glide_ligand_efficiency_ln>  (320) 
-0.736232

>  <r_i_glide_gscore>  (320) 
-3.18951

>  <r_i_glide_lipo>  (320) 
-0.662334

>  <r_i_glide_hbond>  (320) 
-0.13347

>  <r_i_glide_metal>  (320) 
-0

>  <r_i_glide_rewards>  (320) 
-0.760969

>  <r_i_glide_evdw>  (320) 
-20.3666

>  <r_i_glide_ecoul>  (320) 
-4.7527

>  <r_i_glide_erotb>  (320) 
0.12916

>  <r_i_glide_esite>  (320) 
-0.0306564

>  <r_i_glide_emodel>  (320) 
-30.2855

>  <r_i_glide_energy>  (320) 
-25.1193

>  <r_i_glide_einternal>  (320) 
2.72603

>  <r_i_glide_intrahb_reward>  (320) 
-0

>  <i_i_glide_confnum>  (320) 
3

>  <i_i_glide_posenum>  (320) 
28

>  <r_i_glide_eff_state_penalty>  (320) 
0

>  <ligand_id>  (320) 
83

>  <original_smiles>  (320) 
CCC1=C2C=C(OC)C3(C#N)C4(O)OC(OC)C3(C)C2(CC1)OC4=CC(=O)O

>  <smiles>  (320) 
[H]OC(=O)C([H])=C1OC23C(=C(C([H])([H])C([H])([H])[H])C([H])([H])C2([H])[H])C([H])=C(OC([H])([H])[H])C2(C#N)C1([O-])OC([H])(OC([H])([H])[H])C23C([H])([H])[H]

$$$$
83:3:1
     RDKit          3D

 50 53  0  0  1  0  0  0  0  0999 V2000
    8.8274   -5.2016    0.1299 C   0  0  0  0  0  0  0  0  0  0  0  0
    8.2356   -3.8192   -0.2344 C   0  0  0  0  0  0  0  0  0  0  0  0
    7.0164   -3.3485    0.5635 C   0  0  0  0  0  0  0  0  0  0  0  0
    5.9383   -4.0287    1.0040 C   0  0  0  0  0  0  0  0  0  0  0  0
    5.6537   -5.4507    0.8901 C   0  0  0  0  0  0  0  0  0  0  0  0
    4.5773   -5.9738    1.5299 C   0  0  0  0  0  0  0  0  0  0  0  0
    4.2370   -7.3085    1.5265 O   0  0  0  0  0  0  0  0  0  0  0  0
    4.9563   -8.1679    0.6643 C   0  0  0  0  0  0  0  0  0  0  0  0
    3.6367   -5.1281    2.3922 C   0  0  2  0  0  0  0  0  0  0  0  0
    3.1326   -5.9610    3.5209 C   0  0  0  0  0  0  0  0  0  0  0  0
    2.7277   -6.6048    4.3966 N   0  0  0  0  0  0  0  0  0  0  0  0
    2.5048   -4.5083    1.5496 C   0  0  1  0  0  0  0  0  0  0  0  0
    1.6615   -5.4548    1.2011 O   0  0  0  0  0  0  0  0  0  0  0  0
    1.9533   -3.5849    2.4779 O   0  0  0  0  0  0  0  0  0  0  0  0
    2.9735   -3.0194    3.2702 C   0  0  1  0  0  0  0  0  0  0  0  0
    2.7157   -3.1900    4.6272 O   0  0  0  0  0  0  0  0  0  0  0  0
    1.6905   -2.3581    5.1355 C   0  0  0  0  0  0  0  0  0  0  0  0
    4.2587   -3.7939    2.8816 C   0  0  1  0  0  0  0  0  0  0  0  0
    5.2258   -3.9866    4.0798 C   0  0  0  0  0  0  0  0  0  0  0  0
    4.9178   -3.0964    1.6374 C   0  0  1  0  0  0  0  0  0  0  0  0
    5.7180   -1.7995    1.8641 C   0  0  0  0  0  0  0  0  0  0  0  0
    6.8781   -1.8716    0.8603 C   0  0  0  0  0  0  0  0  0  0  0  0
    3.9592   -2.7695    0.6281 O   0  0  0  0  0  0  0  0  0  0  0  0
    3.0056   -3.7172    0.3362 C   0  0  0  0  0  0  0  0  0  0  0  0
    2.5501   -3.8442   -0.9406 C   0  0  0  0  0  0  0  0  0  0  0  0
    3.1051   -3.0831   -2.0584 C   0  0  0  0  0  0  0  0  0  0  0  0
    4.0310   -2.2705   -2.0165 O   0  0  0  0  0  0  0  0  0  0  0  0
    2.5252   -3.4405   -3.2412 O   0  0  0  0  0  0  0  0  0  0  0  0
    9.7085   -5.4127   -0.4966 H   0  0  0  0  0  0  0  0  0  0  0  0
    8.1786   -6.0403   -0.0621 H   0  0  0  0  0  0  0  0  0  0  0  0
    9.1325   -5.2155    1.1851 H   0  0  0  0  0  0  0  0  0  0  0  0
    9.0298   -3.0757   -0.1276 H   0  0  0  0  0  0  0  0  0  0  0  0
    7.9913   -3.7781   -1.2903 H   0  0  0  0  0  0  0  0  0  0  0  0
    6.2972   -6.0838    0.3026 H   0  0  0  0  0  0  0  0  0  0  0  0
    4.5689   -9.1804    0.7327 H   0  0  0  0  0  0  0  0  0  0  0  0
    6.0225   -8.2144    0.8982 H   0  0  0  0  0  0  0  0  0  0  0  0
    4.8023   -7.8412   -0.3606 H   0  0  0  0  0  0  0  0  0  0  0  0
    3.0704   -1.9606    3.0328 H   0  0  0  0  0  0  0  0  0  0  0  0
    1.5734   -2.5341    6.2034 H   0  0  0  0  0  0  0  0  0  0  0  0
    0.7378   -2.5737    4.6553 H   0  0  0  0  0  0  0  0  0  0  0  0
    1.9205   -1.2979    5.0044 H   0  0  0  0  0  0  0  0  0  0  0  0
    5.5075   -3.0298    4.5166 H   0  0  0  0  0  0  0  0  0  0  0  0
    6.1295   -4.5048    3.7711 H   0  0  0  0  0  0  0  0  0  0  0  0
    4.7872   -4.5757    4.8854 H   0  0  0  0  0  0  0  0  0  0  0  0
    5.1273   -0.8857    1.7584 H   0  0  0  0  0  0  0  0  0  0  0  0
    6.1649   -1.7750    2.8496 H   0  0  0  0  0  0  0  0  0  0  0  0
    7.8032   -1.4334    1.2569 H   0  0  0  0  0  0  0  0  0  0  0  0
    6.6460   -1.3252   -0.0616 H   0  0  0  0  0  0  0  0  0  0  0  0
    1.7827   -4.5909   -1.1184 H   0  0  0  0  0  0  0  0  0  0  0  0
    1.9096   -4.1459   -3.1215 H   0  0  0  0  0  0  0  0  0  0  0  0
  1  2  1  0
  1 29  1  0
  1 30  1  0
  1 31  1  0
  2  3  1  0
  2 32  1  0
  2 33  1  0
  3 22  1  0
  3  4  2  0
  4 20  1  0
  4  5  1  0
  5  6  2  0
  5 34  1  0
  6  7  1  0
  6  9  1  0
  7  8  1  0
  8 35  1  0
  8 36  1  0
  8 37  1  0
  9 18  1  0
  9 10  1  1
  9 12  1  0
 10 11  3  0
 12 24  1  0
 12 13  1  6
 12 14  1  0
 14 15  1  0
 15 16  1  0
 15 18  1  0
 15 38  1  1
 16 17  1  0
 17 39  1  0
 17 40  1  0
 17 41  1  0
 18 19  1  1
 18 20  1  0
 19 42  1  0
 19 43  1  0
 19 44  1  0
 20 21  1  0
 20 23  1  6
 21 22  1  0
 21 45  1  0
 21 46  1  0
 22 47  1  0
 22 48  1  0
 23 24  1  0
 24 25  2  3
 25 26  1  0
 25 49  1  0
 26 27  2  0
 26 28  1  0
 28 50  1  0
M  CHG  1  13  -1
M  END
>  <i_m_ct_stereo_status>  (321) 
1

>  <s_m_source_file>  (321) 
/var/tmp/pbs.5076255.sched01/tmpz7l6rxva/92z_h6r8yo.sdf

>  <i_m_source_file_index>  (321) 
39

>  <i_lp_mmshare_version>  (321) 
48012

>  <i_f3d_flags>  (321) 
0

>  <s_epik_input>  (321) 
W0NIM11bQ0gyXUMoW0NIMl1bQ0gyXTEpPUMoW0NAXTEyMylbQ0hdPUMoT1tDSDNdKVtDQF00KEMjTilbQ0BAXShbT0hdKShPW0NAQEhdKE9bQ0gzXSlbQ0BdMjRbQ0gzXSkvQyhPMyk9W0NIXVxDKD1PKVtPSF0=

>  <s_epik_cmdline>  (321) 
J2VwaWtfcHl0aG9uJywgJy1waHQnLCAnMi4wJywgJy1waCcsICc3LjAnLCAnLXRuJywgJzgnLCAnLW1hJywgJzIwMCcsICctaW1hZScsICc8aW5maWxlLm1hZT4nLCAnLW9tYWUnLCAnPG91dGZpbGUubWFlPic=

>  <r_epik_Ionization_Penalty>  (321) 
0.50885

>  <r_epik_Ionization_Penalty_Charging>  (321) 
0.208665

>  <r_epik_Ionization_Penalty_Neutral>  (321) 
0.300186

>  <r_epik_State_Penalty>  (321) 
0.895564

>  <r_epik_Charging_Adjusted_Penalty>  (321) 
1.10423

>  <i_epik_Tot_Q>  (321) 
-1

>  <i_epik_Tot_abs_Q>  (321) 
1

>  <s_epik_Chemistry_Notes>  (321) 
This compound contains an acetal/aminal-like group ( X-CH(R)-Y where X, Y are N, S, or O) that may be acid/base labile, releasing an aldehyde.

>  <s_lp_Force_Field>  (321) 
OPLS3e

>  <r_lp_Energy>  (321) 
29.6179

>  <b_lp_Chiralities_Consistent>  (321) 
1

>  <s_lp_Variant>  (321) 
83:0-4

>  <s_i_glide_gridfile>  (321) 
pfpi4k_grid

>  <i_i_glide_lignum>  (321) 
39

>  <i_i_glide_rotatable_bonds>  (321) 
6

>  <r_i_docking_score>  (321) 
-3.12412

>  <r_i_glide_ligand_efficiency>  (321) 
-0.111576

>  <r_i_glide_ligand_efficiency_sa>  (321) 
-0.338809

>  <r_i_glide_ligand_efficiency_ln>  (321) 
-0.721138

>  <r_i_glide_gscore>  (321) 
-3.12412

>  <r_i_glide_lipo>  (321) 
-0.639021

>  <r_i_glide_hbond>  (321) 
-0.131857

>  <r_i_glide_metal>  (321) 
-0

>  <r_i_glide_rewards>  (321) 
-0.760969

>  <r_i_glide_evdw>  (321) 
-19.5539

>  <r_i_glide_ecoul>  (321) 
-4.74732

>  <r_i_glide_erotb>  (321) 
0.12916

>  <r_i_glide_esite>  (321) 
-0.0316364

>  <r_i_glide_emodel>  (321) 
-27.9586

>  <r_i_glide_energy>  (321) 
-24.3012

>  <r_i_glide_einternal>  (321) 
4.93089

>  <r_i_glide_intrahb_reward>  (321) 
-0

>  <i_i_glide_confnum>  (321) 
3

>  <i_i_glide_posenum>  (321) 
25

>  <r_i_glide_eff_state_penalty>  (321) 
0

>  <ligand_id>  (321) 
83

>  <original_smiles>  (321) 
CCC1=C2C=C(OC)C3(C#N)C4(O)OC(OC)C3(C)C2(CC1)OC4=CC(=O)O

>  <smiles>  (321) 
[H]OC(=O)C([H])=C1OC23C(=C(C([H])([H])C([H])([H])[H])C([H])([H])C2([H])[H])C([H])=C(OC([H])([H])[H])C2(C#N)C1([O-])OC([H])(OC([H])([H])[H])C23C([H])([H])[H]

$$$$
83:3:2
     RDKit          3D

 50 53  0  0  1  0  0  0  0  0999 V2000
    9.3389   -2.9741    0.4938 C   0  0  0  0  0  0  0  0  0  0  0  0
    8.0012   -3.4028   -0.1250 C   0  0  0  0  0  0  0  0  0  0  0  0
    6.7822   -3.0130    0.6991 C   0  0  0  0  0  0  0  0  0  0  0  0
    5.7718   -3.7889    1.1458 C   0  0  0  0  0  0  0  0  0  0  0  0
    5.6439   -5.2258    1.0257 C   0  0  0  0  0  0  0  0  0  0  0  0
    4.5867   -5.8482    1.6268 C   0  0  0  0  0  0  0  0  0  0  0  0
    4.3509   -7.1997    1.6146 O   0  0  0  0  0  0  0  0  0  0  0  0
    5.1214   -8.0045    0.7379 C   0  0  0  0  0  0  0  0  0  0  0  0
    3.5622   -5.1016    2.5143 C   0  0  2  0  0  0  0  0  0  0  0  0
    3.1300   -5.9849    3.6270 C   0  0  0  0  0  0  0  0  0  0  0  0
    2.7986   -6.6739    4.4987 N   0  0  0  0  0  0  0  0  0  0  0  0
    2.3665   -4.5283    1.7313 C   0  0  1  0  0  0  0  0  0  0  0  0
    1.4686   -5.4687    1.3768 O   0  0  0  0  0  0  0  0  0  0  0  0
    1.7911   -3.6554    2.6832 O   0  0  0  0  0  0  0  0  0  0  0  0
    2.7770   -3.0626    3.4797 C   0  0  1  0  0  0  0  0  0  0  0  0
    2.5339   -3.2880    4.8378 O   0  0  0  0  0  0  0  0  0  0  0  0
    1.3883   -2.6156    5.3447 C   0  0  0  0  0  0  0  0  0  0  0  0
    4.0962   -3.7505    3.0472 C   0  0  1  0  0  0  0  0  0  0  0  0
    5.0859   -3.8827    4.2380 C   0  0  0  0  0  0  0  0  0  0  0  0
    4.6902   -2.9738    1.8211 C   0  0  1  0  0  0  0  0  0  0  0  0
    5.3947   -1.6138    2.0598 C   0  0  0  0  0  0  0  0  0  0  0  0
    6.5440   -1.5626    1.0367 C   0  0  0  0  0  0  0  0  0  0  0  0
    3.6890   -2.6874    0.8475 O   0  0  0  0  0  0  0  0  0  0  0  0
    2.8025   -3.6974    0.5149 C   0  0  0  0  0  0  0  0  0  0  0  0
    2.3708   -3.8388   -0.7610 C   0  0  0  0  0  0  0  0  0  0  0  0
    2.8380   -3.0393   -1.8946 C   0  0  0  0  0  0  0  0  0  0  0  0
    2.4087   -3.1118   -3.0403 O   0  0  0  0  0  0  0  0  0  0  0  0
    3.8512   -2.1857   -1.5617 O   0  0  0  0  0  0  0  0  0  0  0  0
   10.1660   -3.2605   -0.1462 H   0  0  0  0  0  0  0  0  0  0  0  0
    9.4927   -3.4430    1.4660 H   0  0  0  0  0  0  0  0  0  0  0  0
    9.4231   -1.8910    0.5965 H   0  0  0  0  0  0  0  0  0  0  0  0
    7.9185   -2.9428   -1.1095 H   0  0  0  0  0  0  0  0  0  0  0  0
    8.0238   -4.4773   -0.3025 H   0  0  0  0  0  0  0  0  0  0  0  0
    6.3826   -5.7779    0.4626 H   0  0  0  0  0  0  0  0  0  0  0  0
    4.7881   -9.0411    0.8082 H   0  0  0  0  0  0  0  0  0  0  0  0
    6.1830   -7.9772    0.9908 H   0  0  0  0  0  0  0  0  0  0  0  0
    4.9694   -7.6728   -0.2898 H   0  0  0  0  0  0  0  0  0  0  0  0
    2.7778   -1.9887    3.2729 H   0  0  0  0  0  0  0  0  0  0  0  0
    1.2998   -2.8130    6.4149 H   0  0  0  0  0  0  0  0  0  0  0  0
    0.4717   -2.9697    4.8672 H   0  0  0  0  0  0  0  0  0  0  0  0
    1.4558   -1.5321    5.2159 H   0  0  0  0  0  0  0  0  0  0  0  0
    5.2999   -2.9150    4.6902 H   0  0  0  0  0  0  0  0  0  0  0  0
    6.0240   -4.3272    3.9067 H   0  0  0  0  0  0  0  0  0  0  0  0
    4.6967   -4.5193    5.0340 H   0  0  0  0  0  0  0  0  0  0  0  0
    4.7174   -0.7622    1.9787 H   0  0  0  0  0  0  0  0  0  0  0  0
    5.8377   -1.5804    3.0513 H   0  0  0  0  0  0  0  0  0  0  0  0
    7.4152   -1.0662    1.4483 H   0  0  0  0  0  0  0  0  0  0  0  0
    6.2542   -1.0250    0.1388 H   0  0  0  0  0  0  0  0  0  0  0  0
    1.6547   -4.6177   -0.9773 H   0  0  0  0  0  0  0  0  0  0  0  0
    3.9551   -2.2304   -0.6193 H   0  0  0  0  0  0  0  0  0  0  0  0
  1  2  1  0
  1 29  1  0
  1 30  1  0
  1 31  1  0
  2  3  1  0
  2 32  1  0
  2 33  1  0
  3 22  1  0
  3  4  2  0
  4 20  1  0
  4  5  1  0
  5  6  2  0
  5 34  1  0
  6  7  1  0
  6  9  1  0
  7  8  1  0
  8 35  1  0
  8 36  1  0
  8 37  1  0
  9 18  1  0
  9 10  1  1
  9 12  1  0
 10 11  3  0
 12 24  1  0
 12 13  1  6
 12 14  1  0
 14 15  1  0
 15 16  1  0
 15 18  1  0
 15 38  1  1
 16 17  1  0
 17 39  1  0
 17 40  1  0
 17 41  1  0
 18 19  1  1
 18 20  1  0
 19 42  1  0
 19 43  1  0
 19 44  1  0
 20 21  1  0
 20 23  1  6
 21 22  1  0
 21 45  1  0
 21 46  1  0
 22 47  1  0
 22 48  1  0
 23 24  1  0
 24 25  2  3
 25 26  1  0
 25 49  1  0
 26 27  2  0
 26 28  1  0
 28 50  1  0
M  CHG  1  13  -1
M  END
>  <i_m_ct_stereo_status>  (322) 
1

>  <s_m_source_file>  (322) 
/var/tmp/pbs.5076255.sched01/tmpz7l6rxva/92z_h6r8yo.sdf

>  <i_m_source_file_index>  (322) 
39

>  <i_lp_mmshare_version>  (322) 
48012

>  <i_f3d_flags>  (322) 
0

>  <s_epik_input>  (322) 
W0NIM11bQ0gyXUMoW0NIMl1bQ0gyXTEpPUMoW0NAXTEyMylbQ0hdPUMoT1tDSDNdKVtDQF00KEMjTilbQ0BAXShbT0hdKShPW0NAQEhdKE9bQ0gzXSlbQ0BdMjRbQ0gzXSkvQyhPMyk9W0NIXVxDKD1PKVtPSF0=

>  <s_epik_cmdline>  (322) 
J2VwaWtfcHl0aG9uJywgJy1waHQnLCAnMi4wJywgJy1waCcsICc3LjAnLCAnLXRuJywgJzgnLCAnLW1hJywgJzIwMCcsICctaW1hZScsICc8aW5maWxlLm1hZT4nLCAnLW9tYWUnLCAnPG91dGZpbGUubWFlPic=

>  <r_epik_Ionization_Penalty>  (322) 
0.50885

>  <r_epik_Ionization_Penalty_Charging>  (322) 
0.208665

>  <r_epik_Ionization_Penalty_Neutral>  (322) 
0.300186

>  <r_epik_State_Penalty>  (322) 
0.895564

>  <r_epik_Charging_Adjusted_Penalty>  (322) 
1.10423

>  <i_epik_Tot_Q>  (322) 
-1

>  <i_epik_Tot_abs_Q>  (322) 
1

>  <s_epik_Chemistry_Notes>  (322) 
This compound contains an acetal/aminal-like group ( X-CH(R)-Y where X, Y are N, S, or O) that may be acid/base labile, releasing an aldehyde.

>  <s_lp_Force_Field>  (322) 
OPLS3e

>  <r_lp_Energy>  (322) 
29.6179

>  <b_lp_Chiralities_Consistent>  (322) 
1

>  <s_lp_Variant>  (322) 
83:0-4

>  <s_i_glide_gridfile>  (322) 
pfpi4k_grid

>  <i_i_glide_lignum>  (322) 
39

>  <i_i_glide_rotatable_bonds>  (322) 
6

>  <r_i_docking_score>  (322) 
-3.04548

>  <r_i_glide_ligand_efficiency>  (322) 
-0.108767

>  <r_i_glide_ligand_efficiency_sa>  (322) 
-0.330281

>  <r_i_glide_ligand_efficiency_ln>  (322) 
-0.702987

>  <r_i_glide_gscore>  (322) 
-3.04548

>  <r_i_glide_lipo>  (322) 
-0.739591

>  <r_i_glide_hbond>  (322) 
-0.134444

>  <r_i_glide_metal>  (322) 
-0

>  <r_i_glide_rewards>  (322) 
-1.2622

>  <r_i_glide_evdw>  (322) 
-20.1198

>  <r_i_glide_ecoul>  (322) 
-0.0648265

>  <r_i_glide_erotb>  (322) 
0.12916

>  <r_i_glide_esite>  (322) 
-0.0226995

>  <r_i_glide_emodel>  (322) 
-29.8321

>  <r_i_glide_energy>  (322) 
-20.1846

>  <r_i_glide_einternal>  (322) 
2.98668

>  <r_i_glide_intrahb_reward>  (322) 
-0.5

>  <i_i_glide_confnum>  (322) 
4

>  <i_i_glide_posenum>  (322) 
18

>  <r_i_glide_eff_state_penalty>  (322) 
0

>  <ligand_id>  (322) 
83

>  <original_smiles>  (322) 
CCC1=C2C=C(OC)C3(C#N)C4(O)OC(OC)C3(C)C2(CC1)OC4=CC(=O)O

>  <smiles>  (322) 
[H]OC(=O)C([H])=C1OC23C(=C(C([H])([H])C([H])([H])[H])C([H])([H])C2([H])[H])C([H])=C(OC([H])([H])[H])C2(C#N)C1([O-])OC([H])(OC([H])([H])[H])C23C([H])([H])[H]

$$$$
83:4:0
     RDKit          3D

 51 54  0  0  1  0  0  0  0  0999 V2000
    4.2311   -8.4014    1.1993 C   0  0  0  0  0  0  0  0  0  0  0  0
    3.0899   -7.4668    1.6369 C   0  0  0  0  0  0  0  0  0  0  0  0
    3.0606   -6.1194    0.9349 C   0  0  0  0  0  0  0  0  0  0  0  0
    4.0278   -5.2020    0.7975 C   0  0  0  0  0  0  0  0  0  0  0  0
    5.4105   -5.2923    1.2287 C   0  0  0  0  0  0  0  0  0  0  0  0
    6.2606   -4.3014    0.8838 C   0  0  0  0  0  0  0  0  0  0  0  0
    7.6112   -4.2955    1.1621 O   0  0  0  0  0  0  0  0  0  0  0  0
    8.1541   -5.3930    1.8885 C   0  0  0  0  0  0  0  0  0  0  0  0
    5.8348   -3.1057    0.0053 C   0  0  2  0  0  0  0  0  0  0  0  0
    6.9677   -2.7130   -0.8439 C   0  0  0  0  0  0  0  0  0  0  0  0
    7.8586   -2.3982   -1.5073 N   0  0  0  0  0  0  0  0  0  0  0  0
    5.3312   -1.8766    0.7924 C   0  0  1  0  0  0  0  0  0  0  0  0
    6.4372   -1.2403    1.3750 O   0  0  0  0  0  0  0  0  0  0  0  0
    4.7253   -1.0781   -0.1788 O   0  0  0  0  0  0  0  0  0  0  0  0
    4.1813   -1.8788   -1.1948 C   0  0  1  0  0  0  0  0  0  0  0  0
    4.7521   -1.5474   -2.4250 O   0  0  0  0  0  0  0  0  0  0  0  0
    4.1402   -0.4382   -3.0674 C   0  0  0  0  0  0  0  0  0  0  0  0
    4.5673   -3.3350   -0.8233 C   0  0  1  0  0  0  0  0  0  0  0  0
    4.8106   -4.2031   -2.0915 C   0  0  0  0  0  0  0  0  0  0  0  0
    3.5198   -3.9256    0.1696 C   0  0  1  0  0  0  0  0  0  0  0  0
    2.1433   -4.3372   -0.4022 C   0  0  0  0  0  0  0  0  0  0  0  0
    1.7462   -5.6005    0.4032 C   0  0  0  0  0  0  0  0  0  0  0  0
    3.2263   -3.0384    1.2559 O   0  0  0  0  0  0  0  0  0  0  0  0
    4.2302   -2.2694    1.7999 C   0  0  0  0  0  0  0  0  0  0  0  0
    4.0240   -1.9610    3.1033 C   0  0  0  0  0  0  0  0  0  0  0  0
    4.7718   -1.0866    3.9873 C   0  0  0  0  0  0  0  0  0  0  0  0
    5.6087   -0.2503    3.6661 O   0  0  0  0  0  0  0  0  0  0  0  0
    4.3803   -1.2498    5.2808 O   0  0  0  0  0  0  0  0  0  0  0  0
    4.1221   -9.3763    1.6775 H   0  0  0  0  0  0  0  0  0  0  0  0
    5.2169   -8.0338    1.4743 H   0  0  0  0  0  0  0  0  0  0  0  0
    4.2125   -8.5474    0.1181 H   0  0  0  0  0  0  0  0  0  0  0  0
    2.1443   -7.9640    1.4244 H   0  0  0  0  0  0  0  0  0  0  0  0
    3.0962   -7.3059    2.7169 H   0  0  0  0  0  0  0  0  0  0  0  0
    5.7385   -6.1111    1.8414 H   0  0  0  0  0  0  0  0  0  0  0  0
    9.2157   -5.2149    2.0727 H   0  0  0  0  0  0  0  0  0  0  0  0
    8.0699   -6.3300    1.3345 H   0  0  0  0  0  0  0  0  0  0  0  0
    7.6758   -5.5035    2.8624 H   0  0  0  0  0  0  0  0  0  0  0  0
    6.1269   -0.6367    2.0394 H   0  0  0  0  0  0  0  0  0  0  0  0
    3.0968   -1.7417   -1.2180 H   0  0  0  0  0  0  0  0  0  0  0  0
    4.6160   -0.2697   -4.0338 H   0  0  0  0  0  0  0  0  0  0  0  0
    4.2240    0.4767   -2.4825 H   0  0  0  0  0  0  0  0  0  0  0  0
    3.0833   -0.6286   -3.2541 H   0  0  0  0  0  0  0  0  0  0  0  0
    3.9518   -4.1771   -2.7592 H   0  0  0  0  0  0  0  0  0  0  0  0
    5.0172   -5.2364   -1.8189 H   0  0  0  0  0  0  0  0  0  0  0  0
    5.6575   -3.8611   -2.6838 H   0  0  0  0  0  0  0  0  0  0  0  0
    1.4279   -3.5150   -0.3868 H   0  0  0  0  0  0  0  0  0  0  0  0
    2.1982   -4.6177   -1.4483 H   0  0  0  0  0  0  0  0  0  0  0  0
    1.2431   -6.3342   -0.2236 H   0  0  0  0  0  0  0  0  0  0  0  0
    1.1137   -5.3938    1.2667 H   0  0  0  0  0  0  0  0  0  0  0  0
    3.1424   -2.4111    3.5309 H   0  0  0  0  0  0  0  0  0  0  0  0
    4.8173   -0.6282    5.8440 H   0  0  0  0  0  0  0  0  0  0  0  0
  1  2  1  0
  1 29  1  0
  1 30  1  0
  1 31  1  0
  2  3  1  0
  2 32  1  0
  2 33  1  0
  3 22  1  0
  3  4  2  0
  4 20  1  0
  4  5  1  0
  5  6  2  0
  5 34  1  0
  6  7  1  0
  6  9  1  0
  7  8  1  0
  8 35  1  0
  8 36  1  0
  8 37  1  0
  9 18  1  0
  9 10  1  6
  9 12  1  0
 10 11  3  0
 12 24  1  0
 12 13  1  1
 12 14  1  0
 13 38  1  0
 14 15  1  0
 15 16  1  0
 15 18  1  0
 15 39  1  6
 16 17  1  0
 17 40  1  0
 17 41  1  0
 17 42  1  0
 18 19  1  6
 18 20  1  0
 19 43  1  0
 19 44  1  0
 19 45  1  0
 20 21  1  0
 20 23  1  1
 21 22  1  0
 21 46  1  0
 21 47  1  0
 22 48  1  0
 22 49  1  0
 23 24  1  0
 24 25  2  3
 25 26  1  0
 25 50  1  0
 26 27  2  0
 26 28  1  0
 28 51  1  0
M  END
>  <i_m_ct_stereo_status>  (323) 
1

>  <s_m_source_file>  (323) 
/var/tmp/pbs.5076255.sched01/tmpz7l6rxva/92z_h6r8yo.sdf

>  <i_m_source_file_index>  (323) 
40

>  <i_lp_mmshare_version>  (323) 
48012

>  <i_f3d_flags>  (323) 
0

>  <s_epik_input>  (323) 
W0NIM11bQ0gyXUMoW0NIMl1bQ0gyXTEpPUMoW0NAXTEyMylbQ0hdPUMoT1tDSDNdKVtDQF00KEMjTilbQ0BAXShbT0hdKShPW0NAQEhdKE9bQ0gzXSlbQ0BdMjRbQ0gzXSkvQyhPMyk9W0NIXVxDKD1PKVtPSF0=

>  <s_epik_cmdline>  (323) 
J2VwaWtfcHl0aG9uJywgJy1waHQnLCAnMi4wJywgJy1waCcsICc3LjAnLCAnLXRuJywgJzgnLCAnLW1hJywgJzIwMCcsICctaW1hZScsICc8aW5maWxlLm1hZT4nLCAnLW9tYWUnLCAnPG91dGZpbGUubWFlPic=

>  <r_epik_Ionization_Penalty>  (323) 
1.28077

>  <r_epik_Ionization_Penalty_Charging>  (323) 
0

>  <r_epik_Ionization_Penalty_Neutral>  (323) 
1.28077

>  <r_epik_State_Penalty>  (323) 
1.0493

>  <r_epik_Charging_Adjusted_Penalty>  (323) 
1.0493

>  <i_epik_Tot_Q>  (323) 
0

>  <i_epik_Tot_abs_Q>  (323) 
0

>  <s_epik_Chemistry_Notes>  (323) 
This compound contains an acetal/aminal-like group ( X-CH(R)-Y where X, Y are N, S, or O) that may be acid/base labile, releasing an aldehyde.

>  <s_lp_Force_Field>  (323) 
OPLS3e

>  <r_lp_Energy>  (323) 
21.9064

>  <b_lp_Chiralities_Consistent>  (323) 
1

>  <s_lp_Variant>  (323) 
83:0-5

>  <s_i_glide_gridfile>  (323) 
pfpi4k_grid

>  <i_i_glide_lignum>  (323) 
40

>  <i_i_glide_rotatable_bonds>  (323) 
7

>  <r_i_docking_score>  (323) 
-3.70305

>  <r_i_glide_ligand_efficiency>  (323) 
-0.132252

>  <r_i_glide_ligand_efficiency_sa>  (323) 
-0.401594

>  <r_i_glide_ligand_efficiency_ln>  (323) 
-0.854772

>  <r_i_glide_gscore>  (323) 
-3.70305

>  <r_i_glide_lipo>  (323) 
-0.595389

>  <r_i_glide_hbond>  (323) 
-0.16

>  <r_i_glide_metal>  (323) 
-0

>  <r_i_glide_rewards>  (323) 
-1.41819

>  <r_i_glide_evdw>  (323) 
-22.4551

>  <r_i_glide_ecoul>  (323) 
-3.21604

>  <r_i_glide_erotb>  (323) 
0.128561

>  <r_i_glide_esite>  (323) 
-0.0528673

>  <r_i_glide_emodel>  (323) 
-33.7264

>  <r_i_glide_energy>  (323) 
-25.6711

>  <r_i_glide_einternal>  (323) 
4.65994

>  <r_i_glide_intrahb_reward>  (323) 
-0.5

>  <i_i_glide_confnum>  (323) 
1

>  <i_i_glide_posenum>  (323) 
8

>  <r_i_glide_eff_state_penalty>  (323) 
0

>  <ligand_id>  (323) 
83

>  <original_smiles>  (323) 
CCC1=C2C=C(OC)C3(C#N)C4(O)OC(OC)C3(C)C2(CC1)OC4=CC(=O)O

>  <smiles>  (323) 
[H]OC(=O)C([H])=C1OC23C(=C(C([H])([H])C([H])([H])[H])C([H])([H])C2([H])[H])C([H])=C(OC([H])([H])[H])C2(C#N)C1(O[H])OC([H])(OC([H])([H])[H])C23C([H])([H])[H]

$$$$
83:4:1
     RDKit          3D

 51 54  0  0  1  0  0  0  0  0999 V2000
    1.8776   -7.9497    3.1484 C   0  0  0  0  0  0  0  0  0  0  0  0
    2.9241   -7.8234    2.0232 C   0  0  0  0  0  0  0  0  0  0  0  0
    2.9278   -6.4508    1.3642 C   0  0  0  0  0  0  0  0  0  0  0  0
    3.9176   -5.5482    1.3048 C   0  0  0  0  0  0  0  0  0  0  0  0
    5.2669   -5.6826    1.8129 C   0  0  0  0  0  0  0  0  0  0  0  0
    6.1408   -4.6763    1.5618 C   0  0  0  0  0  0  0  0  0  0  0  0
    7.4785   -4.7098    1.8887 O   0  0  0  0  0  0  0  0  0  0  0  0
    7.9539   -5.7854    2.6911 C   0  0  0  0  0  0  0  0  0  0  0  0
    5.8044   -3.4608    0.6560 C   0  0  2  0  0  0  0  0  0  0  0  0
    7.0137   -3.0246   -0.0783 C   0  0  0  0  0  0  0  0  0  0  0  0
    7.9595   -2.6756   -0.6533 N   0  0  0  0  0  0  0  0  0  0  0  0
    5.2018   -2.2262    1.3856 C   0  0  1  0  0  0  0  0  0  0  0  0
    6.2182   -1.5088    2.0198 O   0  0  0  0  0  0  0  0  0  0  0  0
    4.6657   -1.4367    0.3698 O   0  0  0  0  0  0  0  0  0  0  0  0
    4.2539   -2.2407   -0.6943 C   0  0  1  0  0  0  0  0  0  0  0  0
    4.9462   -1.8996   -1.8582 O   0  0  0  0  0  0  0  0  0  0  0  0
    4.3723   -0.8056   -2.5586 C   0  0  0  0  0  0  0  0  0  0  0  0
    4.6286   -3.6897   -0.2741 C   0  0  1  0  0  0  0  0  0  0  0  0
    5.0016   -4.5453   -1.5057 C   0  0  0  0  0  0  0  0  0  0  0  0
    3.4916   -4.2748    0.6257 C   0  0  1  0  0  0  0  0  0  0  0  0
    2.1757   -4.6899   -0.0643 C   0  0  0  0  0  0  0  0  0  0  0  0
    1.6748   -5.9370    0.7013 C   0  0  0  0  0  0  0  0  0  0  0  0
    3.0900   -3.3929    1.6734 O   0  0  0  0  0  0  0  0  0  0  0  0
    4.0279   -2.6168    2.3053 C   0  0  0  0  0  0  0  0  0  0  0  0
    3.7046   -2.3070    3.5847 C   0  0  0  0  0  0  0  0  0  0  0  0
    4.3490   -1.4357    4.5521 C   0  0  0  0  0  0  0  0  0  0  0  0
    5.2930   -0.6707    4.3854 O   0  0  0  0  0  0  0  0  0  0  0  0
    3.7330   -1.4994    5.7511 O   0  0  0  0  0  0  0  0  0  0  0  0
    1.9173   -8.9445    3.5940 H   0  0  0  0  0  0  0  0  0  0  0  0
    0.8610   -7.8104    2.7756 H   0  0  0  0  0  0  0  0  0  0  0  0
    2.0523   -7.2250    3.9455 H   0  0  0  0  0  0  0  0  0  0  0  0
    3.9114   -8.0629    2.4246 H   0  0  0  0  0  0  0  0  0  0  0  0
    2.7131   -8.5764    1.2619 H   0  0  0  0  0  0  0  0  0  0  0  0
    5.5350   -6.5525    2.3931 H   0  0  0  0  0  0  0  0  0  0  0  0
    8.9849   -5.5713    2.9832 H   0  0  0  0  0  0  0  0  0  0  0  0
    7.9532   -6.7120    2.1200 H   0  0  0  0  0  0  0  0  0  0  0  0
    7.3848   -5.9106    3.6131 H   0  0  0  0  0  0  0  0  0  0  0  0
    5.8319   -0.9356    2.6668 H   0  0  0  0  0  0  0  0  0  0  0  0
    3.1748   -2.1127   -0.8259 H   0  0  0  0  0  0  0  0  0  0  0  0
    4.9328   -0.6454   -3.4769 H   0  0  0  0  0  0  0  0  0  0  0  0
    4.3881    0.1168   -1.9775 H   0  0  0  0  0  0  0  0  0  0  0  0
    3.3432   -1.0210   -2.8523 H   0  0  0  0  0  0  0  0  0  0  0  0
    4.2404   -4.4712   -2.2629 H   0  0  0  0  0  0  0  0  0  0  0  0
    5.1395   -5.5857   -1.2188 H   0  0  0  0  0  0  0  0  0  0  0  0
    5.9057   -4.2050   -2.0025 H   0  0  0  0  0  0  0  0  0  0  0  0
    1.4770   -3.8766   -0.2057 H   0  0  0  0  0  0  0  0  0  0  0  0
    2.3731   -5.0064   -1.0618 H   0  0  0  0  0  0  0  0  0  0  0  0
    1.2446   -6.6608    0.0246 H   0  0  0  0  0  0  0  0  0  0  0  0
    0.9532   -5.7008    1.4790 H   0  0  0  0  0  0  0  0  0  0  0  0
    2.7862   -2.7665    3.9136 H   0  0  0  0  0  0  0  0  0  0  0  0
    4.1232   -0.8765    6.3440 H   0  0  0  0  0  0  0  0  0  0  0  0
  1  2  1  0
  1 29  1  0
  1 30  1  0
  1 31  1  0
  2  3  1  0
  2 32  1  0
  2 33  1  0
  3 22  1  0
  3  4  2  0
  4 20  1  0
  4  5  1  0
  5  6  2  0
  5 34  1  0
  6  7  1  0
  6  9  1  0
  7  8  1  0
  8 35  1  0
  8 36  1  0
  8 37  1  0
  9 18  1  0
  9 10  1  6
  9 12  1  0
 10 11  3  0
 12 24  1  0
 12 13  1  1
 12 14  1  0
 13 38  1  0
 14 15  1  0
 15 16  1  0
 15 18  1  0
 15 39  1  6
 16 17  1  0
 17 40  1  0
 17 41  1  0
 17 42  1  0
 18 19  1  6
 18 20  1  0
 19 43  1  0
 19 44  1  0
 19 45  1  0
 20 21  1  0
 20 23  1  1
 21 22  1  0
 21 46  1  0
 21 47  1  0
 22 48  1  0
 22 49  1  0
 23 24  1  0
 24 25  2  3
 25 26  1  0
 25 50  1  0
 26 27  2  0
 26 28  1  0
 28 51  1  0
M  END
>  <i_m_ct_stereo_status>  (324) 
1

>  <s_m_source_file>  (324) 
/var/tmp/pbs.5076255.sched01/tmpz7l6rxva/92z_h6r8yo.sdf

>  <i_m_source_file_index>  (324) 
40

>  <i_lp_mmshare_version>  (324) 
48012

>  <i_f3d_flags>  (324) 
0

>  <s_epik_input>  (324) 
W0NIM11bQ0gyXUMoW0NIMl1bQ0gyXTEpPUMoW0NAXTEyMylbQ0hdPUMoT1tDSDNdKVtDQF00KEMjTilbQ0BAXShbT0hdKShPW0NAQEhdKE9bQ0gzXSlbQ0BdMjRbQ0gzXSkvQyhPMyk9W0NIXVxDKD1PKVtPSF0=

>  <s_epik_cmdline>  (324) 
J2VwaWtfcHl0aG9uJywgJy1waHQnLCAnMi4wJywgJy1waCcsICc3LjAnLCAnLXRuJywgJzgnLCAnLW1hJywgJzIwMCcsICctaW1hZScsICc8aW5maWxlLm1hZT4nLCAnLW9tYWUnLCAnPG91dGZpbGUubWFlPic=

>  <r_epik_Ionization_Penalty>  (324) 
1.28077

>  <r_epik_Ionization_Penalty_Charging>  (324) 
0

>  <r_epik_Ionization_Penalty_Neutral>  (324) 
1.28077

>  <r_epik_State_Penalty>  (324) 
1.0493

>  <r_epik_Charging_Adjusted_Penalty>  (324) 
1.0493

>  <i_epik_Tot_Q>  (324) 
0

>  <i_epik_Tot_abs_Q>  (324) 
0

>  <s_epik_Chemistry_Notes>  (324) 
This compound contains an acetal/aminal-like group ( X-CH(R)-Y where X, Y are N, S, or O) that may be acid/base labile, releasing an aldehyde.

>  <s_lp_Force_Field>  (324) 
OPLS3e

>  <r_lp_Energy>  (324) 
21.9064

>  <b_lp_Chiralities_Consistent>  (324) 
1

>  <s_lp_Variant>  (324) 
83:0-5

>  <s_i_glide_gridfile>  (324) 
pfpi4k_grid

>  <i_i_glide_lignum>  (324) 
40

>  <i_i_glide_rotatable_bonds>  (324) 
7

>  <r_i_docking_score>  (324) 
-2.87334

>  <r_i_glide_ligand_efficiency>  (324) 
-0.102619

>  <r_i_glide_ligand_efficiency_sa>  (324) 
-0.311612

>  <r_i_glide_ligand_efficiency_ln>  (324) 
-0.66325

>  <r_i_glide_gscore>  (324) 
-2.87334

>  <r_i_glide_lipo>  (324) 
-0.262868

>  <r_i_glide_hbond>  (324) 
-0.0516615

>  <r_i_glide_metal>  (324) 
-0

>  <r_i_glide_rewards>  (324) 
-1.47555

>  <r_i_glide_evdw>  (324) 
-16.986

>  <r_i_glide_ecoul>  (324) 
-2.26244

>  <r_i_glide_erotb>  (324) 
0.128561

>  <r_i_glide_esite>  (324) 
-0.0231563

>  <r_i_glide_emodel>  (324) 
-27.0075

>  <r_i_glide_energy>  (324) 
-19.2484

>  <r_i_glide_einternal>  (324) 
2.45898

>  <r_i_glide_intrahb_reward>  (324) 
-0.5

>  <i_i_glide_confnum>  (324) 
1

>  <i_i_glide_posenum>  (324) 
13

>  <r_i_glide_eff_state_penalty>  (324) 
0

>  <ligand_id>  (324) 
83

>  <original_smiles>  (324) 
CCC1=C2C=C(OC)C3(C#N)C4(O)OC(OC)C3(C)C2(CC1)OC4=CC(=O)O

>  <smiles>  (324) 
[H]OC(=O)C([H])=C1OC23C(=C(C([H])([H])C([H])([H])[H])C([H])([H])C2([H])[H])C([H])=C(OC([H])([H])[H])C2(C#N)C1(O[H])OC([H])(OC([H])([H])[H])C23C([H])([H])[H]

$$$$
83:4:2
     RDKit          3D

 51 54  0  0  1  0  0  0  0  0999 V2000
    3.8239   -8.3583    1.0592 C   0  0  0  0  0  0  0  0  0  0  0  0
    2.5455   -7.4949    1.2493 C   0  0  0  0  0  0  0  0  0  0  0  0
    2.5868   -6.1100    0.5812 C   0  0  0  0  0  0  0  0  0  0  0  0
    3.4768   -5.1248    0.7570 C   0  0  0  0  0  0  0  0  0  0  0  0
    4.7026   -5.1719    1.5061 C   0  0  0  0  0  0  0  0  0  0  0  0
    5.5416   -4.1275    1.4011 C   0  0  0  0  0  0  0  0  0  0  0  0
    6.8181   -4.1057    1.9060 O   0  0  0  0  0  0  0  0  0  0  0  0
    7.4018   -5.3282    2.3292 C   0  0  0  0  0  0  0  0  0  0  0  0
    5.2476   -2.8711    0.5488 C   0  0  2  0  0  0  0  0  0  0  0  0
    6.5230   -2.3344    0.0541 C   0  0  0  0  0  0  0  0  0  0  0  0
    7.5281   -1.9011   -0.3166 N   0  0  0  0  0  0  0  0  0  0  0  0
    4.4868   -1.7380    1.2812 C   0  0  1  0  0  0  0  0  0  0  0  0
    5.3797   -1.0601    2.1210 O   0  0  0  0  0  0  0  0  0  0  0  0
    4.0399   -0.9217    0.2439 O   0  0  0  0  0  0  0  0  0  0  0  0
    3.8355   -1.6685   -0.9231 C   0  0  1  0  0  0  0  0  0  0  0  0
    4.6615   -1.1978   -1.9512 O   0  0  0  0  0  0  0  0  0  0  0  0
    3.9366   -0.6495   -3.0390 C   0  0  0  0  0  0  0  0  0  0  0  0
    4.2354   -3.1126   -0.5676 C   0  0  1  0  0  0  0  0  0  0  0  0
    4.8097   -3.8727   -1.8033 C   0  0  0  0  0  0  0  0  0  0  0  0
    3.0263   -3.8235    0.1259 C   0  0  1  0  0  0  0  0  0  0  0  0
    1.8383   -4.1984   -0.7820 C   0  0  0  0  0  0  0  0  0  0  0  0
    1.4157   -5.6012   -0.2306 C   0  0  0  0  0  0  0  0  0  0  0  0
    2.4446   -3.0499    1.1851 O   0  0  0  0  0  0  0  0  0  0  0  0
    3.2347   -2.2714    1.9857 C   0  0  0  0  0  0  0  0  0  0  0  0
    2.6875   -2.0813    3.2173 C   0  0  0  0  0  0  0  0  0  0  0  0
    3.1045   -1.2741    4.3381 C   0  0  0  0  0  0  0  0  0  0  0  0
    4.0590   -0.5051    4.3917 O   0  0  0  0  0  0  0  0  0  0  0  0
    2.2666   -1.4127    5.3916 O   0  0  0  0  0  0  0  0  0  0  0  0
    3.6400   -9.3921    1.3593 H   0  0  0  0  0  0  0  0  0  0  0  0
    4.6717   -8.0203    1.6650 H   0  0  0  0  0  0  0  0  0  0  0  0
    4.1731   -8.3660    0.0250 H   0  0  0  0  0  0  0  0  0  0  0  0
    1.6904   -8.0253    0.8502 H   0  0  0  0  0  0  0  0  0  0  0  0
    2.2505   -7.4070    2.2957 H   0  0  0  0  0  0  0  0  0  0  0  0
    4.9333   -6.0086    2.1521 H   0  0  0  0  0  0  0  0  0  0  0  0
    8.3411   -5.0737    2.8089 H   0  0  0  0  0  0  0  0  0  0  0  0
    7.6365   -5.9469    1.4649 H   0  0  0  0  0  0  0  0  0  0  0  0
    6.8367   -5.8957    3.0676 H   0  0  0  0  0  0  0  0  0  0  0  0
    4.8925   -0.5990    2.7939 H   0  0  0  0  0  0  0  0  0  0  0  0
    2.7736   -1.5995   -1.1629 H   0  0  0  0  0  0  0  0  0  0  0  0
    4.6044   -0.2971   -3.8270 H   0  0  0  0  0  0  0  0  0  0  0  0
    3.3460    0.1924   -2.7135 H   0  0  0  0  0  0  0  0  0  0  0  0
    3.2656   -1.3982   -3.4616 H   0  0  0  0  0  0  0  0  0  0  0  0
    4.1217   -3.8567   -2.6485 H   0  0  0  0  0  0  0  0  0  0  0  0
    5.0121   -4.9166   -1.5553 H   0  0  0  0  0  0  0  0  0  0  0  0
    5.7472   -3.4346   -2.1514 H   0  0  0  0  0  0  0  0  0  0  0  0
    1.0474   -3.4457   -0.8997 H   0  0  0  0  0  0  0  0  0  0  0  0
    2.1717   -4.2380   -1.8147 H   0  0  0  0  0  0  0  0  0  0  0  0
    1.1562   -6.2448   -1.0638 H   0  0  0  0  0  0  0  0  0  0  0  0
    0.6066   -5.6169    0.4997 H   0  0  0  0  0  0  0  0  0  0  0  0
    1.7625   -2.6174    3.3365 H   0  0  0  0  0  0  0  0  0  0  0  0
    2.5460   -0.8140    6.0707 H   0  0  0  0  0  0  0  0  0  0  0  0
  1  2  1  0
  1 29  1  0
  1 30  1  0
  1 31  1  0
  2  3  1  0
  2 32  1  0
  2 33  1  0
  3 22  1  0
  3  4  2  0
  4 20  1  0
  4  5  1  0
  5  6  2  0
  5 34  1  0
  6  7  1  0
  6  9  1  0
  7  8  1  0
  8 35  1  0
  8 36  1  0
  8 37  1  0
  9 18  1  0
  9 10  1  6
  9 12  1  0
 10 11  3  0
 12 24  1  0
 12 13  1  1
 12 14  1  0
 13 38  1  0
 14 15  1  0
 15 16  1  0
 15 18  1  0
 15 39  1  6
 16 17  1  0
 17 40  1  0
 17 41  1  0
 17 42  1  0
 18 19  1  6
 18 20  1  0
 19 43  1  0
 19 44  1  0
 19 45  1  0
 20 21  1  0
 20 23  1  1
 21 22  1  0
 21 46  1  0
 21 47  1  0
 22 48  1  0
 22 49  1  0
 23 24  1  0
 24 25  2  3
 25 26  1  0
 25 50  1  0
 26 27  2  0
 26 28  1  0
 28 51  1  0
M  END
>  <i_m_ct_stereo_status>  (325) 
1

>  <s_m_source_file>  (325) 
/var/tmp/pbs.5076255.sched01/tmpz7l6rxva/92z_h6r8yo.sdf

>  <i_m_source_file_index>  (325) 
40

>  <i_lp_mmshare_version>  (325) 
48012

>  <i_f3d_flags>  (325) 
0

>  <s_epik_input>  (325) 
W0NIM11bQ0gyXUMoW0NIMl1bQ0gyXTEpPUMoW0NAXTEyMylbQ0hdPUMoT1tDSDNdKVtDQF00KEMjTilbQ0BAXShbT0hdKShPW0NAQEhdKE9bQ0gzXSlbQ0BdMjRbQ0gzXSkvQyhPMyk9W0NIXVxDKD1PKVtPSF0=

>  <s_epik_cmdline>  (325) 
J2VwaWtfcHl0aG9uJywgJy1waHQnLCAnMi4wJywgJy1waCcsICc3LjAnLCAnLXRuJywgJzgnLCAnLW1hJywgJzIwMCcsICctaW1hZScsICc8aW5maWxlLm1hZT4nLCAnLW9tYWUnLCAnPG91dGZpbGUubWFlPic=

>  <r_epik_Ionization_Penalty>  (325) 
1.28077

>  <r_epik_Ionization_Penalty_Charging>  (325) 
0

>  <r_epik_Ionization_Penalty_Neutral>  (325) 
1.28077

>  <r_epik_State_Penalty>  (325) 
1.0493

>  <r_epik_Charging_Adjusted_Penalty>  (325) 
1.0493

>  <i_epik_Tot_Q>  (325) 
0

>  <i_epik_Tot_abs_Q>  (325) 
0

>  <s_epik_Chemistry_Notes>  (325) 
This compound contains an acetal/aminal-like group ( X-CH(R)-Y where X, Y are N, S, or O) that may be acid/base labile, releasing an aldehyde.

>  <s_lp_Force_Field>  (325) 
OPLS3e

>  <r_lp_Energy>  (325) 
21.9064

>  <b_lp_Chiralities_Consistent>  (325) 
1

>  <s_lp_Variant>  (325) 
83:0-5

>  <s_i_glide_gridfile>  (325) 
pfpi4k_grid

>  <i_i_glide_lignum>  (325) 
40

>  <i_i_glide_rotatable_bonds>  (325) 
7

>  <r_i_docking_score>  (325) 
-2.85934

>  <r_i_glide_ligand_efficiency>  (325) 
-0.102119

>  <r_i_glide_ligand_efficiency_sa>  (325) 
-0.310094

>  <r_i_glide_ligand_efficiency_ln>  (325) 
-0.66002

>  <r_i_glide_gscore>  (325) 
-2.85934

>  <r_i_glide_lipo>  (325) 
-0.319423

>  <r_i_glide_hbond>  (325) 
-0.14926

>  <r_i_glide_metal>  (325) 
-0

>  <r_i_glide_rewards>  (325) 
-1.29875

>  <r_i_glide_evdw>  (325) 
-16.9778

>  <r_i_glide_ecoul>  (325) 
-2.04967

>  <r_i_glide_erotb>  (325) 
0.128561

>  <r_i_glide_esite>  (325) 
-0.0641276

>  <r_i_glide_emodel>  (325) 
-23.2589

>  <r_i_glide_energy>  (325) 
-19.0275

>  <r_i_glide_einternal>  (325) 
8.601

>  <r_i_glide_intrahb_reward>  (325) 
-0.5

>  <i_i_glide_confnum>  (325) 
3

>  <i_i_glide_posenum>  (325) 
31

>  <r_i_glide_eff_state_penalty>  (325) 
0

>  <ligand_id>  (325) 
83

>  <original_smiles>  (325) 
CCC1=C2C=C(OC)C3(C#N)C4(O)OC(OC)C3(C)C2(CC1)OC4=CC(=O)O

>  <smiles>  (325) 
[H]OC(=O)C([H])=C1OC23C(=C(C([H])([H])C([H])([H])[H])C([H])([H])C2([H])[H])C([H])=C(OC([H])([H])[H])C2(C#N)C1(O[H])OC([H])(OC([H])([H])[H])C23C([H])([H])[H]

$$$$
83:5:0
     RDKit          3D

 51 54  0  0  1  0  0  0  0  0999 V2000
    8.8972   -5.7432    0.3364 C   0  0  0  0  0  0  0  0  0  0  0  0
    8.8230   -4.2568   -0.0391 C   0  0  0  0  0  0  0  0  0  0  0  0
    7.5636   -3.5133    0.3836 C   0  0  0  0  0  0  0  0  0  0  0  0
    6.3198   -3.9545    0.6455 C   0  0  0  0  0  0  0  0  0  0  0  0
    5.8266   -5.3281    0.6458 C   0  0  0  0  0  0  0  0  0  0  0  0
    4.5410   -5.5669    1.0054 C   0  0  0  0  0  0  0  0  0  0  0  0
    3.9531   -6.8100    1.0425 O   0  0  0  0  0  0  0  0  0  0  0  0
    4.5956   -7.8676    0.3558 C   0  0  0  0  0  0  0  0  0  0  0  0
    3.5889   -4.4636    1.4775 C   0  0  2  0  0  0  0  0  0  0  0  0
    2.6375   -5.0148    2.4762 C   0  0  0  0  0  0  0  0  0  0  0  0
    1.8858   -5.4367    3.2464 N   0  0  0  0  0  0  0  0  0  0  0  0
    2.8075   -3.8028    0.3284 C   0  0  1  0  0  0  0  0  0  0  0  0
    1.8646   -4.7122   -0.2011 O   0  0  0  0  0  0  0  0  0  0  0  0
    2.2463   -2.6752    0.9306 O   0  0  0  0  0  0  0  0  0  0  0  0
    3.1123   -2.1848    1.9348 C   0  0  1  0  0  0  0  0  0  0  0  0
    2.4681   -2.1831    3.1719 O   0  0  0  0  0  0  0  0  0  0  0  0
    1.4151   -1.2385    3.2675 C   0  0  0  0  0  0  0  0  0  0  0  0
    4.2994   -3.1844    1.9801 C   0  0  1  0  0  0  0  0  0  0  0  0
    4.9134   -3.3243    3.4073 C   0  0  0  0  0  0  0  0  0  0  0  0
    5.3645   -2.8022    0.8974 C   0  0  1  0  0  0  0  0  0  0  0  0
    6.3042   -1.6067    1.1697 C   0  0  0  0  0  0  0  0  0  0  0  0
    7.6192   -1.9982    0.4583 C   0  0  0  0  0  0  0  0  0  0  0  0
    4.7487   -2.4765   -0.3500 O   0  0  0  0  0  0  0  0  0  0  0  0
    3.7318   -3.2969   -0.7879 C   0  0  0  0  0  0  0  0  0  0  0  0
    3.5815   -3.5683   -2.1022 C   0  0  0  0  0  0  0  0  0  0  0  0
    4.5039   -3.1703   -3.1541 C   0  0  0  0  0  0  0  0  0  0  0  0
    4.4942   -3.6283   -4.2883 O   0  0  0  0  0  0  0  0  0  0  0  0
    5.4175   -2.2594   -2.7268 O   0  0  0  0  0  0  0  0  0  0  0  0
    9.8604   -6.1913    0.1241 H   0  0  0  0  0  0  0  0  0  0  0  0
    8.2009   -6.3451   -0.2263 H   0  0  0  0  0  0  0  0  0  0  0  0
    8.7183   -5.8808    1.3993 H   0  0  0  0  0  0  0  0  0  0  0  0
    9.6536   -3.7207    0.4082 H   0  0  0  0  0  0  0  0  0  0  0  0
    8.9458   -4.1472   -1.1146 H   0  0  0  0  0  0  0  0  0  0  0  0
    6.4682   -6.1359    0.3700 H   0  0  0  0  0  0  0  0  0  0  0  0
    4.0213   -8.7832    0.4799 H   0  0  0  0  0  0  0  0  0  0  0  0
    5.6018   -8.0861    0.7064 H   0  0  0  0  0  0  0  0  0  0  0  0
    4.6092   -7.6346   -0.7068 H   0  0  0  0  0  0  0  0  0  0  0  0
    2.2026   -5.0697   -1.0175 H   0  0  0  0  0  0  0  0  0  0  0  0
    3.4497   -1.1711    1.7040 H   0  0  0  0  0  0  0  0  0  0  0  0
    0.9781   -1.2890    4.2636 H   0  0  0  0  0  0  0  0  0  0  0  0
    0.6259   -1.4478    2.5463 H   0  0  0  0  0  0  0  0  0  0  0  0
    1.7739   -0.2209    3.1140 H   0  0  0  0  0  0  0  0  0  0  0  0
    5.2395   -2.3655    3.8107 H   0  0  0  0  0  0  0  0  0  0  0  0
    5.7747   -3.9950    3.3985 H   0  0  0  0  0  0  0  0  0  0  0  0
    4.2043   -3.7428    4.1233 H   0  0  0  0  0  0  0  0  0  0  0  0
    5.9050   -0.6450    0.8226 H   0  0  0  0  0  0  0  0  0  0  0  0
    6.5184   -1.4905    2.2313 H   0  0  0  0  0  0  0  0  0  0  0  0
    8.5108   -1.6150    0.9572 H   0  0  0  0  0  0  0  0  0  0  0  0
    7.6608   -1.5926   -0.5515 H   0  0  0  0  0  0  0  0  0  0  0  0
    2.7515   -4.1520   -2.4219 H   0  0  0  0  0  0  0  0  0  0  0  0
    5.2672   -2.0865   -1.8009 H   0  0  0  0  0  0  0  0  0  0  0  0
  1  2  1  0
  1 29  1  0
  1 30  1  0
  1 31  1  0
  2  3  1  0
  2 32  1  0
  2 33  1  0
  3 22  1  0
  3  4  2  0
  4 20  1  0
  4  5  1  0
  5  6  2  0
  5 34  1  0
  6  7  1  0
  6  9  1  0
  7  8  1  0
  8 35  1  0
  8 36  1  0
  8 37  1  0
  9 18  1  0
  9 10  1  1
  9 12  1  0
 10 11  3  0
 12 24  1  0
 12 13  1  6
 12 14  1  0
 13 38  1  0
 14 15  1  0
 15 16  1  0
 15 18  1  0
 15 39  1  6
 16 17  1  0
 17 40  1  0
 17 41  1  0
 17 42  1  0
 18 19  1  1
 18 20  1  0
 19 43  1  0
 19 44  1  0
 19 45  1  0
 20 21  1  0
 20 23  1  6
 21 22  1  0
 21 46  1  0
 21 47  1  0
 22 48  1  0
 22 49  1  0
 23 24  1  0
 24 25  2  3
 25 26  1  0
 25 50  1  0
 26 27  2  0
 26 28  1  0
 28 51  1  0
M  END
>  <i_m_ct_stereo_status>  (326) 
1

>  <s_m_source_file>  (326) 
/var/tmp/pbs.5076255.sched01/tmpz7l6rxva/92z_h6r8yo.sdf

>  <i_m_source_file_index>  (326) 
41

>  <i_lp_mmshare_version>  (326) 
48012

>  <i_f3d_flags>  (326) 
0

>  <s_epik_input>  (326) 
W0NIM11bQ0gyXUMoW0NIMl1bQ0gyXTEpPUMoW0NAXTEyMylbQ0hdPUMoT1tDSDNdKVtDQF00KEMjTilbQ0BAXShbT0hdKShPW0NAQEhdKE9bQ0gzXSlbQ0BdMjRbQ0gzXSkvQyhPMyk9W0NIXVxDKD1PKVtPSF0=

>  <s_epik_cmdline>  (326) 
J2VwaWtfcHl0aG9uJywgJy1waHQnLCAnMi4wJywgJy1waCcsICc3LjAnLCAnLXRuJywgJzgnLCAnLW1hJywgJzIwMCcsICctaW1hZScsICc8aW5maWxlLm1hZT4nLCAnLW9tYWUnLCAnPG91dGZpbGUubWFlPic=

>  <r_epik_Ionization_Penalty>  (326) 
1.28077

>  <r_epik_Ionization_Penalty_Charging>  (326) 
0

>  <r_epik_Ionization_Penalty_Neutral>  (326) 
1.28077

>  <r_epik_State_Penalty>  (326) 
1.0493

>  <r_epik_Charging_Adjusted_Penalty>  (326) 
1.0493

>  <i_epik_Tot_Q>  (326) 
0

>  <i_epik_Tot_abs_Q>  (326) 
0

>  <s_epik_Chemistry_Notes>  (326) 
This compound contains an acetal/aminal-like group ( X-CH(R)-Y where X, Y are N, S, or O) that may be acid/base labile, releasing an aldehyde.

>  <s_lp_Force_Field>  (326) 
OPLS3e

>  <r_lp_Energy>  (326) 
16.9156

>  <b_lp_Chiralities_Consistent>  (326) 
1

>  <s_lp_Variant>  (326) 
83:0-6

>  <s_i_glide_gridfile>  (326) 
pfpi4k_grid

>  <i_i_glide_lignum>  (326) 
41

>  <i_i_glide_rotatable_bonds>  (326) 
7

>  <r_i_docking_score>  (326) 
-4.14268

>  <r_i_glide_ligand_efficiency>  (326) 
-0.147953

>  <r_i_glide_ligand_efficiency_sa>  (326) 
-0.449272

>  <r_i_glide_ligand_efficiency_ln>  (326) 
-0.956252

>  <r_i_glide_gscore>  (326) 
-4.14268

>  <r_i_glide_lipo>  (326) 
-0.811982

>  <r_i_glide_hbond>  (326) 
-0.0730332

>  <r_i_glide_metal>  (326) 
-0

>  <r_i_glide_rewards>  (326) 
-1.43419

>  <r_i_glide_evdw>  (326) 
-20.1753

>  <r_i_glide_ecoul>  (326) 
-6.02222

>  <r_i_glide_erotb>  (326) 
0.128561

>  <r_i_glide_esite>  (326) 
-0.0399354

>  <r_i_glide_emodel>  (326) 
-34.0304

>  <r_i_glide_energy>  (326) 
-26.1975

>  <r_i_glide_einternal>  (326) 
7.8464

>  <r_i_glide_intrahb_reward>  (326) 
-0.5

>  <i_i_glide_confnum>  (326) 
2

>  <i_i_glide_posenum>  (326) 
11

>  <r_i_glide_eff_state_penalty>  (326) 
0

>  <ligand_id>  (326) 
83

>  <original_smiles>  (326) 
CCC1=C2C=C(OC)C3(C#N)C4(O)OC(OC)C3(C)C2(CC1)OC4=CC(=O)O

>  <smiles>  (326) 
[H]OC(=O)C([H])=C1OC23C(=C(C([H])([H])C([H])([H])[H])C([H])([H])C2([H])[H])C([H])=C(OC([H])([H])[H])C2(C#N)C1(O[H])OC([H])(OC([H])([H])[H])C23C([H])([H])[H]

$$$$
83:5:1
     RDKit          3D

 51 54  0  0  1  0  0  0  0  0999 V2000
   10.0658   -2.6415    0.8597 C   0  0  0  0  0  0  0  0  0  0  0  0
    8.8269   -3.3736    0.2795 C   0  0  0  0  0  0  0  0  0  0  0  0
    7.4897   -2.7707    0.6917 C   0  0  0  0  0  0  0  0  0  0  0  0
    6.3230   -3.3823    0.9412 C   0  0  0  0  0  0  0  0  0  0  0  0
    6.0579   -4.8068    0.9564 C   0  0  0  0  0  0  0  0  0  0  0  0
    4.8218   -5.2228    1.3266 C   0  0  0  0  0  0  0  0  0  0  0  0
    4.3874   -6.5254    1.4038 O   0  0  0  0  0  0  0  0  0  0  0  0
    5.0935   -7.4907    0.6637 C   0  0  0  0  0  0  0  0  0  0  0  0
    3.7230   -4.2630    1.7894 C   0  0  2  0  0  0  0  0  0  0  0  0
    2.8409   -4.9055    2.7819 C   0  0  0  0  0  0  0  0  0  0  0  0
    2.1393   -5.4187    3.5546 N   0  0  0  0  0  0  0  0  0  0  0  0
    2.8612   -3.7522    0.6309 C   0  0  1  0  0  0  0  0  0  0  0  0
    2.0521   -4.8149    0.1488 O   0  0  0  0  0  0  0  0  0  0  0  0
    2.1506   -2.6944    1.2007 O   0  0  0  0  0  0  0  0  0  0  0  0
    2.9135   -2.0698    2.2020 C   0  0  1  0  0  0  0  0  0  0  0  0
    2.2605   -2.1319    3.4311 O   0  0  0  0  0  0  0  0  0  0  0  0
    1.1140   -1.2995    3.5334 C   0  0  0  0  0  0  0  0  0  0  0  0
    4.2241   -2.8870    2.2702 C   0  0  1  0  0  0  0  0  0  0  0  0
    4.8358   -2.9119    3.6988 C   0  0  0  0  0  0  0  0  0  0  0  0
    5.2111   -2.3800    1.1805 C   0  0  1  0  0  0  0  0  0  0  0  0
    5.9631   -1.0605    1.4352 C   0  0  0  0  0  0  0  0  0  0  0  0
    7.3060   -1.2794    0.7366 C   0  0  0  0  0  0  0  0  0  0  0  0
    4.5732   -2.1689   -0.0806 O   0  0  0  0  0  0  0  0  0  0  0  0
    3.6973   -3.1385   -0.4965 C   0  0  0  0  0  0  0  0  0  0  0  0
    3.5667   -3.4382   -1.8066 C   0  0  0  0  0  0  0  0  0  0  0  0
    4.4009   -2.9317   -2.8774 C   0  0  0  0  0  0  0  0  0  0  0  0
    4.2286   -3.1739   -4.0622 O   0  0  0  0  0  0  0  0  0  0  0  0
    5.4569   -2.2116   -2.4034 O   0  0  0  0  0  0  0  0  0  0  0  0
   10.9820   -3.0115    0.4235 H   0  0  0  0  0  0  0  0  0  0  0  0
   10.2234   -2.7391    1.9341 H   0  0  0  0  0  0  0  0  0  0  0  0
   10.0255   -1.5863    0.5981 H   0  0  0  0  0  0  0  0  0  0  0  0
    8.8611   -3.3205   -0.8150 H   0  0  0  0  0  0  0  0  0  0  0  0
    8.8510   -4.4359    0.5338 H   0  0  0  0  0  0  0  0  0  0  0  0
    6.8368   -5.4913    0.6565 H   0  0  0  0  0  0  0  0  0  0  0  0
    4.6412   -8.4737    0.8051 H   0  0  0  0  0  0  0  0  0  0  0  0
    6.1501   -7.5578    0.9368 H   0  0  0  0  0  0  0  0  0  0  0  0
    4.9994   -7.2129   -0.3850 H   0  0  0  0  0  0  0  0  0  0  0  0
    2.3283   -5.0458   -0.7306 H   0  0  0  0  0  0  0  0  0  0  0  0
    3.1044   -1.0202    1.9525 H   0  0  0  0  0  0  0  0  0  0  0  0
    0.6796   -1.3921    4.5294 H   0  0  0  0  0  0  0  0  0  0  0  0
    0.3450   -1.5868    2.8170 H   0  0  0  0  0  0  0  0  0  0  0  0
    1.3597   -0.2468    3.3806 H   0  0  0  0  0  0  0  0  0  0  0  0
    5.0151   -1.9039    4.0804 H   0  0  0  0  0  0  0  0  0  0  0  0
    5.7815   -3.4570    3.7080 H   0  0  0  0  0  0  0  0  0  0  0  0
    4.1825   -3.4063    4.4199 H   0  0  0  0  0  0  0  0  0  0  0  0
    5.4255   -0.1796    1.0601 H   0  0  0  0  0  0  0  0  0  0  0  0
    6.1521   -0.8906    2.4957 H   0  0  0  0  0  0  0  0  0  0  0  0
    8.1174   -0.7910    1.2639 H   0  0  0  0  0  0  0  0  0  0  0  0
    7.2420   -0.9317   -0.2879 H   0  0  0  0  0  0  0  0  0  0  0  0
    2.8060   -4.1335   -2.0943 H   0  0  0  0  0  0  0  0  0  0  0  0
    5.3587   -2.0885   -1.4662 H   0  0  0  0  0  0  0  0  0  0  0  0
  1  2  1  0
  1 29  1  0
  1 30  1  0
  1 31  1  0
  2  3  1  0
  2 32  1  0
  2 33  1  0
  3 22  1  0
  3  4  2  0
  4 20  1  0
  4  5  1  0
  5  6  2  0
  5 34  1  0
  6  7  1  0
  6  9  1  0
  7  8  1  0
  8 35  1  0
  8 36  1  0
  8 37  1  0
  9 18  1  0
  9 10  1  1
  9 12  1  0
 10 11  3  0
 12 24  1  0
 12 13  1  6
 12 14  1  0
 13 38  1  0
 14 15  1  0
 15 16  1  0
 15 18  1  0
 15 39  1  6
 16 17  1  0
 17 40  1  0
 17 41  1  0
 17 42  1  0
 18 19  1  1
 18 20  1  0
 19 43  1  0
 19 44  1  0
 19 45  1  0
 20 21  1  0
 20 23  1  6
 21 22  1  0
 21 46  1  0
 21 47  1  0
 22 48  1  0
 22 49  1  0
 23 24  1  0
 24 25  2  3
 25 26  1  0
 25 50  1  0
 26 27  2  0
 26 28  1  0
 28 51  1  0
M  END
>  <i_m_ct_stereo_status>  (327) 
1

>  <s_m_source_file>  (327) 
/var/tmp/pbs.5076255.sched01/tmpz7l6rxva/92z_h6r8yo.sdf

>  <i_m_source_file_index>  (327) 
41

>  <i_lp_mmshare_version>  (327) 
48012

>  <i_f3d_flags>  (327) 
0

>  <s_epik_input>  (327) 
W0NIM11bQ0gyXUMoW0NIMl1bQ0gyXTEpPUMoW0NAXTEyMylbQ0hdPUMoT1tDSDNdKVtDQF00KEMjTilbQ0BAXShbT0hdKShPW0NAQEhdKE9bQ0gzXSlbQ0BdMjRbQ0gzXSkvQyhPMyk9W0NIXVxDKD1PKVtPSF0=

>  <s_epik_cmdline>  (327) 
J2VwaWtfcHl0aG9uJywgJy1waHQnLCAnMi4wJywgJy1waCcsICc3LjAnLCAnLXRuJywgJzgnLCAnLW1hJywgJzIwMCcsICctaW1hZScsICc8aW5maWxlLm1hZT4nLCAnLW9tYWUnLCAnPG91dGZpbGUubWFlPic=

>  <r_epik_Ionization_Penalty>  (327) 
1.28077

>  <r_epik_Ionization_Penalty_Charging>  (327) 
0

>  <r_epik_Ionization_Penalty_Neutral>  (327) 
1.28077

>  <r_epik_State_Penalty>  (327) 
1.0493

>  <r_epik_Charging_Adjusted_Penalty>  (327) 
1.0493

>  <i_epik_Tot_Q>  (327) 
0

>  <i_epik_Tot_abs_Q>  (327) 
0

>  <s_epik_Chemistry_Notes>  (327) 
This compound contains an acetal/aminal-like group ( X-CH(R)-Y where X, Y are N, S, or O) that may be acid/base labile, releasing an aldehyde.

>  <s_lp_Force_Field>  (327) 
OPLS3e

>  <r_lp_Energy>  (327) 
16.9156

>  <b_lp_Chiralities_Consistent>  (327) 
1

>  <s_lp_Variant>  (327) 
83:0-6

>  <s_i_glide_gridfile>  (327) 
pfpi4k_grid

>  <i_i_glide_lignum>  (327) 
41

>  <i_i_glide_rotatable_bonds>  (327) 
7

>  <r_i_docking_score>  (327) 
-3.82185

>  <r_i_glide_ligand_efficiency>  (327) 
-0.136495

>  <r_i_glide_ligand_efficiency_sa>  (327) 
-0.414478

>  <r_i_glide_ligand_efficiency_ln>  (327) 
-0.882195

>  <r_i_glide_gscore>  (327) 
-3.82185

>  <r_i_glide_lipo>  (327) 
-0.787804

>  <r_i_glide_hbond>  (327) 
-0.128442

>  <r_i_glide_metal>  (327) 
-0

>  <r_i_glide_rewards>  (327) 
-1.35913

>  <r_i_glide_evdw>  (327) 
-17.1258

>  <r_i_glide_ecoul>  (327) 
-5.26455

>  <r_i_glide_erotb>  (327) 
0.128561

>  <r_i_glide_esite>  (327) 
-0.0290587

>  <r_i_glide_emodel>  (327) 
-29.6361

>  <r_i_glide_energy>  (327) 
-22.3903

>  <r_i_glide_einternal>  (327) 
7.34363

>  <r_i_glide_intrahb_reward>  (327) 
-0.5

>  <i_i_glide_confnum>  (327) 
2

>  <i_i_glide_posenum>  (327) 
26

>  <r_i_glide_eff_state_penalty>  (327) 
0

>  <ligand_id>  (327) 
83

>  <original_smiles>  (327) 
CCC1=C2C=C(OC)C3(C#N)C4(O)OC(OC)C3(C)C2(CC1)OC4=CC(=O)O

>  <smiles>  (327) 
[H]OC(=O)C([H])=C1OC23C(=C(C([H])([H])C([H])([H])[H])C([H])([H])C2([H])[H])C([H])=C(OC([H])([H])[H])C2(C#N)C1(O[H])OC([H])(OC([H])([H])[H])C23C([H])([H])[H]

$$$$
83:5:2
     RDKit          3D

 51 54  0  0  1  0  0  0  0  0999 V2000
    8.3419   -6.1933    0.7894 C   0  0  0  0  0  0  0  0  0  0  0  0
    8.9261   -4.8142    0.4816 C   0  0  0  0  0  0  0  0  0  0  0  0
    7.9604   -3.6259    0.5696 C   0  0  0  0  0  0  0  0  0  0  0  0
    6.6493   -3.5735    0.8633 C   0  0  0  0  0  0  0  0  0  0  0  0
    5.7420   -4.6483    1.2516 C   0  0  0  0  0  0  0  0  0  0  0  0
    4.4701   -4.3777    1.5819 C   0  0  0  0  0  0  0  0  0  0  0  0
    3.5479   -5.3281    1.9892 O   0  0  0  0  0  0  0  0  0  0  0  0
    3.9583   -6.6962    1.9862 C   0  0  0  0  0  0  0  0  0  0  0  0
    3.9466   -2.9474    1.6571 C   0  0  2  0  0  0  0  0  0  0  0  0
    2.8963   -2.8670    2.7005 C   0  0  0  0  0  0  0  0  0  0  0  0
    2.0778   -2.8309    3.5236 N   0  0  0  0  0  0  0  0  0  0  0  0
    3.4116   -2.4407    0.3133 C   0  0  1  0  0  0  0  0  0  0  0  0
    2.2080   -3.0562   -0.0072 O   0  0  0  0  0  0  0  0  0  0  0  0
    3.2637   -1.0691    0.4980 O   0  0  0  0  0  0  0  0  0  0  0  0
    4.2173   -0.6047    1.4054 C   0  0  1  0  0  0  0  0  0  0  0  0
    3.6050   -0.0835    2.5457 O   0  0  0  0  0  0  0  0  0  0  0  0
    2.6798    0.9596    2.2800 C   0  0  0  0  0  0  0  0  0  0  0  0
    5.0276   -1.8641    1.8028 C   0  0  1  0  0  0  0  0  0  0  0  0
    5.5872   -1.7592    3.2370 C   0  0  0  0  0  0  0  0  0  0  0  0
    6.1127   -2.1687    0.7052 C   0  0  1  0  0  0  0  0  0  0  0  0
    7.3827   -1.3038    0.6811 C   0  0  0  0  0  0  0  0  0  0  0  0
    8.5055   -2.2559    0.2217 C   0  0  0  0  0  0  0  0  0  0  0  0
    5.6112   -2.0773   -0.6284 O   0  0  0  0  0  0  0  0  0  0  0  0
    4.3795   -2.6469   -0.8543 C   0  0  0  0  0  0  0  0  0  0  0  0
    4.0663   -3.2810   -1.9985 C   0  0  0  0  0  0  0  0  0  0  0  0
    5.0345   -3.4748   -3.0589 C   0  0  0  0  0  0  0  0  0  0  0  0
    6.1716   -3.0637   -3.0692 O   0  0  0  0  0  0  0  0  0  0  0  0
    4.5179   -4.2277   -4.0748 O   0  0  0  0  0  0  0  0  0  0  0  0
    9.0179   -7.0300    0.6656 H   0  0  0  0  0  0  0  0  0  0  0  0
    7.5505   -6.4347    0.0919 H   0  0  0  0  0  0  0  0  0  0  0  0
    8.0330   -6.2410    1.8312 H   0  0  0  0  0  0  0  0  0  0  0  0
    9.7418   -4.6194    1.1779 H   0  0  0  0  0  0  0  0  0  0  0  0
    9.3380   -4.8318   -0.5311 H   0  0  0  0  0  0  0  0  0  0  0  0
    6.0192   -5.6754    1.2622 H   0  0  0  0  0  0  0  0  0  0  0  0
    3.1272   -7.3293    2.2872 H   0  0  0  0  0  0  0  0  0  0  0  0
    4.7787   -6.8947    2.6860 H   0  0  0  0  0  0  0  0  0  0  0  0
    4.2696   -7.0331    0.9920 H   0  0  0  0  0  0  0  0  0  0  0  0
    1.7246   -2.3541   -0.4346 H   0  0  0  0  0  0  0  0  0  0  0  0
    4.8277    0.1556    0.9208 H   0  0  0  0  0  0  0  0  0  0  0  0
    2.3012    1.3706    3.2173 H   0  0  0  0  0  0  0  0  0  0  0  0
    1.8217    0.5990    1.7161 H   0  0  0  0  0  0  0  0  0  0  0  0
    3.1364    1.7729    1.7184 H   0  0  0  0  0  0  0  0  0  0  0  0
    6.2106   -0.8725    3.3589 H   0  0  0  0  0  0  0  0  0  0  0  0
    6.1739   -2.6456    3.4614 H   0  0  0  0  0  0  0  0  0  0  0  0
    4.8084   -1.7087    4.0017 H   0  0  0  0  0  0  0  0  0  0  0  0
    7.2571   -0.3935    0.0827 H   0  0  0  0  0  0  0  0  0  0  0  0
    7.6153   -0.9778    1.6798 H   0  0  0  0  0  0  0  0  0  0  0  0
    9.4474   -2.0449    0.7283 H   0  0  0  0  0  0  0  0  0  0  0  0
    8.6782   -2.1902   -0.8540 H   0  0  0  0  0  0  0  0  0  0  0  0
    3.0724   -3.6946   -2.1291 H   0  0  0  0  0  0  0  0  0  0  0  0
    3.7009   -4.6278   -3.8228 H   0  0  0  0  0  0  0  0  0  0  0  0
  1  2  1  0
  1 29  1  0
  1 30  1  0
  1 31  1  0
  2  3  1  0
  2 32  1  0
  2 33  1  0
  3 22  1  0
  3  4  2  0
  4 20  1  0
  4  5  1  0
  5  6  2  0
  5 34  1  0
  6  7  1  0
  6  9  1  0
  7  8  1  0
  8 35  1  0
  8 36  1  0
  8 37  1  0
  9 18  1  0
  9 10  1  1
  9 12  1  0
 10 11  3  0
 12 24  1  0
 12 13  1  6
 12 14  1  0
 13 38  1  0
 14 15  1  0
 15 16  1  0
 15 18  1  0
 15 39  1  6
 16 17  1  0
 17 40  1  0
 17 41  1  0
 17 42  1  0
 18 19  1  1
 18 20  1  0
 19 43  1  0
 19 44  1  0
 19 45  1  0
 20 21  1  0
 20 23  1  6
 21 22  1  0
 21 46  1  0
 21 47  1  0
 22 48  1  0
 22 49  1  0
 23 24  1  0
 24 25  2  3
 25 26  1  0
 25 50  1  0
 26 27  2  0
 26 28  1  0
 28 51  1  0
M  END
>  <i_m_ct_stereo_status>  (328) 
1

>  <s_m_source_file>  (328) 
/var/tmp/pbs.5076255.sched01/tmpz7l6rxva/92z_h6r8yo.sdf

>  <i_m_source_file_index>  (328) 
41

>  <i_lp_mmshare_version>  (328) 
48012

>  <i_f3d_flags>  (328) 
0

>  <s_epik_input>  (328) 
W0NIM11bQ0gyXUMoW0NIMl1bQ0gyXTEpPUMoW0NAXTEyMylbQ0hdPUMoT1tDSDNdKVtDQF00KEMjTilbQ0BAXShbT0hdKShPW0NAQEhdKE9bQ0gzXSlbQ0BdMjRbQ0gzXSkvQyhPMyk9W0NIXVxDKD1PKVtPSF0=

>  <s_epik_cmdline>  (328) 
J2VwaWtfcHl0aG9uJywgJy1waHQnLCAnMi4wJywgJy1waCcsICc3LjAnLCAnLXRuJywgJzgnLCAnLW1hJywgJzIwMCcsICctaW1hZScsICc8aW5maWxlLm1hZT4nLCAnLW9tYWUnLCAnPG91dGZpbGUubWFlPic=

>  <r_epik_Ionization_Penalty>  (328) 
1.28077

>  <r_epik_Ionization_Penalty_Charging>  (328) 
0

>  <r_epik_Ionization_Penalty_Neutral>  (328) 
1.28077

>  <r_epik_State_Penalty>  (328) 
1.0493

>  <r_epik_Charging_Adjusted_Penalty>  (328) 
1.0493

>  <i_epik_Tot_Q>  (328) 
0

>  <i_epik_Tot_abs_Q>  (328) 
0

>  <s_epik_Chemistry_Notes>  (328) 
This compound contains an acetal/aminal-like group ( X-CH(R)-Y where X, Y are N, S, or O) that may be acid/base labile, releasing an aldehyde.

>  <s_lp_Force_Field>  (328) 
OPLS3e

>  <r_lp_Energy>  (328) 
16.9156

>  <b_lp_Chiralities_Consistent>  (328) 
1

>  <s_lp_Variant>  (328) 
83:0-6

>  <s_i_glide_gridfile>  (328) 
pfpi4k_grid

>  <i_i_glide_lignum>  (328) 
41

>  <i_i_glide_rotatable_bonds>  (328) 
7

>  <r_i_docking_score>  (328) 
-3.74535

>  <r_i_glide_ligand_efficiency>  (328) 
-0.133762

>  <r_i_glide_ligand_efficiency_sa>  (328) 
-0.406181

>  <r_i_glide_ligand_efficiency_ln>  (328) 
-0.864536

>  <r_i_glide_gscore>  (328) 
-3.74535

>  <r_i_glide_lipo>  (328) 
-0.620827

>  <r_i_glide_hbond>  (328) 
0

>  <r_i_glide_metal>  (328) 
-0

>  <r_i_glide_rewards>  (328) 
-1.12535

>  <r_i_glide_evdw>  (328) 
-20.9742

>  <r_i_glide_ecoul>  (328) 
-6.68397

>  <r_i_glide_erotb>  (328) 
0.0899924

>  <r_i_glide_esite>  (328) 
-0.0378545

>  <r_i_glide_emodel>  (328) 
-29.8284

>  <r_i_glide_energy>  (328) 
-27.6582

>  <r_i_glide_einternal>  (328) 
6.26826

>  <r_i_glide_intrahb_reward>  (328) 
-0

>  <i_i_glide_confnum>  (328) 
3

>  <i_i_glide_posenum>  (328) 
4

>  <r_i_glide_eff_state_penalty>  (328) 
0

>  <ligand_id>  (328) 
83

>  <original_smiles>  (328) 
CCC1=C2C=C(OC)C3(C#N)C4(O)OC(OC)C3(C)C2(CC1)OC4=CC(=O)O

>  <smiles>  (328) 
[H]OC(=O)C([H])=C1OC23C(=C(C([H])([H])C([H])([H])[H])C([H])([H])C2([H])[H])C([H])=C(OC([H])([H])[H])C2(C#N)C1(O[H])OC([H])(OC([H])([H])[H])C23C([H])([H])[H]

$$$$
83:6:0
     RDKit          3D

 49 52  0  0  1  0  0  0  0  0999 V2000
    1.0981  -11.0386    2.8950 C   0  0  0  0  0  0  0  0  0  0  0  0
    0.8169  -10.1223    4.0977 C   0  0  0  0  0  0  0  0  0  0  0  0
    0.8560   -8.6351    3.7607 C   0  0  0  0  0  0  0  0  0  0  0  0
    1.4920   -7.6342    4.3967 C   0  0  0  0  0  0  0  0  0  0  0  0
    2.3708   -7.7272    5.5406 C   0  0  0  0  0  0  0  0  0  0  0  0
    3.0068   -6.6088    5.9859 C   0  0  0  0  0  0  0  0  0  0  0  0
    3.8932   -6.5707    7.0339 O   0  0  0  0  0  0  0  0  0  0  0  0
    4.1036   -7.7632    7.7789 C   0  0  0  0  0  0  0  0  0  0  0  0
    2.9199   -5.2461    5.2495 C   0  0  2  0  0  0  0  0  0  0  0  0
    4.2339   -4.5548    5.3362 C   0  0  0  0  0  0  0  0  0  0  0  0
    5.2645   -4.0259    5.3997 N   0  0  0  0  0  0  0  0  0  0  0  0
    1.7543   -4.3596    5.7297 C   0  0  1  0  0  0  0  0  0  0  0  0
    2.0476   -3.8298    6.9127 O   0  0  0  0  0  0  0  0  0  0  0  0
    1.7019   -3.3509    4.7302 O   0  0  0  0  0  0  0  0  0  0  0  0
    2.0229   -3.9043    3.4848 C   0  0  1  0  0  0  0  0  0  0  0  0
    3.0757   -3.2175    2.8722 O   0  0  0  0  0  0  0  0  0  0  0  0
    2.7329   -1.9181    2.4080 C   0  0  0  0  0  0  0  0  0  0  0  0
    2.4490   -5.3685    3.7874 C   0  0  1  0  0  0  0  0  0  0  0  0
    3.5523   -5.8608    2.8108 C   0  0  0  0  0  0  0  0  0  0  0  0
    1.1766   -6.2821    3.7908 C   0  0  1  0  0  0  0  0  0  0  0  0
    0.5415   -6.6704    2.4340 C   0  0  0  0  0  0  0  0  0  0  0  0
    0.0356   -8.1129    2.6107 C   0  0  0  0  0  0  0  0  0  0  0  0
    0.0997   -5.7152    4.5390 O   0  0  0  0  0  0  0  0  0  0  0  0
    0.4057   -5.0963    5.7298 C   0  0  0  0  0  0  0  0  0  0  0  0
   -0.5382   -5.1985    6.6954 C   0  0  0  0  0  0  0  0  0  0  0  0
   -0.6053   -4.6486    8.1457 C   0  0  0  0  0  0  0  0  0  0  0  0
   -0.5298   -5.5052    9.0528 O   0  0  0  0  0  0  0  0  0  0  0  0
   -0.9804   -3.4610    8.2630 O   0  0  0  0  0  0  0  0  0  0  0  0
    1.0488  -12.0910    3.1796 H   0  0  0  0  0  0  0  0  0  0  0  0
    2.0920  -10.8615    2.4798 H   0  0  0  0  0  0  0  0  0  0  0  0
    0.3660  -10.9088    2.0962 H   0  0  0  0  0  0  0  0  0  0  0  0
   -0.1859  -10.3540    4.4805 H   0  0  0  0  0  0  0  0  0  0  0  0
    1.5205  -10.3594    4.8916 H   0  0  0  0  0  0  0  0  0  0  0  0
    2.4989   -8.6853    6.0247 H   0  0  0  0  0  0  0  0  0  0  0  0
    4.7724   -7.5383    8.6103 H   0  0  0  0  0  0  0  0  0  0  0  0
    4.5800   -8.5278    7.1636 H   0  0  0  0  0  0  0  0  0  0  0  0
    3.1725   -8.1493    8.1979 H   0  0  0  0  0  0  0  0  0  0  0  0
    1.1249   -3.8548    2.8663 H   0  0  0  0  0  0  0  0  0  0  0  0
    3.5957   -1.4714    1.9119 H   0  0  0  0  0  0  0  0  0  0  0  0
    2.4490   -1.2629    3.2334 H   0  0  0  0  0  0  0  0  0  0  0  0
    1.9167   -1.9436    1.6820 H   0  0  0  0  0  0  0  0  0  0  0  0
    3.2383   -5.7661    1.7731 H   0  0  0  0  0  0  0  0  0  0  0  0
    3.8011   -6.9054    2.9982 H   0  0  0  0  0  0  0  0  0  0  0  0
    4.4778   -5.2914    2.9051 H   0  0  0  0  0  0  0  0  0  0  0  0
   -0.2412   -5.9845    2.1210 H   0  0  0  0  0  0  0  0  0  0  0  0
    1.2852   -6.6821    1.6412 H   0  0  0  0  0  0  0  0  0  0  0  0
    0.1867   -8.6810    1.6976 H   0  0  0  0  0  0  0  0  0  0  0  0
   -1.0221   -8.1498    2.8639 H   0  0  0  0  0  0  0  0  0  0  0  0
   -1.3859   -5.7910    6.4203 H   0  0  0  0  0  0  0  0  0  0  0  0
  1  2  1  0
  1 29  1  0
  1 30  1  0
  1 31  1  0
  2  3  1  0
  2 32  1  0
  2 33  1  0
  3 22  1  0
  3  4  2  0
  4 20  1  0
  4  5  1  0
  5  6  2  0
  5 34  1  0
  6  7  1  0
  6  9  1  0
  7  8  1  0
  8 35  1  0
  8 36  1  0
  8 37  1  0
  9 18  1  0
  9 10  1  6
  9 12  1  0
 10 11  3  0
 12 24  1  0
 12 13  1  1
 12 14  1  0
 14 15  1  0
 15 16  1  0
 15 18  1  0
 15 38  1  6
 16 17  1  0
 17 39  1  0
 17 40  1  0
 17 41  1  0
 18 19  1  6
 18 20  1  0
 19 42  1  0
 19 43  1  0
 19 44  1  0
 20 21  1  0
 20 23  1  1
 21 22  1  0
 21 45  1  0
 21 46  1  0
 22 47  1  0
 22 48  1  0
 23 24  1  0
 24 25  2  3
 25 26  1  0
 25 49  1  0
 26 27  2  0
 26 28  1  0
M  CHG  2  13  -1  28  -1
M  END
>  <i_m_ct_stereo_status>  (329) 
1

>  <s_m_source_file>  (329) 
/var/tmp/pbs.5076255.sched01/tmpz7l6rxva/92z_h6r8yo.sdf

>  <i_m_source_file_index>  (329) 
42

>  <i_lp_mmshare_version>  (329) 
48012

>  <i_f3d_flags>  (329) 
0

>  <s_epik_input>  (329) 
W0NIM11bQ0gyXUMoW0NIMl1bQ0gyXTEpPUMoW0NAXTEyMylbQ0hdPUMoT1tDSDNdKVtDQF00KEMjTilbQ0BAXShbT0hdKShPW0NAQEhdKE9bQ0gzXSlbQ0BdMjRbQ0gzXSkvQyhPMyk9W0NIXVxDKD1PKVtPSF0=

>  <s_epik_cmdline>  (329) 
J2VwaWtfcHl0aG9uJywgJy1waHQnLCAnMi4wJywgJy1waCcsICc3LjAnLCAnLXRuJywgJzgnLCAnLW1hJywgJzIwMCcsICctaW1hZScsICc8aW5maWxlLm1hZT4nLCAnLW9tYWUnLCAnPG91dGZpbGUubWFlPic=

>  <r_epik_Ionization_Penalty>  (329) 
2.0673

>  <r_epik_Ionization_Penalty_Charging>  (329) 
2.0673

>  <r_epik_Ionization_Penalty_Neutral>  (329) 
4.2888e-14

>  <r_epik_State_Penalty>  (329) 
1.54999

>  <r_epik_Charging_Adjusted_Penalty>  (329) 
3.61729

>  <i_epik_Tot_Q>  (329) 
-2

>  <i_epik_Tot_abs_Q>  (329) 
2

>  <s_epik_Chemistry_Notes>  (329) 
This compound contains an acetal/aminal-like group ( X-CH(R)-Y where X, Y are N, S, or O) that may be acid/base labile, releasing an aldehyde.

>  <s_lp_Force_Field>  (329) 
OPLS3e

>  <r_lp_Energy>  (329) 
45.5884

>  <b_lp_Chiralities_Consistent>  (329) 
1

>  <s_lp_Variant>  (329) 
83:0-7

>  <s_i_glide_gridfile>  (329) 
pfpi4k_grid

>  <i_i_glide_lignum>  (329) 
42

>  <i_i_glide_rotatable_bonds>  (329) 
5

>  <r_i_docking_score>  (329) 
-2.56371

>  <r_i_glide_ligand_efficiency>  (329) 
-0.091561

>  <r_i_glide_ligand_efficiency_sa>  (329) 
-0.278033

>  <r_i_glide_ligand_efficiency_ln>  (329) 
-0.591779

>  <r_i_glide_gscore>  (329) 
-2.56371

>  <r_i_glide_lipo>  (329) 
-0.20646

>  <r_i_glide_hbond>  (329) 
-0.189679

>  <r_i_glide_metal>  (329) 
-0

>  <r_i_glide_rewards>  (329) 
-0.77006

>  <r_i_glide_evdw>  (329) 
-16.2678

>  <r_i_glide_ecoul>  (329) 
-4.71776

>  <r_i_glide_erotb>  (329) 
0.129764

>  <r_i_glide_esite>  (329) 
-0.00621912

>  <r_i_glide_emodel>  (329) 
-26.8032

>  <r_i_glide_energy>  (329) 
-20.9856

>  <r_i_glide_einternal>  (329) 
2.10695

>  <r_i_glide_intrahb_reward>  (329) 
-0

>  <i_i_glide_confnum>  (329) 
1

>  <i_i_glide_posenum>  (329) 
28

>  <r_i_glide_eff_state_penalty>  (329) 
0

>  <ligand_id>  (329) 
83

>  <original_smiles>  (329) 
CCC1=C2C=C(OC)C3(C#N)C4(O)OC(OC)C3(C)C2(CC1)OC4=CC(=O)O

>  <smiles>  (329) 
[H]C(C(=O)[O-])=C1OC23C(=C(C([H])([H])C([H])([H])[H])C([H])([H])C2([H])[H])C([H])=C(OC([H])([H])[H])C2(C#N)C1([O-])OC([H])(OC([H])([H])[H])C23C([H])([H])[H]

$$$$
83:6:1
     RDKit          3D

 49 52  0  0  1  0  0  0  0  0999 V2000
    2.5903    5.1891    2.8454 C   0  0  0  0  0  0  0  0  0  0  0  0
    2.1382    3.7340    3.0335 C   0  0  0  0  0  0  0  0  0  0  0  0
    0.9904    3.5702    4.0256 C   0  0  0  0  0  0  0  0  0  0  0  0
    0.9628    2.8975    5.1875 C   0  0  0  0  0  0  0  0  0  0  0  0
    2.0532    2.1999    5.8401 C   0  0  0  0  0  0  0  0  0  0  0  0
    1.8573    1.6623    7.0703 C   0  0  0  0  0  0  0  0  0  0  0  0
    2.8205    0.9974    7.8004 O   0  0  0  0  0  0  0  0  0  0  0  0
    4.0737    0.7411    7.1841 C   0  0  0  0  0  0  0  0  0  0  0  0
    0.5473    1.8492    7.8723 C   0  0  2  0  0  0  0  0  0  0  0  0
    0.8683    1.9787    9.3161 C   0  0  0  0  0  0  0  0  0  0  0  0
    1.1317    2.0918   10.4417 N   0  0  0  0  0  0  0  0  0  0  0  0
   -0.4988    0.7374    7.6128 C   0  0  1  0  0  0  0  0  0  0  0  0
   -0.1847   -0.3750    8.2320 O   0  0  0  0  0  0  0  0  0  0  0  0
   -1.6834    1.3026    8.1731 O   0  0  0  0  0  0  0  0  0  0  0  0
   -1.6928    2.6873    8.0053 C   0  0  1  0  0  0  0  0  0  0  0  0
   -1.8431    3.3505    9.2270 O   0  0  0  0  0  0  0  0  0  0  0  0
   -3.1235    3.1951    9.8288 C   0  0  0  0  0  0  0  0  0  0  0  0
   -0.3136    3.0304    7.3716 C   0  0  1  0  0  0  0  0  0  0  0  0
    0.2028    4.4160    7.8403 C   0  0  0  0  0  0  0  0  0  0  0  0
   -0.4149    2.8981    5.8127 C   0  0  1  0  0  0  0  0  0  0  0  0
   -1.1409    4.0134    5.0216 C   0  0  0  0  0  0  0  0  0  0  0  0
   -0.3592    4.1630    3.7041 C   0  0  0  0  0  0  0  0  0  0  0  0
   -1.0661    1.6895    5.4159 O   0  0  0  0  0  0  0  0  0  0  0  0
   -0.7615    0.5369    6.1007 C   0  0  0  0  0  0  0  0  0  0  0  0
   -0.7830   -0.6040    5.3767 C   0  0  0  0  0  0  0  0  0  0  0  0
   -0.5601   -2.0897    5.7664 C   0  0  0  0  0  0  0  0  0  0  0  0
   -1.5391   -2.6678    6.2873 O   0  0  0  0  0  0  0  0  0  0  0  0
    0.5041   -2.6023    5.3470 O   0  0  0  0  0  0  0  0  0  0  0  0
    3.3877    5.2538    2.1053 H   0  0  0  0  0  0  0  0  0  0  0  0
    2.9693    5.6102    3.7746 H   0  0  0  0  0  0  0  0  0  0  0  0
    1.7787    5.8223    2.4870 H   0  0  0  0  0  0  0  0  0  0  0  0
    1.8120    3.3448    2.0693 H   0  0  0  0  0  0  0  0  0  0  0  0
    2.9942    3.1261    3.3191 H   0  0  0  0  0  0  0  0  0  0  0  0
    3.0008    2.1192    5.3308 H   0  0  0  0  0  0  0  0  0  0  0  0
    4.6862    0.1594    7.8733 H   0  0  0  0  0  0  0  0  0  0  0  0
    4.6052    1.6689    6.9685 H   0  0  0  0  0  0  0  0  0  0  0  0
    3.9600    0.1566    6.2699 H   0  0  0  0  0  0  0  0  0  0  0  0
   -2.5240    2.9302    7.3424 H   0  0  0  0  0  0  0  0  0  0  0  0
   -3.1656    3.7774   10.7503 H   0  0  0  0  0  0  0  0  0  0  0  0
   -3.3218    2.1550   10.0896 H   0  0  0  0  0  0  0  0  0  0  0  0
   -3.9248    3.5535    9.1795 H   0  0  0  0  0  0  0  0  0  0  0  0
   -0.5180    5.2027    7.6278 H   0  0  0  0  0  0  0  0  0  0  0  0
    1.1404    4.6690    7.3471 H   0  0  0  0  0  0  0  0  0  0  0  0
    0.3880    4.4519    8.9147 H   0  0  0  0  0  0  0  0  0  0  0  0
   -2.2000    3.7968    4.8632 H   0  0  0  0  0  0  0  0  0  0  0  0
   -1.0737    4.9603    5.5483 H   0  0  0  0  0  0  0  0  0  0  0  0
   -0.2899    5.2002    3.3900 H   0  0  0  0  0  0  0  0  0  0  0  0
   -0.8234    3.5999    2.8971 H   0  0  0  0  0  0  0  0  0  0  0  0
   -0.9703   -0.4595    4.3307 H   0  0  0  0  0  0  0  0  0  0  0  0
  1  2  1  0
  1 29  1  0
  1 30  1  0
  1 31  1  0
  2  3  1  0
  2 32  1  0
  2 33  1  0
  3 22  1  0
  3  4  2  0
  4 20  1  0
  4  5  1  0
  5  6  2  0
  5 34  1  0
  6  7  1  0
  6  9  1  0
  7  8  1  0
  8 35  1  0
  8 36  1  0
  8 37  1  0
  9 18  1  0
  9 10  1  1
  9 12  1  0
 10 11  3  0
 12 24  1  0
 12 13  1  1
 12 14  1  0
 14 15  1  0
 15 16  1  0
 15 18  1  0
 15 38  1  6
 16 17  1  0
 17 39  1  0
 17 40  1  0
 17 41  1  0
 18 19  1  6
 18 20  1  0
 19 42  1  0
 19 43  1  0
 19 44  1  0
 20 21  1  0
 20 23  1  1
 21 22  1  0
 21 45  1  0
 21 46  1  0
 22 47  1  0
 22 48  1  0
 23 24  1  0
 24 25  2  3
 25 26  1  0
 25 49  1  0
 26 27  2  0
 26 28  1  0
M  CHG  2  13  -1  28  -1
M  END
>  <i_m_ct_stereo_status>  (330) 
1

>  <s_m_source_file>  (330) 
/var/tmp/pbs.5076255.sched01/tmpz7l6rxva/92z_h6r8yo.sdf

>  <i_m_source_file_index>  (330) 
42

>  <i_lp_mmshare_version>  (330) 
48012

>  <i_f3d_flags>  (330) 
0

>  <s_epik_input>  (330) 
W0NIM11bQ0gyXUMoW0NIMl1bQ0gyXTEpPUMoW0NAXTEyMylbQ0hdPUMoT1tDSDNdKVtDQF00KEMjTilbQ0BAXShbT0hdKShPW0NAQEhdKE9bQ0gzXSlbQ0BdMjRbQ0gzXSkvQyhPMyk9W0NIXVxDKD1PKVtPSF0=

>  <s_epik_cmdline>  (330) 
J2VwaWtfcHl0aG9uJywgJy1waHQnLCAnMi4wJywgJy1waCcsICc3LjAnLCAnLXRuJywgJzgnLCAnLW1hJywgJzIwMCcsICctaW1hZScsICc8aW5maWxlLm1hZT4nLCAnLW9tYWUnLCAnPG91dGZpbGUubWFlPic=

>  <r_epik_Ionization_Penalty>  (330) 
2.0673

>  <r_epik_Ionization_Penalty_Charging>  (330) 
2.0673

>  <r_epik_Ionization_Penalty_Neutral>  (330) 
4.2888e-14

>  <r_epik_State_Penalty>  (330) 
1.54999

>  <r_epik_Charging_Adjusted_Penalty>  (330) 
3.61729

>  <i_epik_Tot_Q>  (330) 
-2

>  <i_epik_Tot_abs_Q>  (330) 
2

>  <s_epik_Chemistry_Notes>  (330) 
This compound contains an acetal/aminal-like group ( X-CH(R)-Y where X, Y are N, S, or O) that may be acid/base labile, releasing an aldehyde.

>  <s_lp_Force_Field>  (330) 
OPLS3e

>  <r_lp_Energy>  (330) 
45.5884

>  <b_lp_Chiralities_Consistent>  (330) 
1

>  <s_lp_Variant>  (330) 
83:0-7

>  <s_i_glide_gridfile>  (330) 
pfpi4k_grid

>  <i_i_glide_lignum>  (330) 
42

>  <i_i_glide_rotatable_bonds>  (330) 
5

>  <r_i_docking_score>  (330) 
-2.22416

>  <r_i_glide_ligand_efficiency>  (330) 
-0.0794344

>  <r_i_glide_ligand_efficiency_sa>  (330) 
-0.24121

>  <r_i_glide_ligand_efficiency_ln>  (330) 
-0.513402

>  <r_i_glide_gscore>  (330) 
-2.22416

>  <r_i_glide_lipo>  (330) 
0

>  <r_i_glide_hbond>  (330) 
-0.0838331

>  <r_i_glide_metal>  (330) 
-0

>  <r_i_glide_rewards>  (330) 
-0.767842

>  <r_i_glide_evdw>  (330) 
-18.1749

>  <r_i_glide_ecoul>  (330) 
-3.35564

>  <r_i_glide_erotb>  (330) 
0.129764

>  <r_i_glide_esite>  (330) 
-0.0901626

>  <r_i_glide_emodel>  (330) 
-26.8698

>  <r_i_glide_energy>  (330) 
-21.5305

>  <r_i_glide_einternal>  (330) 
1.95821

>  <r_i_glide_intrahb_reward>  (330) 
-0

>  <i_i_glide_confnum>  (330) 
4

>  <i_i_glide_posenum>  (330) 
2

>  <r_i_glide_eff_state_penalty>  (330) 
0

>  <ligand_id>  (330) 
83

>  <original_smiles>  (330) 
CCC1=C2C=C(OC)C3(C#N)C4(O)OC(OC)C3(C)C2(CC1)OC4=CC(=O)O

>  <smiles>  (330) 
[H]C(C(=O)[O-])=C1OC23C(=C(C([H])([H])C([H])([H])[H])C([H])([H])C2([H])[H])C([H])=C(OC([H])([H])[H])C2(C#N)C1([O-])OC([H])(OC([H])([H])[H])C23C([H])([H])[H]

$$$$
83:6:2
     RDKit          3D

 49 52  0  0  1  0  0  0  0  0999 V2000
    3.3754    5.6632    3.2604 C   0  0  0  0  0  0  0  0  0  0  0  0
    2.5481    4.3822    3.0885 C   0  0  0  0  0  0  0  0  0  0  0  0
    1.3597    4.2934    4.0359 C   0  0  0  0  0  0  0  0  0  0  0  0
    1.1828    3.4956    5.1056 C   0  0  0  0  0  0  0  0  0  0  0  0
    2.1269    2.5651    5.6785 C   0  0  0  0  0  0  0  0  0  0  0  0
    1.8072    1.9174    6.8328 C   0  0  0  0  0  0  0  0  0  0  0  0
    2.6286    1.0304    7.4892 O   0  0  0  0  0  0  0  0  0  0  0  0
    3.8588    0.6677    6.8753 C   0  0  0  0  0  0  0  0  0  0  0  0
    0.5141    2.2163    7.6364 C   0  0  2  0  0  0  0  0  0  0  0  0
    0.8108    2.1231    9.0845 C   0  0  0  0  0  0  0  0  0  0  0  0
    1.0542    2.0527   10.2212 N   0  0  0  0  0  0  0  0  0  0  0  0
   -0.6921    1.3456    7.2258 C   0  0  1  0  0  0  0  0  0  0  0  0
   -0.5708    0.1212    7.7214 O   0  0  0  0  0  0  0  0  0  0  0  0
   -1.7831    2.0019    7.8424 O   0  0  0  0  0  0  0  0  0  0  0  0
   -1.5636    3.3835    7.8494 C   0  0  1  0  0  0  0  0  0  0  0  0
   -1.6366    3.9054    9.1438 O   0  0  0  0  0  0  0  0  0  0  0  0
   -2.9228    3.8132    9.7426 C   0  0  0  0  0  0  0  0  0  0  0  0
   -0.1262    3.5758    7.2762 C   0  0  1  0  0  0  0  0  0  0  0  0
    0.5919    4.7933    7.9205 C   0  0  0  0  0  0  0  0  0  0  0  0
   -0.1945    3.6504    5.7104 C   0  0  1  0  0  0  0  0  0  0  0  0
   -0.7058    4.9573    5.0580 C   0  0  0  0  0  0  0  0  0  0  0  0
    0.1359    5.1325    3.7770 C   0  0  0  0  0  0  0  0  0  0  0  0
   -1.0190    2.6281    5.1587 O   0  0  0  0  0  0  0  0  0  0  0  0
   -0.9302    1.3620    5.7080 C   0  0  0  0  0  0  0  0  0  0  0  0
   -1.1098    0.3359    4.8491 C   0  0  0  0  0  0  0  0  0  0  0  0
   -1.1408   -1.1940    5.0764 C   0  0  0  0  0  0  0  0  0  0  0  0
   -2.1524   -1.6410    5.6774 O   0  0  0  0  0  0  0  0  0  0  0  0
   -0.2447   -1.8465    4.5038 O   0  0  0  0  0  0  0  0  0  0  0  0
    4.1838    5.7049    2.5288 H   0  0  0  0  0  0  0  0  0  0  0  0
    3.8219    5.7101    4.2521 H   0  0  0  0  0  0  0  0  0  0  0  0
    2.7699    6.5565    3.1149 H   0  0  0  0  0  0  0  0  0  0  0  0
    2.1718    4.3459    2.0656 H   0  0  0  0  0  0  0  0  0  0  0  0
    3.1904    3.5115    3.1932 H   0  0  0  0  0  0  0  0  0  0  0  0
    3.0642    2.3889    5.1706 H   0  0  0  0  0  0  0  0  0  0  0  0
    4.3488   -0.0894    7.4923 H   0  0  0  0  0  0  0  0  0  0  0  0
    4.5301    1.5264    6.8052 H   0  0  0  0  0  0  0  0  0  0  0  0
    3.7033    0.2350    5.8841 H   0  0  0  0  0  0  0  0  0  0  0  0
   -2.3269    3.8396    7.2147 H   0  0  0  0  0  0  0  0  0  0  0  0
   -2.9013    4.2904   10.7246 H   0  0  0  0  0  0  0  0  0  0  0  0
   -3.2217    2.7721    9.8907 H   0  0  0  0  0  0  0  0  0  0  0  0
   -3.6898    4.3187    9.1483 H   0  0  0  0  0  0  0  0  0  0  0  0
    0.0130    5.7055    7.7965 H   0  0  0  0  0  0  0  0  0  0  0  0
    1.5730    4.9467    7.4713 H   0  0  0  0  0  0  0  0  0  0  0  0
    0.7475    4.6698    8.9913 H   0  0  0  0  0  0  0  0  0  0  0  0
   -1.7772    4.9171    4.8599 H   0  0  0  0  0  0  0  0  0  0  0  0
   -0.5149    5.8109    5.7021 H   0  0  0  0  0  0  0  0  0  0  0  0
    0.3819    6.1780    3.5968 H   0  0  0  0  0  0  0  0  0  0  0  0
   -0.3908    4.7556    2.9072 H   0  0  0  0  0  0  0  0  0  0  0  0
   -1.2421    0.6199    3.8205 H   0  0  0  0  0  0  0  0  0  0  0  0
  1  2  1  0
  1 29  1  0
  1 30  1  0
  1 31  1  0
  2  3  1  0
  2 32  1  0
  2 33  1  0
  3 22  1  0
  3  4  2  0
  4 20  1  0
  4  5  1  0
  5  6  2  0
  5 34  1  0
  6  7  1  0
  6  9  1  0
  7  8  1  0
  8 35  1  0
  8 36  1  0
  8 37  1  0
  9 18  1  0
  9 10  1  1
  9 12  1  0
 10 11  3  0
 12 24  1  0
 12 13  1  1
 12 14  1  0
 14 15  1  0
 15 16  1  0
 15 18  1  0
 15 38  1  6
 16 17  1  0
 17 39  1  0
 17 40  1  0
 17 41  1  0
 18 19  1  1
 18 20  1  0
 19 42  1  0
 19 43  1  0
 19 44  1  0
 20 21  1  0
 20 23  1  6
 21 22  1  0
 21 45  1  0
 21 46  1  0
 22 47  1  0
 22 48  1  0
 23 24  1  0
 24 25  2  3
 25 26  1  0
 25 49  1  0
 26 27  2  0
 26 28  1  0
M  CHG  2  13  -1  28  -1
M  END
>  <i_m_ct_stereo_status>  (331) 
1

>  <s_m_source_file>  (331) 
/var/tmp/pbs.5076255.sched01/tmpz7l6rxva/92z_h6r8yo.sdf

>  <i_m_source_file_index>  (331) 
42

>  <i_lp_mmshare_version>  (331) 
48012

>  <i_f3d_flags>  (331) 
0

>  <s_epik_input>  (331) 
W0NIM11bQ0gyXUMoW0NIMl1bQ0gyXTEpPUMoW0NAXTEyMylbQ0hdPUMoT1tDSDNdKVtDQF00KEMjTilbQ0BAXShbT0hdKShPW0NAQEhdKE9bQ0gzXSlbQ0BdMjRbQ0gzXSkvQyhPMyk9W0NIXVxDKD1PKVtPSF0=

>  <s_epik_cmdline>  (331) 
J2VwaWtfcHl0aG9uJywgJy1waHQnLCAnMi4wJywgJy1waCcsICc3LjAnLCAnLXRuJywgJzgnLCAnLW1hJywgJzIwMCcsICctaW1hZScsICc8aW5maWxlLm1hZT4nLCAnLW9tYWUnLCAnPG91dGZpbGUubWFlPic=

>  <r_epik_Ionization_Penalty>  (331) 
2.0673

>  <r_epik_Ionization_Penalty_Charging>  (331) 
2.0673

>  <r_epik_Ionization_Penalty_Neutral>  (331) 
4.2888e-14

>  <r_epik_State_Penalty>  (331) 
1.54999

>  <r_epik_Charging_Adjusted_Penalty>  (331) 
3.61729

>  <i_epik_Tot_Q>  (331) 
-2

>  <i_epik_Tot_abs_Q>  (331) 
2

>  <s_epik_Chemistry_Notes>  (331) 
This compound contains an acetal/aminal-like group ( X-CH(R)-Y where X, Y are N, S, or O) that may be acid/base labile, releasing an aldehyde.

>  <s_lp_Force_Field>  (331) 
OPLS3e

>  <r_lp_Energy>  (331) 
45.5884

>  <b_lp_Chiralities_Consistent>  (331) 
1

>  <s_lp_Variant>  (331) 
83:0-7

>  <s_i_glide_gridfile>  (331) 
pfpi4k_grid

>  <i_i_glide_lignum>  (331) 
42

>  <i_i_glide_rotatable_bonds>  (331) 
5

>  <r_i_docking_score>  (331) 
-2.21388

>  <r_i_glide_ligand_efficiency>  (331) 
-0.0790671

>  <r_i_glide_ligand_efficiency_sa>  (331) 
-0.240094

>  <r_i_glide_ligand_efficiency_ln>  (331) 
-0.511028

>  <r_i_glide_gscore>  (331) 
-2.21388

>  <r_i_glide_lipo>  (331) 
-0.0775296

>  <r_i_glide_hbond>  (331) 
-0.063604

>  <r_i_glide_metal>  (331) 
-0

>  <r_i_glide_rewards>  (331) 
-0.781165

>  <r_i_glide_evdw>  (331) 
-18.7173

>  <r_i_glide_ecoul>  (331) 
-2.78486

>  <r_i_glide_erotb>  (331) 
0.129764

>  <r_i_glide_esite>  (331) 
-0.0677522

>  <r_i_glide_emodel>  (331) 
-26.6805

>  <r_i_glide_energy>  (331) 
-21.5021

>  <r_i_glide_einternal>  (331) 
2.19262

>  <r_i_glide_intrahb_reward>  (331) 
-0

>  <i_i_glide_confnum>  (331) 
4

>  <i_i_glide_posenum>  (331) 
5

>  <r_i_glide_eff_state_penalty>  (331) 
0

>  <ligand_id>  (331) 
83

>  <original_smiles>  (331) 
CCC1=C2C=C(OC)C3(C#N)C4(O)OC(OC)C3(C)C2(CC1)OC4=CC(=O)O

>  <smiles>  (331) 
[H]C(C(=O)[O-])=C1OC23C(=C(C([H])([H])C([H])([H])[H])C([H])([H])C2([H])[H])C([H])=C(OC([H])([H])[H])C2(C#N)C1([O-])OC([H])(OC([H])([H])[H])C23C([H])([H])[H]

$$$$
83:7:0
     RDKit          3D

 49 52  0  0  1  0  0  0  0  0999 V2000
    2.7681   -8.4381    1.3101 C   0  0  0  0  0  0  0  0  0  0  0  0
    3.1688   -7.2190    2.1524 C   0  0  0  0  0  0  0  0  0  0  0  0
    3.1572   -5.9095    1.3758 C   0  0  0  0  0  0  0  0  0  0  0  0
    4.1693   -5.0595    1.1287 C   0  0  0  0  0  0  0  0  0  0  0  0
    5.5655   -5.2196    1.4588 C   0  0  0  0  0  0  0  0  0  0  0  0
    6.4581   -4.2813    1.0470 C   0  0  0  0  0  0  0  0  0  0  0  0
    7.8176   -4.3496    1.2484 O   0  0  0  0  0  0  0  0  0  0  0  0
    8.3406   -5.4434    1.9922 C   0  0  0  0  0  0  0  0  0  0  0  0
    6.0606   -3.0867    0.1385 C   0  0  2  0  0  0  0  0  0  0  0  0
    7.1730   -2.8177   -0.7913 C   0  0  0  0  0  0  0  0  0  0  0  0
    8.0517   -2.6175   -1.5250 N   0  0  0  0  0  0  0  0  0  0  0  0
    5.5994   -1.8264    0.8937 C   0  0  1  0  0  0  0  0  0  0  0  0
    6.6585   -1.1929    1.4062 O   0  0  0  0  0  0  0  0  0  0  0  0
    5.0214   -1.0336   -0.1292 O   0  0  0  0  0  0  0  0  0  0  0  0
    4.3832   -1.8569   -1.0552 C   0  0  1  0  0  0  0  0  0  0  0  0
    4.8535   -1.6122   -2.3527 O   0  0  0  0  0  0  0  0  0  0  0  0
    4.2016   -0.5291   -3.0018 C   0  0  0  0  0  0  0  0  0  0  0  0
    4.7368   -3.3084   -0.6193 C   0  0  1  0  0  0  0  0  0  0  0  0
    4.8758   -4.2444   -1.8446 C   0  0  0  0  0  0  0  0  0  0  0  0
    3.6912   -3.7978    0.4435 C   0  0  1  0  0  0  0  0  0  0  0  0
    2.2922   -4.2004   -0.0591 C   0  0  0  0  0  0  0  0  0  0  0  0
    1.8570   -5.3702    0.8535 C   0  0  0  0  0  0  0  0  0  0  0  0
    3.4495   -2.8285    1.4733 O   0  0  0  0  0  0  0  0  0  0  0  0
    4.5475   -2.1316    1.9514 C   0  0  0  0  0  0  0  0  0  0  0  0
    4.5849   -1.7983    3.2678 C   0  0  0  0  0  0  0  0  0  0  0  0
    3.5096   -2.1810    4.3034 C   0  0  0  0  0  0  0  0  0  0  0  0
    2.8278   -1.2333    4.7650 O   0  0  0  0  0  0  0  0  0  0  0  0
    3.4269   -3.3925    4.5870 O   0  0  0  0  0  0  0  0  0  0  0  0
    2.7555   -9.3451    1.9149 H   0  0  0  0  0  0  0  0  0  0  0  0
    3.4776   -8.6010    0.5002 H   0  0  0  0  0  0  0  0  0  0  0  0
    1.7693   -8.3346    0.8861 H   0  0  0  0  0  0  0  0  0  0  0  0
    2.4732   -7.1227    2.9862 H   0  0  0  0  0  0  0  0  0  0  0  0
    4.1437   -7.3915    2.6038 H   0  0  0  0  0  0  0  0  0  0  0  0
    5.8745   -6.0880    2.0258 H   0  0  0  0  0  0  0  0  0  0  0  0
    9.4150   -5.2974    2.1246 H   0  0  0  0  0  0  0  0  0  0  0  0
    8.1938   -6.3822    1.4562 H   0  0  0  0  0  0  0  0  0  0  0  0
    7.8937   -5.5081    2.9859 H   0  0  0  0  0  0  0  0  0  0  0  0
    3.3081   -1.6593   -0.9787 H   0  0  0  0  0  0  0  0  0  0  0  0
    4.5863   -0.4304   -4.0172 H   0  0  0  0  0  0  0  0  0  0  0  0
    4.3677    0.4171   -2.4855 H   0  0  0  0  0  0  0  0  0  0  0  0
    3.1258   -0.7001   -3.0759 H   0  0  0  0  0  0  0  0  0  0  0  0
    3.9758   -4.2171   -2.4547 H   0  0  0  0  0  0  0  0  0  0  0  0
    5.0380   -5.2727   -1.5250 H   0  0  0  0  0  0  0  0  0  0  0  0
    5.6954   -3.9613   -2.5062 H   0  0  0  0  0  0  0  0  0  0  0  0
    1.6459   -3.3244   -0.0900 H   0  0  0  0  0  0  0  0  0  0  0  0
    2.3293   -4.5811   -1.0749 H   0  0  0  0  0  0  0  0  0  0  0  0
    1.2885   -6.1184    0.3068 H   0  0  0  0  0  0  0  0  0  0  0  0
    1.2713   -5.0529    1.7132 H   0  0  0  0  0  0  0  0  0  0  0  0
    5.4487   -1.2577    3.6368 H   0  0  0  0  0  0  0  0  0  0  0  0
  1  2  1  0
  1 29  1  0
  1 30  1  0
  1 31  1  0
  2  3  1  0
  2 32  1  0
  2 33  1  0
  3 22  1  0
  3  4  2  0
  4 20  1  0
  4  5  1  0
  5  6  2  0
  5 34  1  0
  6  7  1  0
  6  9  1  0
  7  8  1  0
  8 35  1  0
  8 36  1  0
  8 37  1  0
  9 18  1  0
  9 10  1  6
  9 12  1  0
 10 11  3  0
 12 24  1  0
 12 13  1  1
 12 14  1  0
 14 15  1  0
 15 16  1  0
 15 18  1  0
 15 38  1  6
 16 17  1  0
 17 39  1  0
 17 40  1  0
 17 41  1  0
 18 19  1  6
 18 20  1  0
 19 42  1  0
 19 43  1  0
 19 44  1  0
 20 21  1  0
 20 23  1  1
 21 22  1  0
 21 45  1  0
 21 46  1  0
 22 47  1  0
 22 48  1  0
 23 24  1  0
 24 25  2  3
 25 26  1  0
 25 49  1  0
 26 27  2  0
 26 28  1  0
M  CHG  2  13  -1  28  -1
M  END
>  <i_m_ct_stereo_status>  (332) 
1

>  <s_m_source_file>  (332) 
/var/tmp/pbs.5076255.sched01/tmpz7l6rxva/92z_h6r8yo.sdf

>  <i_m_source_file_index>  (332) 
43

>  <i_lp_mmshare_version>  (332) 
48012

>  <i_f3d_flags>  (332) 
0

>  <s_epik_input>  (332) 
W0NIM11bQ0gyXUMoW0NIMl1bQ0gyXTEpPUMoW0NAXTEyMylbQ0hdPUMoT1tDSDNdKVtDQF00KEMjTilbQ0BAXShbT0hdKShPW0NAQEhdKE9bQ0gzXSlbQ0BdMjRbQ0gzXSkvQyhPMyk9W0NIXVxDKD1PKVtPSF0=

>  <s_epik_cmdline>  (332) 
J2VwaWtfcHl0aG9uJywgJy1waHQnLCAnMi4wJywgJy1waCcsICc3LjAnLCAnLXRuJywgJzgnLCAnLW1hJywgJzIwMCcsICctaW1hZScsICc8aW5maWxlLm1hZT4nLCAnLW9tYWUnLCAnPG91dGZpbGUubWFlPic=

>  <r_epik_Ionization_Penalty>  (332) 
2.0673

>  <r_epik_Ionization_Penalty_Charging>  (332) 
2.0673

>  <r_epik_Ionization_Penalty_Neutral>  (332) 
4.2888e-14

>  <r_epik_State_Penalty>  (332) 
1.54999

>  <r_epik_Charging_Adjusted_Penalty>  (332) 
3.61729

>  <i_epik_Tot_Q>  (332) 
-2

>  <i_epik_Tot_abs_Q>  (332) 
2

>  <s_epik_Chemistry_Notes>  (332) 
This compound contains an acetal/aminal-like group ( X-CH(R)-Y where X, Y are N, S, or O) that may be acid/base labile, releasing an aldehyde.

>  <s_lp_Force_Field>  (332) 
OPLS3e

>  <r_lp_Energy>  (332) 
37.4679

>  <b_lp_Chiralities_Consistent>  (332) 
1

>  <s_lp_Variant>  (332) 
83:0-8

>  <s_i_glide_gridfile>  (332) 
pfpi4k_grid

>  <i_i_glide_lignum>  (332) 
43

>  <i_i_glide_rotatable_bonds>  (332) 
5

>  <r_i_docking_score>  (332) 
-2.56202

>  <r_i_glide_ligand_efficiency>  (332) 
-0.0915007

>  <r_i_glide_ligand_efficiency_sa>  (332) 
-0.27785

>  <r_i_glide_ligand_efficiency_ln>  (332) 
-0.591389

>  <r_i_glide_gscore>  (332) 
-2.56202

>  <r_i_glide_lipo>  (332) 
-0.578142

>  <r_i_glide_hbond>  (332) 
-0.16

>  <r_i_glide_metal>  (332) 
-0

>  <r_i_glide_rewards>  (332) 
-0.893842

>  <r_i_glide_evdw>  (332) 
-23.7644

>  <r_i_glide_ecoul>  (332) 
1.13029

>  <r_i_glide_erotb>  (332) 
0.129764

>  <r_i_glide_esite>  (332) 
-0.0411242

>  <r_i_glide_emodel>  (332) 
-27.0011

>  <r_i_glide_energy>  (332) 
-22.6341

>  <r_i_glide_einternal>  (332) 
2.4255

>  <r_i_glide_intrahb_reward>  (332) 
-0

>  <i_i_glide_confnum>  (332) 
1

>  <i_i_glide_posenum>  (332) 
39

>  <r_i_glide_eff_state_penalty>  (332) 
0

>  <ligand_id>  (332) 
83

>  <original_smiles>  (332) 
CCC1=C2C=C(OC)C3(C#N)C4(O)OC(OC)C3(C)C2(CC1)OC4=CC(=O)O

>  <smiles>  (332) 
[H]C(C(=O)[O-])=C1OC23C(=C(C([H])([H])C([H])([H])[H])C([H])([H])C2([H])[H])C([H])=C(OC([H])([H])[H])C2(C#N)C1([O-])OC([H])(OC([H])([H])[H])C23C([H])([H])[H]

$$$$
83:7:1
     RDKit          3D

 49 52  0  0  1  0  0  0  0  0999 V2000
    2.1500   -7.6504    2.8770 C   0  0  0  0  0  0  0  0  0  0  0  0
    3.0091   -7.5494    1.6036 C   0  0  0  0  0  0  0  0  0  0  0  0
    3.0006   -6.1605    0.9733 C   0  0  0  0  0  0  0  0  0  0  0  0
    3.9994   -5.2691    0.8525 C   0  0  0  0  0  0  0  0  0  0  0  0
    5.3809   -5.4255    1.2515 C   0  0  0  0  0  0  0  0  0  0  0  0
    6.2634   -4.4264    0.9816 C   0  0  0  0  0  0  0  0  0  0  0  0
    7.6112   -4.4747    1.2708 O   0  0  0  0  0  0  0  0  0  0  0  0
    8.1118   -5.6074    1.9667 C   0  0  0  0  0  0  0  0  0  0  0  0
    5.8801   -3.1625    0.1696 C   0  0  2  0  0  0  0  0  0  0  0  0
    7.0385   -2.7605   -0.6573 C   0  0  0  0  0  0  0  0  0  0  0  0
    7.9463   -2.4548   -1.3078 N   0  0  0  0  0  0  0  0  0  0  0  0
    5.3586   -1.9829    1.0262 C   0  0  1  0  0  0  0  0  0  0  0  0
    6.3492   -1.4031    1.6667 O   0  0  0  0  0  0  0  0  0  0  0  0
    4.8069   -1.1177    0.0345 O   0  0  0  0  0  0  0  0  0  0  0  0
    4.2411   -1.8645   -1.0042 C   0  0  1  0  0  0  0  0  0  0  0  0
    4.7775   -1.4874   -2.2432 O   0  0  0  0  0  0  0  0  0  0  0  0
    4.1192   -0.3781   -2.8397 C   0  0  0  0  0  0  0  0  0  0  0  0
    4.6138   -3.3440   -0.6908 C   0  0  1  0  0  0  0  0  0  0  0  0
    4.8524   -4.1519   -1.9904 C   0  0  0  0  0  0  0  0  0  0  0  0
    3.5218   -3.9620    0.2520 C   0  0  1  0  0  0  0  0  0  0  0  0
    2.1562   -4.3511   -0.3561 C   0  0  0  0  0  0  0  0  0  0  0  0
    1.7184   -5.6173    0.4156 C   0  0  0  0  0  0  0  0  0  0  0  0
    3.1869   -3.0887    1.3249 O   0  0  0  0  0  0  0  0  0  0  0  0
    4.2213   -2.4340    1.9653 C   0  0  0  0  0  0  0  0  0  0  0  0
    4.1523   -2.2379    3.2995 C   0  0  0  0  0  0  0  0  0  0  0  0
    3.0320   -2.7520    4.2548 C   0  0  0  0  0  0  0  0  0  0  0  0
    3.2927   -2.6837    5.4753 O   0  0  0  0  0  0  0  0  0  0  0  0
    1.9948   -3.2199    3.7325 O   0  0  0  0  0  0  0  0  0  0  0  0
    2.2020   -8.6551    3.2979 H   0  0  0  0  0  0  0  0  0  0  0  0
    1.0959   -7.4482    2.6873 H   0  0  0  0  0  0  0  0  0  0  0  0
    2.4919   -6.9613    3.6483 H   0  0  0  0  0  0  0  0  0  0  0  0
    4.0263   -7.8606    1.8288 H   0  0  0  0  0  0  0  0  0  0  0  0
    2.6287   -8.2666    0.8783 H   0  0  0  0  0  0  0  0  0  0  0  0
    5.6780   -6.3343    1.7540 H   0  0  0  0  0  0  0  0  0  0  0  0
    9.1719   -5.4458    2.1775 H   0  0  0  0  0  0  0  0  0  0  0  0
    8.0244   -6.5107    1.3595 H   0  0  0  0  0  0  0  0  0  0  0  0
    7.6034   -5.7499    2.9227 H   0  0  0  0  0  0  0  0  0  0  0  0
    3.1583   -1.7125   -0.9759 H   0  0  0  0  0  0  0  0  0  0  0  0
    4.5626   -0.1785   -3.8144 H   0  0  0  0  0  0  0  0  0  0  0  0
    4.2161    0.5301   -2.2496 H   0  0  0  0  0  0  0  0  0  0  0  0
    3.0576   -0.5736   -2.9885 H   0  0  0  0  0  0  0  0  0  0  0  0
    3.9881   -4.0898   -2.6471 H   0  0  0  0  0  0  0  0  0  0  0  0
    5.0198   -5.2025   -1.7545 H   0  0  0  0  0  0  0  0  0  0  0  0
    5.7061   -3.7930   -2.5688 H   0  0  0  0  0  0  0  0  0  0  0  0
    1.4534   -3.5193   -0.3294 H   0  0  0  0  0  0  0  0  0  0  0  0
    2.2378   -4.6027   -1.3982 H   0  0  0  0  0  0  0  0  0  0  0  0
    1.2218   -6.3233   -0.2396 H   0  0  0  0  0  0  0  0  0  0  0  0
    1.0543   -5.4173    1.2540 H   0  0  0  0  0  0  0  0  0  0  0  0
    4.9700   -1.7044    3.7669 H   0  0  0  0  0  0  0  0  0  0  0  0
  1  2  1  0
  1 29  1  0
  1 30  1  0
  1 31  1  0
  2  3  1  0
  2 32  1  0
  2 33  1  0
  3 22  1  0
  3  4  2  0
  4 20  1  0
  4  5  1  0
  5  6  2  0
  5 34  1  0
  6  7  1  0
  6  9  1  0
  7  8  1  0
  8 35  1  0
  8 36  1  0
  8 37  1  0
  9 18  1  0
  9 10  1  6
  9 12  1  0
 10 11  3  0
 12 24  1  0
 12 13  1  1
 12 14  1  0
 14 15  1  0
 15 16  1  0
 15 18  1  0
 15 38  1  6
 16 17  1  0
 17 39  1  0
 17 40  1  0
 17 41  1  0
 18 19  1  6
 18 20  1  0
 19 42  1  0
 19 43  1  0
 19 44  1  0
 20 21  1  0
 20 23  1  1
 21 22  1  0
 21 45  1  0
 21 46  1  0
 22 47  1  0
 22 48  1  0
 23 24  1  0
 24 25  2  3
 25 26  1  0
 25 49  1  0
 26 27  2  0
 26 28  1  0
M  CHG  2  13  -1  28  -1
M  END
>  <i_m_ct_stereo_status>  (333) 
1

>  <s_m_source_file>  (333) 
/var/tmp/pbs.5076255.sched01/tmpz7l6rxva/92z_h6r8yo.sdf

>  <i_m_source_file_index>  (333) 
43

>  <i_lp_mmshare_version>  (333) 
48012

>  <i_f3d_flags>  (333) 
0

>  <s_epik_input>  (333) 
W0NIM11bQ0gyXUMoW0NIMl1bQ0gyXTEpPUMoW0NAXTEyMylbQ0hdPUMoT1tDSDNdKVtDQF00KEMjTilbQ0BAXShbT0hdKShPW0NAQEhdKE9bQ0gzXSlbQ0BdMjRbQ0gzXSkvQyhPMyk9W0NIXVxDKD1PKVtPSF0=

>  <s_epik_cmdline>  (333) 
J2VwaWtfcHl0aG9uJywgJy1waHQnLCAnMi4wJywgJy1waCcsICc3LjAnLCAnLXRuJywgJzgnLCAnLW1hJywgJzIwMCcsICctaW1hZScsICc8aW5maWxlLm1hZT4nLCAnLW9tYWUnLCAnPG91dGZpbGUubWFlPic=

>  <r_epik_Ionization_Penalty>  (333) 
2.0673

>  <r_epik_Ionization_Penalty_Charging>  (333) 
2.0673

>  <r_epik_Ionization_Penalty_Neutral>  (333) 
4.2888e-14

>  <r_epik_State_Penalty>  (333) 
1.54999

>  <r_epik_Charging_Adjusted_Penalty>  (333) 
3.61729

>  <i_epik_Tot_Q>  (333) 
-2

>  <i_epik_Tot_abs_Q>  (333) 
2

>  <s_epik_Chemistry_Notes>  (333) 
This compound contains an acetal/aminal-like group ( X-CH(R)-Y where X, Y are N, S, or O) that may be acid/base labile, releasing an aldehyde.

>  <s_lp_Force_Field>  (333) 
OPLS3e

>  <r_lp_Energy>  (333) 
37.4679

>  <b_lp_Chiralities_Consistent>  (333) 
1

>  <s_lp_Variant>  (333) 
83:0-8

>  <s_i_glide_gridfile>  (333) 
pfpi4k_grid

>  <i_i_glide_lignum>  (333) 
43

>  <i_i_glide_rotatable_bonds>  (333) 
5

>  <r_i_docking_score>  (333) 
-2.47792

>  <r_i_glide_ligand_efficiency>  (333) 
-0.0884973

>  <r_i_glide_ligand_efficiency_sa>  (333) 
-0.26873

>  <r_i_glide_ligand_efficiency_ln>  (333) 
-0.571978

>  <r_i_glide_gscore>  (333) 
-2.47792

>  <r_i_glide_lipo>  (333) 
-0.571866

>  <r_i_glide_hbond>  (333) 
-0.16

>  <r_i_glide_metal>  (333) 
-0

>  <r_i_glide_rewards>  (333) 
-0.864426

>  <r_i_glide_evdw>  (333) 
-21.1464

>  <r_i_glide_ecoul>  (333) 
0.58978

>  <r_i_glide_erotb>  (333) 
0.129764

>  <r_i_glide_esite>  (333) 
-0.0425428

>  <r_i_glide_emodel>  (333) 
-24.4335

>  <r_i_glide_energy>  (333) 
-20.5566

>  <r_i_glide_einternal>  (333) 
2.97163

>  <r_i_glide_intrahb_reward>  (333) 
-0

>  <i_i_glide_confnum>  (333) 
2

>  <i_i_glide_posenum>  (333) 
2

>  <r_i_glide_eff_state_penalty>  (333) 
0

>  <ligand_id>  (333) 
83

>  <original_smiles>  (333) 
CCC1=C2C=C(OC)C3(C#N)C4(O)OC(OC)C3(C)C2(CC1)OC4=CC(=O)O

>  <smiles>  (333) 
[H]C(C(=O)[O-])=C1OC23C(=C(C([H])([H])C([H])([H])[H])C([H])([H])C2([H])[H])C([H])=C(OC([H])([H])[H])C2(C#N)C1([O-])OC([H])(OC([H])([H])[H])C23C([H])([H])[H]

$$$$
83:7:2
     RDKit          3D

 49 52  0  0  1  0  0  0  0  0999 V2000
    7.7797   -4.2241    0.1337 C   0  0  0  0  0  0  0  0  0  0  0  0
    6.5187   -4.8649    0.7324 C   0  0  0  0  0  0  0  0  0  0  0  0
    5.3231   -3.9229    0.8018 C   0  0  0  0  0  0  0  0  0  0  0  0
    4.6880   -3.4325    1.8836 C   0  0  0  0  0  0  0  0  0  0  0  0
    5.0383   -3.6100    3.2724 C   0  0  0  0  0  0  0  0  0  0  0  0
    4.3283   -2.9546    4.2335 C   0  0  0  0  0  0  0  0  0  0  0  0
    4.5961   -3.0058    5.5797 O   0  0  0  0  0  0  0  0  0  0  0  0
    5.6229   -3.8766    6.0326 C   0  0  0  0  0  0  0  0  0  0  0  0
    3.2074   -1.9387    3.9029 C   0  0  2  0  0  0  0  0  0  0  0  0
    3.2221   -0.8377    4.9006 C   0  0  0  0  0  0  0  0  0  0  0  0
    3.2445    0.0182    5.6812 N   0  0  0  0  0  0  0  0  0  0  0  0
    1.8122   -2.5784    3.7692 C   0  0  1  0  0  0  0  0  0  0  0  0
    1.3000   -2.8751    4.9727 O   0  0  0  0  0  0  0  0  0  0  0  0
    1.0533   -1.5468    3.1557 O   0  0  0  0  0  0  0  0  0  0  0  0
    1.8626   -0.8162    2.2749 C   0  0  1  0  0  0  0  0  0  0  0  0
    1.8575    0.5517    2.5791 O   0  0  0  0  0  0  0  0  0  0  0  0
    0.6866    1.2339    2.1429 C   0  0  0  0  0  0  0  0  0  0  0  0
    3.2915   -1.3987    2.4568 C   0  0  1  0  0  0  0  0  0  0  0  0
    4.3836   -0.3102    2.2591 C   0  0  0  0  0  0  0  0  0  0  0  0
    3.4570   -2.6423    1.5084 C   0  0  1  0  0  0  0  0  0  0  0  0
    3.6785   -2.3888   -0.0077 C   0  0  0  0  0  0  0  0  0  0  0  0
    4.6440   -3.4962   -0.4700 C   0  0  0  0  0  0  0  0  0  0  0  0
    2.3569   -3.5528    1.5904 O   0  0  0  0  0  0  0  0  0  0  0  0
    1.8144   -3.7982    2.8452 C   0  0  0  0  0  0  0  0  0  0  0  0
    1.3405   -5.0353    3.1072 C   0  0  0  0  0  0  0  0  0  0  0  0
    1.3866   -6.2257    2.1154 C   0  0  0  0  0  0  0  0  0  0  0  0
    0.4686   -6.2702    1.2600 O   0  0  0  0  0  0  0  0  0  0  0  0
    2.3260   -7.0312    2.2704 O   0  0  0  0  0  0  0  0  0  0  0  0
    8.5915   -4.9498    0.0705 H   0  0  0  0  0  0  0  0  0  0  0  0
    8.1248   -3.3966    0.7513 H   0  0  0  0  0  0  0  0  0  0  0  0
    7.6118   -3.8502   -0.8758 H   0  0  0  0  0  0  0  0  0  0  0  0
    6.2345   -5.7214    0.1197 H   0  0  0  0  0  0  0  0  0  0  0  0
    6.7506   -5.2755    1.7135 H   0  0  0  0  0  0  0  0  0  0  0  0
    5.8607   -4.2646    3.5220 H   0  0  0  0  0  0  0  0  0  0  0  0
    5.6470   -3.8468    7.1229 H   0  0  0  0  0  0  0  0  0  0  0  0
    6.6014   -3.5527    5.6738 H   0  0  0  0  0  0  0  0  0  0  0  0
    5.4387   -4.9113    5.7332 H   0  0  0  0  0  0  0  0  0  0  0  0
    1.4793   -0.9865    1.2710 H   0  0  0  0  0  0  0  0  0  0  0  0
    0.7760    2.2954    2.3763 H   0  0  0  0  0  0  0  0  0  0  0  0
   -0.2072    0.8541    2.6436 H   0  0  0  0  0  0  0  0  0  0  0  0
    0.5431    1.1521    1.0619 H   0  0  0  0  0  0  0  0  0  0  0  0
    4.2953    0.1713    1.2855 H   0  0  0  0  0  0  0  0  0  0  0  0
    5.3826   -0.7387    2.3422 H   0  0  0  0  0  0  0  0  0  0  0  0
    4.3154    0.4861    3.0012 H   0  0  0  0  0  0  0  0  0  0  0  0
    2.7455   -2.3622   -0.5779 H   0  0  0  0  0  0  0  0  0  0  0  0
    4.1777   -1.4367   -0.1729 H   0  0  0  0  0  0  0  0  0  0  0  0
    5.3491   -3.1389   -1.2164 H   0  0  0  0  0  0  0  0  0  0  0  0
    4.1005   -4.3377   -0.8962 H   0  0  0  0  0  0  0  0  0  0  0  0
    0.9024   -5.2225    4.0814 H   0  0  0  0  0  0  0  0  0  0  0  0
  1  2  1  0
  1 29  1  0
  1 30  1  0
  1 31  1  0
  2  3  1  0
  2 32  1  0
  2 33  1  0
  3 22  1  0
  3  4  2  0
  4 20  1  0
  4  5  1  0
  5  6  2  0
  5 34  1  0
  6  7  1  0
  6  9  1  0
  7  8  1  0
  8 35  1  0
  8 36  1  0
  8 37  1  0
  9 18  1  0
  9 10  1  1
  9 12  1  0
 10 11  3  0
 12 24  1  0
 12 13  1  1
 12 14  1  0
 14 15  1  0
 15 16  1  0
 15 18  1  0
 15 38  1  6
 16 17  1  0
 17 39  1  0
 17 40  1  0
 17 41  1  0
 18 19  1  1
 18 20  1  0
 19 42  1  0
 19 43  1  0
 19 44  1  0
 20 21  1  0
 20 23  1  6
 21 22  1  0
 21 45  1  0
 21 46  1  0
 22 47  1  0
 22 48  1  0
 23 24  1  0
 24 25  2  3
 25 26  1  0
 25 49  1  0
 26 27  2  0
 26 28  1  0
M  CHG  2  13  -1  28  -1
M  END
>  <i_m_ct_stereo_status>  (334) 
1

>  <s_m_source_file>  (334) 
/var/tmp/pbs.5076255.sched01/tmpz7l6rxva/92z_h6r8yo.sdf

>  <i_m_source_file_index>  (334) 
43

>  <i_lp_mmshare_version>  (334) 
48012

>  <i_f3d_flags>  (334) 
0

>  <s_epik_input>  (334) 
W0NIM11bQ0gyXUMoW0NIMl1bQ0gyXTEpPUMoW0NAXTEyMylbQ0hdPUMoT1tDSDNdKVtDQF00KEMjTilbQ0BAXShbT0hdKShPW0NAQEhdKE9bQ0gzXSlbQ0BdMjRbQ0gzXSkvQyhPMyk9W0NIXVxDKD1PKVtPSF0=

>  <s_epik_cmdline>  (334) 
J2VwaWtfcHl0aG9uJywgJy1waHQnLCAnMi4wJywgJy1waCcsICc3LjAnLCAnLXRuJywgJzgnLCAnLW1hJywgJzIwMCcsICctaW1hZScsICc8aW5maWxlLm1hZT4nLCAnLW9tYWUnLCAnPG91dGZpbGUubWFlPic=

>  <r_epik_Ionization_Penalty>  (334) 
2.0673

>  <r_epik_Ionization_Penalty_Charging>  (334) 
2.0673

>  <r_epik_Ionization_Penalty_Neutral>  (334) 
4.2888e-14

>  <r_epik_State_Penalty>  (334) 
1.54999

>  <r_epik_Charging_Adjusted_Penalty>  (334) 
3.61729

>  <i_epik_Tot_Q>  (334) 
-2

>  <i_epik_Tot_abs_Q>  (334) 
2

>  <s_epik_Chemistry_Notes>  (334) 
This compound contains an acetal/aminal-like group ( X-CH(R)-Y where X, Y are N, S, or O) that may be acid/base labile, releasing an aldehyde.

>  <s_lp_Force_Field>  (334) 
OPLS3e

>  <r_lp_Energy>  (334) 
37.4679

>  <b_lp_Chiralities_Consistent>  (334) 
1

>  <s_lp_Variant>  (334) 
83:0-8

>  <s_i_glide_gridfile>  (334) 
pfpi4k_grid

>  <i_i_glide_lignum>  (334) 
43

>  <i_i_glide_rotatable_bonds>  (334) 
5

>  <r_i_docking_score>  (334) 
-2.46353

>  <r_i_glide_ligand_efficiency>  (334) 
-0.0879833

>  <r_i_glide_ligand_efficiency_sa>  (334) 
-0.267169

>  <r_i_glide_ligand_efficiency_ln>  (334) 
-0.568655

>  <r_i_glide_gscore>  (334) 
-2.46353

>  <r_i_glide_lipo>  (334) 
-0.504758

>  <r_i_glide_hbond>  (334) 
-0.2

>  <r_i_glide_metal>  (334) 
-0

>  <r_i_glide_rewards>  (334) 
-0.78704

>  <r_i_glide_evdw>  (334) 
-17.854

>  <r_i_glide_ecoul>  (334) 
-0.81048

>  <r_i_glide_erotb>  (334) 
0.129764

>  <r_i_glide_esite>  (334) 
-0.0872286

>  <r_i_glide_emodel>  (334) 
-23.1331

>  <r_i_glide_energy>  (334) 
-18.6644

>  <r_i_glide_einternal>  (334) 
1.9157

>  <r_i_glide_intrahb_reward>  (334) 
-0

>  <i_i_glide_confnum>  (334) 
1

>  <i_i_glide_posenum>  (334) 
15

>  <r_i_glide_eff_state_penalty>  (334) 
0

>  <ligand_id>  (334) 
83

>  <original_smiles>  (334) 
CCC1=C2C=C(OC)C3(C#N)C4(O)OC(OC)C3(C)C2(CC1)OC4=CC(=O)O

>  <smiles>  (334) 
[H]C(C(=O)[O-])=C1OC23C(=C(C([H])([H])C([H])([H])[H])C([H])([H])C2([H])[H])C([H])=C(OC([H])([H])[H])C2(C#N)C1([O-])OC([H])(OC([H])([H])[H])C23C([H])([H])[H]

$$$$
85:0:0
     RDKit          3D

 58 63  0  0  1  0  0  0  0  0999 V2000
    0.9969    4.9933    3.5844 C   0  0  0  0  0  0  0  0  0  0  0  0
    0.5040    3.5159    3.8465 C   0  0  1  0  0  0  0  0  0  0  0  0
    1.5265    2.6136    2.9433 C   0  0  0  0  0  0  0  0  0  0  0  0
    2.0759    1.1390    3.2448 C   0  0  2  0  0  0  0  0  0  0  0  0
    0.9970    0.1457    3.6674 C   0  0  0  0  0  0  0  0  0  0  0  0
    0.7750    0.5773    5.1391 C   0  0  2  0  0  0  0  0  0  0  0  0
    1.9542    1.0404    6.2391 C   0  0  2  0  0  0  0  0  0  0  0  0
    1.5980    1.1220    7.7702 C   0  0  0  0  0  0  0  0  0  0  0  0
    0.8201   -0.1536    8.0030 C   0  0  0  0  0  0  0  0  0  0  0  0
    0.2334   -0.6075    6.8806 C   0  0  0  0  0  0  0  0  0  0  0  0
    1.0019   -1.8022    6.1266 C   0  0  0  0  0  0  0  0  0  0  0  0
    2.5820   -1.7082    5.6342 C   0  0  0  0  0  0  0  0  0  0  0  0
    3.4219   -0.6509    4.6323 C   0  0  0  0  0  0  0  0  0  0  0  0
    3.1886    0.9756    4.3272 C   0  0  2  0  0  0  0  0  0  0  0  0
    2.9060    1.8841    5.6092 C   0  0  1  0  0  0  0  0  0  0  0  0
    2.1070    3.2128    5.7482 C   0  0  0  0  0  0  0  0  0  0  0  0
    0.5450    3.2509    5.4312 C   0  0  2  0  0  0  0  0  0  0  0  0
   -0.5772    2.1480    6.1244 C   0  0  1  0  0  0  0  0  0  0  0  0
   -1.9213    2.6624    5.5713 C   0  0  0  0  0  0  0  0  0  0  0  0
   -1.9914    2.5717    4.0342 C   0  0  0  0  0  0  0  0  0  0  0  0
   -0.9952    3.4865    3.3177 C   0  0  1  0  0  0  0  0  0  0  0  0
   -1.6220    4.7630    3.2760 O   0  0  0  0  0  0  0  0  0  0  0  0
   -0.4269    0.4543    5.9173 C   0  0  1  0  0  0  0  0  0  0  0  0
   -1.6297   -0.3159    5.2812 C   0  0  0  0  0  0  0  0  0  0  0  0
    0.7921    5.3226    2.5627 H   0  0  0  0  0  0  0  0  0  0  0  0
    2.0686    5.1487    3.6872 H   0  0  0  0  0  0  0  0  0  0  0  0
    0.5157    5.7164    4.2451 H   0  0  0  0  0  0  0  0  0  0  0  0
    1.0862    2.5479    1.9474 H   0  0  0  0  0  0  0  0  0  0  0  0
    2.4320    3.1964    2.7610 H   0  0  0  0  0  0  0  0  0  0  0  0
    2.4937    0.7742    2.3057 H   0  0  0  0  0  0  0  0  0  0  0  0
    0.1368    0.2235    2.9860 H   0  0  0  0  0  0  0  0  0  0  0  0
    1.2753   -0.8948    3.5429 H   0  0  0  0  0  0  0  0  0  0  0  0
    0.3111    1.2735    4.5074 H   0  0  0  0  0  0  0  0  0  0  0  0
    2.6707    0.3181    6.5549 H   0  0  0  0  0  0  0  0  0  0  0  0
    2.4986    1.0938    8.3899 H   0  0  0  0  0  0  0  0  0  0  0  0
    1.0750    2.0099    8.1043 H   0  0  0  0  0  0  0  0  0  0  0  0
    1.4068   -0.8687    8.5620 H   0  0  0  0  0  0  0  0  0  0  0  0
    0.9586   -2.6386    6.8253 H   0  0  0  0  0  0  0  0  0  0  0  0
    0.3952   -2.1341    5.2834 H   0  0  0  0  0  0  0  0  0  0  0  0
    3.1570   -1.7414    6.5624 H   0  0  0  0  0  0  0  0  0  0  0  0
    2.7908   -2.6933    5.2156 H   0  0  0  0  0  0  0  0  0  0  0  0
    4.4518   -0.7153    4.9884 H   0  0  0  0  0  0  0  0  0  0  0  0
    3.4844   -1.1379    3.6575 H   0  0  0  0  0  0  0  0  0  0  0  0
    4.1063    1.3569    3.8736 H   0  0  0  0  0  0  0  0  0  0  0  0
    3.8287    1.9732    6.1889 H   0  0  0  0  0  0  0  0  0  0  0  0
    2.2038    3.5372    6.7841 H   0  0  0  0  0  0  0  0  0  0  0  0
    2.6753    3.9811    5.2363 H   0  0  0  0  0  0  0  0  0  0  0  0
    0.2186    4.1929    5.8711 H   0  0  0  0  0  0  0  0  0  0  0  0
   -0.6781    2.3542    7.1837 H   0  0  0  0  0  0  0  0  0  0  0  0
   -2.7545    2.1463    6.0412 H   0  0  0  0  0  0  0  0  0  0  0  0
   -2.0608    3.7025    5.8617 H   0  0  0  0  0  0  0  0  0  0  0  0
   -1.8011    1.5739    3.6656 H   0  0  0  0  0  0  0  0  0  0  0  0
   -3.0084    2.7846    3.6968 H   0  0  0  0  0  0  0  0  0  0  0  0
   -0.9943    3.1593    2.2800 H   0  0  0  0  0  0  0  0  0  0  0  0
   -1.2224    5.2035    2.5326 H   0  0  0  0  0  0  0  0  0  0  0  0
   -2.5827    0.1374    5.5040 H   0  0  0  0  0  0  0  0  0  0  0  0
   -1.7152   -1.3299    5.6751 H   0  0  0  0  0  0  0  0  0  0  0  0
   -1.5536   -0.4441    4.2019 H   0  0  0  0  0  0  0  0  0  0  0  0
  2  1  1  1
  1 25  1  0
  1 26  1  0
  1 27  1  0
  2 17  1  0
  2 21  1  0
  2  3  1  0
  3  4  1  0
  3 28  1  0
  3 29  1  0
  4 14  1  0
  4  5  1  0
  4 30  1  6
  5  6  1  0
  5 31  1  0
  5 32  1  0
  6 23  1  0
  6  7  1  0
  6 33  1  6
  7 15  1  0
  7  8  1  0
  7 34  1  1
  8  9  1  0
  8 35  1  0
  8 36  1  0
  9 10  2  0
  9 37  1  0
 10 23  1  0
 10 11  1  0
 11 12  1  0
 11 38  1  0
 11 39  1  0
 12 13  1  0
 12 40  1  0
 12 41  1  0
 13 14  1  0
 13 42  1  0
 13 43  1  0
 14 15  1  0
 14 44  1  6
 15 16  1  0
 15 45  1  1
 16 17  1  0
 16 46  1  0
 16 47  1  0
 17 18  1  0
 17 48  1  1
 18 19  1  0
 18 23  1  0
 18 49  1  1
 19 20  1  0
 19 50  1  0
 19 51  1  0
 20 21  1  0
 20 52  1  0
 20 53  1  0
 21 22  1  0
 21 54  1  6
 22 55  1  0
 23 24  1  6
 24 56  1  0
 24 57  1  0
 24 58  1  0
M  END
>  <i_m_ct_stereo_status>  (335) 
1

>  <s_m_source_file>  (335) 
/var/tmp/pbs.5076255.sched01/tmpz7l6rxva/92z_h6r8yo.sdf

>  <i_m_source_file_index>  (335) 
45

>  <i_lp_mmshare_version>  (335) 
48012

>  <i_f3d_flags>  (335) 
0

>  <s_epik_input>  (335) 
W09IXVtDQEBIXTFbQ0gyXVtDSDJdW0NASF0oW0NIXTJbQ0BdMTNbQ0gzXSlDNChbQ0gzXSlbQ0BASF01W0NASF02W0NASF0oW0NIMl0yKVtDQEhdKFtDQEhdKFtDSDJdMylbQ0gyXTUpW0NIMl1bQ0gyXVtDSDJdQzQ9W0NIXVtDSDJdNg==

>  <s_epik_cmdline>  (335) 
J2VwaWtfcHl0aG9uJywgJy1waHQnLCAnMi4wJywgJy1waCcsICc3LjAnLCAnLXRuJywgJzgnLCAnLW1hJywgJzIwMCcsICctaW1hZScsICc8aW5maWxlLm1hZT4nLCAnLW9tYWUnLCAnPG91dGZpbGUubWFlPic=

>  <r_lp_tautomer_probability>  (335) 
1

>  <r_epik_Ionization_Penalty>  (335) 
3.50034e-06

>  <r_epik_Ionization_Penalty_Charging>  (335) 
0

>  <r_epik_Ionization_Penalty_Neutral>  (335) 
3.50034e-06

>  <r_epik_State_Penalty>  (335) 
-0

>  <r_epik_Charging_Adjusted_Penalty>  (335) 
0

>  <i_epik_Tot_Q>  (335) 
0

>  <i_epik_Tot_abs_Q>  (335) 
0

>  <s_lp_Force_Field>  (335) 
OPLS3e

>  <r_lp_Energy>  (335) 
373.844

>  <b_lp_Chiralities_Consistent>  (335) 
1

>  <s_lp_Variant>  (335) 
85:0-1

>  <s_i_glide_gridfile>  (335) 
pfpi4k_grid

>  <i_i_glide_lignum>  (335) 
45

>  <i_i_glide_rotatable_bonds>  (335) 
1

>  <r_i_docking_score>  (335) 
-3.1879

>  <r_i_glide_ligand_efficiency>  (335) 
-0.132829

>  <r_i_glide_ligand_efficiency_sa>  (335) 
-0.383146

>  <r_i_glide_ligand_efficiency_ln>  (335) 
-0.763011

>  <r_i_glide_gscore>  (335) 
-3.1879

>  <r_i_glide_lipo>  (335) 
-0.0574975

>  <r_i_glide_hbond>  (335) 
-0.183832

>  <r_i_glide_metal>  (335) 
-0

>  <r_i_glide_rewards>  (335) 
-1.18285

>  <r_i_glide_evdw>  (335) 
-18.7833

>  <r_i_glide_ecoul>  (335) 
-5.49707

>  <r_i_glide_erotb>  (335) 
0

>  <r_i_glide_esite>  (335) 
0

>  <r_i_glide_emodel>  (335) 
-29.6761

>  <r_i_glide_energy>  (335) 
-24.2803

>  <r_i_glide_einternal>  (335) 
0.499417

>  <r_i_glide_intrahb_reward>  (335) 
-0

>  <i_i_glide_confnum>  (335) 
2

>  <i_i_glide_posenum>  (335) 
17

>  <r_i_glide_eff_state_penalty>  (335) 
0

>  <ligand_id>  (335) 
85

>  <original_smiles>  (335) 
CC12CC3CC4C5CC=C6CCCC3C5CC1C(CCC2O)C64C

>  <smiles>  (335) 
[H]OC1([H])C([H])([H])C([H])([H])C2([H])C3([H])C([H])([H])C4([H])C5([H])C([H])([H])C([H])=C6C([H])([H])C([H])([H])C([H])([H])C4([H])C([H])(C([H])([H])C5([H])C62C([H])([H])[H])C([H])([H])C13C([H])([H])[H]

$$$$
85:0:1
     RDKit          3D

 58 63  0  0  1  0  0  0  0  0999 V2000
    1.6709    4.4387    3.6148 C   0  0  0  0  0  0  0  0  0  0  0  0
    0.9163    3.0651    3.7750 C   0  0  1  0  0  0  0  0  0  0  0  0
    1.5573    2.1582    2.5721 C   0  0  0  0  0  0  0  0  0  0  0  0
    1.8053    0.5762    2.5514 C   0  0  2  0  0  0  0  0  0  0  0  0
    0.6164   -0.2462    3.0363 C   0  0  0  0  0  0  0  0  0  0  0  0
    0.7349   -0.0511    4.5692 C   0  0  2  0  0  0  0  0  0  0  0  0
    2.1506   -0.0282    5.4688 C   0  0  2  0  0  0  0  0  0  0  0  0
    2.0761   -0.1538    7.0355 C   0  0  0  0  0  0  0  0  0  0  0  0
    1.0795   -1.2760    7.2346 C   0  0  0  0  0  0  0  0  0  0  0  0
    0.2332   -1.3996    6.1994 C   0  0  0  0  0  0  0  0  0  0  0  0
    0.5838   -2.5670    5.1466 C   0  0  0  0  0  0  0  0  0  0  0  0
    2.0444   -2.6942    4.3725 C   0  0  0  0  0  0  0  0  0  0  0  0
    2.9250   -1.6579    3.3833 C   0  0  0  0  0  0  0  0  0  0  0  0
    3.0137    0.0115    3.3611 C   0  0  2  0  0  0  0  0  0  0  0  0
    3.1522    0.7149    4.7875 C   0  0  1  0  0  0  0  0  0  0  0  0
    2.7020    2.1273    5.2654 C   0  0  0  0  0  0  0  0  0  0  0  0
    1.1570    2.5218    5.2693 C   0  0  2  0  0  0  0  0  0  0  0  0
   -0.0568    1.5518    6.0101 C   0  0  1  0  0  0  0  0  0  0  0  0
   -1.3263    2.4023    5.8026 C   0  0  0  0  0  0  0  0  0  0  0  0
   -1.6599    2.6019    4.3100 C   0  0  0  0  0  0  0  0  0  0  0  0
   -0.6147    3.4241    3.5474 C   0  0  1  0  0  0  0  0  0  0  0  0
   -0.9536    4.7787    3.8250 O   0  0  0  0  0  0  0  0  0  0  0  0
   -0.3251   -0.0744    5.5450 C   0  0  1  0  0  0  0  0  0  0  0  0
   -1.7595   -0.4709    5.0617 C   0  0  0  0  0  0  0  0  0  0  0  0
    1.3710    4.9522    2.6994 H   0  0  0  0  0  0  0  0  0  0  0  0
    2.7529    4.3681    3.5324 H   0  0  0  0  0  0  0  0  0  0  0  0
    1.4759    5.1178    4.4478 H   0  0  0  0  0  0  0  0  0  0  0  0
    0.9648    2.3652    1.6812 H   0  0  0  0  0  0  0  0  0  0  0  0
    2.5296    2.5761    2.3054 H   0  0  0  0  0  0  0  0  0  0  0  0
    1.9698    0.3087    1.5060 H   0  0  0  0  0  0  0  0  0  0  0  0
   -0.3003    0.1220    2.5521 H   0  0  0  0  0  0  0  0  0  0  0  0
    0.6286   -1.2823    2.7138 H   0  0  0  0  0  0  0  0  0  0  0  0
    0.3441    0.8231    4.1444 H   0  0  0  0  0  0  0  0  0  0  0  0
    2.7305   -0.9197    5.5321 H   0  0  0  0  0  0  0  0  0  0  0  0
    3.0358   -0.4656    7.4561 H   0  0  0  0  0  0  0  0  0  0  0  0
    1.8259    0.7443    7.5871 H   0  0  0  0  0  0  0  0  0  0  0  0
    1.5753   -2.1803    7.5615 H   0  0  0  0  0  0  0  0  0  0  0  0
    0.4687   -3.4906    5.7163 H   0  0  0  0  0  0  0  0  0  0  0  0
   -0.2095   -2.6202    4.4012 H   0  0  0  0  0  0  0  0  0  0  0  0
    2.7403   -3.0025    5.1557 H   0  0  0  0  0  0  0  0  0  0  0  0
    1.9585   -3.6101    3.7878 H   0  0  0  0  0  0  0  0  0  0  0  0
    3.9590   -1.9831    3.5175 H   0  0  0  0  0  0  0  0  0  0  0  0
    2.7192   -1.9658    2.3567 H   0  0  0  0  0  0  0  0  0  0  0  0
    3.9076    0.2846    2.7941 H   0  0  0  0  0  0  0  0  0  0  0  0
    4.1531    0.5196    5.1811 H   0  0  0  0  0  0  0  0  0  0  0  0
    3.0367    2.2363    6.2965 H   0  0  0  0  0  0  0  0  0  0  0  0
    3.3357    2.8497    4.7633 H   0  0  0  0  0  0  0  0  0  0  0  0
    1.1249    3.4174    5.8921 H   0  0  0  0  0  0  0  0  0  0  0  0
    0.0652    1.5818    7.0873 H   0  0  0  0  0  0  0  0  0  0  0  0
   -2.1711    1.9816    6.3430 H   0  0  0  0  0  0  0  0  0  0  0  0
   -1.1821    3.3811    6.2596 H   0  0  0  0  0  0  0  0  0  0  0  0
   -1.7587    1.6675    3.7751 H   0  0  0  0  0  0  0  0  0  0  0  0
   -2.6442    3.0639    4.2155 H   0  0  0  0  0  0  0  0  0  0  0  0
   -0.8481    3.3200    2.4876 H   0  0  0  0  0  0  0  0  0  0  0  0
   -0.5096    5.2973    3.1657 H   0  0  0  0  0  0  0  0  0  0  0  0
   -2.5574    0.1046    5.5203 H   0  0  0  0  0  0  0  0  0  0  0  0
   -2.0013   -1.5035    5.3142 H   0  0  0  0  0  0  0  0  0  0  0  0
   -1.8820   -0.4183    3.9830 H   0  0  0  0  0  0  0  0  0  0  0  0
  2  1  1  1
  1 25  1  0
  1 26  1  0
  1 27  1  0
  2 17  1  0
  2 21  1  0
  2  3  1  0
  3  4  1  0
  3 28  1  0
  3 29  1  0
  4 14  1  0
  4  5  1  0
  4 30  1  6
  5  6  1  0
  5 31  1  0
  5 32  1  0
  6 23  1  0
  6  7  1  0
  6 33  1  6
  7 15  1  0
  7  8  1  0
  7 34  1  6
  8  9  1  0
  8 35  1  0
  8 36  1  0
  9 10  2  0
  9 37  1  0
 10 23  1  0
 10 11  1  0
 11 12  1  0
 11 38  1  0
 11 39  1  0
 12 13  1  0
 12 40  1  0
 12 41  1  0
 13 14  1  0
 13 42  1  0
 13 43  1  0
 14 15  1  0
 14 44  1  6
 15 16  1  0
 15 45  1  1
 16 17  1  0
 16 46  1  0
 16 47  1  0
 17 18  1  0
 17 48  1  1
 18 19  1  0
 18 23  1  0
 18 49  1  1
 19 20  1  0
 19 50  1  0
 19 51  1  0
 20 21  1  0
 20 52  1  0
 20 53  1  0
 21 22  1  0
 21 54  1  6
 22 55  1  0
 23 24  1  6
 24 56  1  0
 24 57  1  0
 24 58  1  0
M  END
>  <i_m_ct_stereo_status>  (336) 
1

>  <s_m_source_file>  (336) 
/var/tmp/pbs.5076255.sched01/tmpz7l6rxva/92z_h6r8yo.sdf

>  <i_m_source_file_index>  (336) 
45

>  <i_lp_mmshare_version>  (336) 
48012

>  <i_f3d_flags>  (336) 
0

>  <s_epik_input>  (336) 
W09IXVtDQEBIXTFbQ0gyXVtDSDJdW0NASF0oW0NIXTJbQ0BdMTNbQ0gzXSlDNChbQ0gzXSlbQ0BASF01W0NASF02W0NASF0oW0NIMl0yKVtDQEhdKFtDQEhdKFtDSDJdMylbQ0gyXTUpW0NIMl1bQ0gyXVtDSDJdQzQ9W0NIXVtDSDJdNg==

>  <s_epik_cmdline>  (336) 
J2VwaWtfcHl0aG9uJywgJy1waHQnLCAnMi4wJywgJy1waCcsICc3LjAnLCAnLXRuJywgJzgnLCAnLW1hJywgJzIwMCcsICctaW1hZScsICc8aW5maWxlLm1hZT4nLCAnLW9tYWUnLCAnPG91dGZpbGUubWFlPic=

>  <r_lp_tautomer_probability>  (336) 
1

>  <r_epik_Ionization_Penalty>  (336) 
3.50034e-06

>  <r_epik_Ionization_Penalty_Charging>  (336) 
0

>  <r_epik_Ionization_Penalty_Neutral>  (336) 
3.50034e-06

>  <r_epik_State_Penalty>  (336) 
-0

>  <r_epik_Charging_Adjusted_Penalty>  (336) 
0

>  <i_epik_Tot_Q>  (336) 
0

>  <i_epik_Tot_abs_Q>  (336) 
0

>  <s_lp_Force_Field>  (336) 
OPLS3e

>  <r_lp_Energy>  (336) 
373.844

>  <b_lp_Chiralities_Consistent>  (336) 
1

>  <s_lp_Variant>  (336) 
85:0-1

>  <s_i_glide_gridfile>  (336) 
pfpi4k_grid

>  <i_i_glide_lignum>  (336) 
45

>  <i_i_glide_rotatable_bonds>  (336) 
1

>  <r_i_docking_score>  (336) 
-3.0008

>  <r_i_glide_ligand_efficiency>  (336) 
-0.125033

>  <r_i_glide_ligand_efficiency_sa>  (336) 
-0.360659

>  <r_i_glide_ligand_efficiency_ln>  (336) 
-0.718229

>  <r_i_glide_gscore>  (336) 
-3.0008

>  <r_i_glide_lipo>  (336) 
-0.00456081

>  <r_i_glide_hbond>  (336) 
-0.0965974

>  <r_i_glide_metal>  (336) 
-0

>  <r_i_glide_rewards>  (336) 
-1.18285

>  <r_i_glide_evdw>  (336) 
-22.1186

>  <r_i_glide_ecoul>  (336) 
-4.07241

>  <r_i_glide_erotb>  (336) 
0

>  <r_i_glide_esite>  (336) 
0

>  <r_i_glide_emodel>  (336) 
-31.3888

>  <r_i_glide_energy>  (336) 
-26.1911

>  <r_i_glide_einternal>  (336) 
0.383908

>  <r_i_glide_intrahb_reward>  (336) 
-0

>  <i_i_glide_confnum>  (336) 
2

>  <i_i_glide_posenum>  (336) 
8

>  <r_i_glide_eff_state_penalty>  (336) 
0

>  <ligand_id>  (336) 
85

>  <original_smiles>  (336) 
CC12CC3CC4C5CC=C6CCCC3C5CC1C(CCC2O)C64C

>  <smiles>  (336) 
[H]OC1([H])C([H])([H])C([H])([H])C2([H])C3([H])C([H])([H])C4([H])C5([H])C([H])([H])C([H])=C6C([H])([H])C([H])([H])C([H])([H])C4([H])C([H])(C([H])([H])C5([H])C62C([H])([H])[H])C([H])([H])C13C([H])([H])[H]

$$$$
85:0:2
     RDKit          3D

 58 63  0  0  1  0  0  0  0  0999 V2000
    1.6497    4.4369    3.7701 C   0  0  0  0  0  0  0  0  0  0  0  0
    0.9212    3.0448    3.8359 C   0  0  1  0  0  0  0  0  0  0  0  0
    1.5143    2.2675    2.5261 C   0  0  0  0  0  0  0  0  0  0  0  0
    1.7732    0.6997    2.3376 C   0  0  2  0  0  0  0  0  0  0  0  0
    0.6170   -0.1823    2.7970 C   0  0  0  0  0  0  0  0  0  0  0  0
    0.8101   -0.1355    4.3330 C   0  0  2  0  0  0  0  0  0  0  0  0
    2.2684   -0.1812    5.1596 C   0  0  2  0  0  0  0  0  0  0  0  0
    2.2752   -0.4597    6.7077 C   0  0  0  0  0  0  0  0  0  0  0  0
    1.3014   -1.6098    6.8453 C   0  0  0  0  0  0  0  0  0  0  0  0
    0.4038   -1.6421    5.8455 C   0  0  0  0  0  0  0  0  0  0  0  0
    0.7104   -2.6957    4.6671 C   0  0  0  0  0  0  0  0  0  0  0  0
    2.1313   -2.7277    3.8116 C   0  0  0  0  0  0  0  0  0  0  0  0
    2.9527   -1.5883    2.8877 C   0  0  0  0  0  0  0  0  0  0  0  0
    3.0245    0.0752    3.0258 C   0  0  2  0  0  0  0  0  0  0  0  0
    3.2281    0.6394    4.5057 C   0  0  1  0  0  0  0  0  0  0  0  0
    2.7880    1.9920    5.1403 C   0  0  0  0  0  0  0  0  0  0  0  0
    1.2420    2.3630    5.2586 C   0  0  2  0  0  0  0  0  0  0  0  0
    0.0774    1.3094    5.9580 C   0  0  1  0  0  0  0  0  0  0  0  0
   -1.2092    2.1583    5.8962 C   0  0  0  0  0  0  0  0  0  0  0  0
   -1.6171    2.4959    4.4450 C   0  0  0  0  0  0  0  0  0  0  0  0
   -0.6234    3.4063    3.7130 C   0  0  1  0  0  0  0  0  0  0  0  0
   -0.9653    4.7040    4.1930 O   0  0  0  0  0  0  0  0  0  0  0  0
   -0.1990   -0.2678    5.3531 C   0  0  1  0  0  0  0  0  0  0  0  0
   -1.6521   -0.6350    4.9049 C   0  0  0  0  0  0  0  0  0  0  0  0
    1.2846    5.0301    2.9278 H   0  0  0  0  0  0  0  0  0  0  0  0
    2.7270    4.3899    3.6224 H   0  0  0  0  0  0  0  0  0  0  0  0
    1.4991    5.0290    4.6748 H   0  0  0  0  0  0  0  0  0  0  0  0
    0.8721    2.5465    1.6913 H   0  0  0  0  0  0  0  0  0  0  0  0
    2.4655    2.7241    2.2473 H   0  0  0  0  0  0  0  0  0  0  0  0
    1.8847    0.5361    1.2646 H   0  0  0  0  0  0  0  0  0  0  0  0
   -0.3274    0.2115    2.3953 H   0  0  0  0  0  0  0  0  0  0  0  0
    0.6256   -1.1807    2.3724 H   0  0  0  0  0  0  0  0  0  0  0  0
    0.3877    0.7699    4.0152 H   0  0  0  0  0  0  0  0  0  0  0  0
    2.8584   -1.0673    5.1060 H   0  0  0  0  0  0  0  0  0  0  0  0
    3.2566   -0.7979    7.0468 H   0  0  0  0  0  0  0  0  0  0  0  0
    2.0433    0.3759    7.3552 H   0  0  0  0  0  0  0  0  0  0  0  0
    1.8194   -2.5344    7.0553 H   0  0  0  0  0  0  0  0  0  0  0  0
    0.6327   -3.6724    5.1473 H   0  0  0  0  0  0  0  0  0  0  0  0
   -0.1209   -2.6845    3.9605 H   0  0  0  0  0  0  0  0  0  0  0  0
    2.8681   -3.1017    4.5251 H   0  0  0  0  0  0  0  0  0  0  0  0
    2.0230   -3.5828    3.1442 H   0  0  0  0  0  0  0  0  0  0  0  0
    3.9942   -1.9107    2.9366 H   0  0  0  0  0  0  0  0  0  0  0  0
    2.6958   -1.7951    1.8469 H   0  0  0  0  0  0  0  0  0  0  0  0
    3.8846    0.4169    2.4441 H   0  0  0  0  0  0  0  0  0  0  0  0
    4.2490    0.4198    4.8285 H   0  0  0  0  0  0  0  0  0  0  0  0
    3.1735    2.0032    6.1605 H   0  0  0  0  0  0  0  0  0  0  0  0
    3.3888    2.7694    4.6820 H   0  0  0  0  0  0  0  0  0  0  0  0
    1.2354    3.1911    5.9661 H   0  0  0  0  0  0  0  0  0  0  0  0
    0.2521    1.2346    7.0278 H   0  0  0  0  0  0  0  0  0  0  0  0
   -2.0213    1.6733    6.4321 H   0  0  0  0  0  0  0  0  0  0  0  0
   -1.0522    3.0865    6.4449 H   0  0  0  0  0  0  0  0  0  0  0  0
   -1.7352    1.6153    3.8290 H   0  0  0  0  0  0  0  0  0  0  0  0
   -2.6097    2.9493    4.4466 H   0  0  0  0  0  0  0  0  0  0  0  0
   -0.9083    3.4082    2.6588 H   0  0  0  0  0  0  0  0  0  0  0  0
   -0.5304    4.8261    5.0217 H   0  0  0  0  0  0  0  0  0  0  0  0
   -2.4325   -0.1170    5.4531 H   0  0  0  0  0  0  0  0  0  0  0  0
   -1.8683   -1.6892    5.0743 H   0  0  0  0  0  0  0  0  0  0  0  0
   -1.8275   -0.4818    3.8436 H   0  0  0  0  0  0  0  0  0  0  0  0
  2  1  1  1
  1 25  1  0
  1 26  1  0
  1 27  1  0
  2 17  1  0
  2 21  1  0
  2  3  1  0
  3  4  1  0
  3 28  1  0
  3 29  1  0
  4 14  1  0
  4  5  1  0
  4 30  1  6
  5  6  1  0
  5 31  1  0
  5 32  1  0
  6 23  1  0
  6  7  1  0
  6 33  1  6
  7 15  1  0
  7  8  1  0
  7 34  1  6
  8  9  1  0
  8 35  1  0
  8 36  1  0
  9 10  2  0
  9 37  1  0
 10 23  1  0
 10 11  1  0
 11 12  1  0
 11 38  1  0
 11 39  1  0
 12 13  1  0
 12 40  1  0
 12 41  1  0
 13 14  1  0
 13 42  1  0
 13 43  1  0
 14 15  1  0
 14 44  1  6
 15 16  1  0
 15 45  1  1
 16 17  1  0
 16 46  1  0
 16 47  1  0
 17 18  1  0
 17 48  1  1
 18 19  1  0
 18 23  1  0
 18 49  1  1
 19 20  1  0
 19 50  1  0
 19 51  1  0
 20 21  1  0
 20 52  1  0
 20 53  1  0
 21 22  1  0
 21 54  1  6
 22 55  1  0
 23 24  1  6
 24 56  1  0
 24 57  1  0
 24 58  1  0
M  END
>  <i_m_ct_stereo_status>  (337) 
1

>  <s_m_source_file>  (337) 
/var/tmp/pbs.5076255.sched01/tmpz7l6rxva/92z_h6r8yo.sdf

>  <i_m_source_file_index>  (337) 
45

>  <i_lp_mmshare_version>  (337) 
48012

>  <i_f3d_flags>  (337) 
0

>  <s_epik_input>  (337) 
W09IXVtDQEBIXTFbQ0gyXVtDSDJdW0NASF0oW0NIXTJbQ0BdMTNbQ0gzXSlDNChbQ0gzXSlbQ0BASF01W0NASF02W0NASF0oW0NIMl0yKVtDQEhdKFtDQEhdKFtDSDJdMylbQ0gyXTUpW0NIMl1bQ0gyXVtDSDJdQzQ9W0NIXVtDSDJdNg==

>  <s_epik_cmdline>  (337) 
J2VwaWtfcHl0aG9uJywgJy1waHQnLCAnMi4wJywgJy1waCcsICc3LjAnLCAnLXRuJywgJzgnLCAnLW1hJywgJzIwMCcsICctaW1hZScsICc8aW5maWxlLm1hZT4nLCAnLW9tYWUnLCAnPG91dGZpbGUubWFlPic=

>  <r_lp_tautomer_probability>  (337) 
1

>  <r_epik_Ionization_Penalty>  (337) 
3.50034e-06

>  <r_epik_Ionization_Penalty_Charging>  (337) 
0

>  <r_epik_Ionization_Penalty_Neutral>  (337) 
3.50034e-06

>  <r_epik_State_Penalty>  (337) 
-0

>  <r_epik_Charging_Adjusted_Penalty>  (337) 
0

>  <i_epik_Tot_Q>  (337) 
0

>  <i_epik_Tot_abs_Q>  (337) 
0

>  <s_lp_Force_Field>  (337) 
OPLS3e

>  <r_lp_Energy>  (337) 
373.844

>  <b_lp_Chiralities_Consistent>  (337) 
1

>  <s_lp_Variant>  (337) 
85:0-1

>  <s_i_glide_gridfile>  (337) 
pfpi4k_grid

>  <i_i_glide_lignum>  (337) 
45

>  <i_i_glide_rotatable_bonds>  (337) 
1

>  <r_i_docking_score>  (337) 
-2.78469

>  <r_i_glide_ligand_efficiency>  (337) 
-0.116029

>  <r_i_glide_ligand_efficiency_sa>  (337) 
-0.334685

>  <r_i_glide_ligand_efficiency_ln>  (337) 
-0.666504

>  <r_i_glide_gscore>  (337) 
-2.78469

>  <r_i_glide_lipo>  (337) 
-0.0260118

>  <r_i_glide_hbond>  (337) 
-0.0615586

>  <r_i_glide_metal>  (337) 
-0

>  <r_i_glide_rewards>  (337) 
-1.18285

>  <r_i_glide_evdw>  (337) 
-22.6753

>  <r_i_glide_ecoul>  (337) 
-2.53672

>  <r_i_glide_erotb>  (337) 
0

>  <r_i_glide_esite>  (337) 
0

>  <r_i_glide_emodel>  (337) 
-30.0208

>  <r_i_glide_energy>  (337) 
-25.212

>  <r_i_glide_einternal>  (337) 
0.248222

>  <r_i_glide_intrahb_reward>  (337) 
-0

>  <i_i_glide_confnum>  (337) 
1

>  <i_i_glide_posenum>  (337) 
27

>  <r_i_glide_eff_state_penalty>  (337) 
0

>  <ligand_id>  (337) 
85

>  <original_smiles>  (337) 
CC12CC3CC4C5CC=C6CCCC3C5CC1C(CCC2O)C64C

>  <smiles>  (337) 
[H]OC1([H])C([H])([H])C([H])([H])C2([H])C3([H])C([H])([H])C4([H])C5([H])C([H])([H])C([H])=C6C([H])([H])C([H])([H])C([H])([H])C4([H])C([H])(C([H])([H])C5([H])C62C([H])([H])[H])C([H])([H])C13C([H])([H])[H]

$$$$
85:1:0
     RDKit          3D

 58 63  0  0  1  0  0  0  0  0999 V2000
    1.6642    4.3703    3.8578 C   0  0  0  0  0  0  0  0  0  0  0  0
    0.9299    2.9803    3.8123 C   0  0  1  0  0  0  0  0  0  0  0  0
    1.6295    2.1838    2.6089 C   0  0  0  0  0  0  0  0  0  0  0  0
    1.5843    0.6130    2.5638 C   0  0  2  0  0  0  0  0  0  0  0  0
    0.3025    0.1915    3.1761 C   0  0  0  0  0  0  0  0  0  0  0  0
    0.5870   -0.3305    4.6066 C   0  0  1  0  0  0  0  0  0  0  0  0
    2.0713   -0.3481    5.4030 C   0  0  2  0  0  0  0  0  0  0  0  0
    2.1170   -0.3542    6.9827 C   0  0  0  0  0  0  0  0  0  0  0  0
    1.0434   -1.3280    7.3878 C   0  0  0  0  0  0  0  0  0  0  0  0
    0.1463   -1.5206    6.4150 C   0  0  0  0  0  0  0  0  0  0  0  0
    0.4542   -2.8628    5.5465 C   0  0  0  0  0  0  0  0  0  0  0  0
    1.7064   -2.9950    4.4129 C   0  0  0  0  0  0  0  0  0  0  0  0
    2.3245   -1.9493    3.2126 C   0  0  0  0  0  0  0  0  0  0  0  0
    2.7036   -0.2896    3.2210 C   0  0  2  0  0  0  0  0  0  0  0  0
    3.0474    0.3423    4.6270 C   0  0  1  0  0  0  0  0  0  0  0  0
    2.7272    1.7748    5.1250 C   0  0  0  0  0  0  0  0  0  0  0  0
    1.2045    2.2462    5.1873 C   0  0  2  0  0  0  0  0  0  0  0  0
   -0.0095    1.3839    5.9476 C   0  0  1  0  0  0  0  0  0  0  0  0
   -1.2106    2.3501    5.9284 C   0  0  0  0  0  0  0  0  0  0  0  0
   -1.6840    2.7740    4.5291 C   0  0  0  0  0  0  0  0  0  0  0  0
   -0.6083    3.3158    3.5483 C   0  0  1  0  0  0  0  0  0  0  0  0
   -0.9183    4.6798    3.2774 O   0  0  0  0  0  0  0  0  0  0  0  0
   -0.3783   -0.2104    5.6395 C   0  0  1  0  0  0  0  0  0  0  0  0
   -1.8537   -0.5027    5.2488 C   0  0  0  0  0  0  0  0  0  0  0  0
    1.5678    4.9040    2.9095 H   0  0  0  0  0  0  0  0  0  0  0  0
    2.7330    4.3215    4.0477 H   0  0  0  0  0  0  0  0  0  0  0  0
    1.2497    5.0115    4.6384 H   0  0  0  0  0  0  0  0  0  0  0  0
    1.1816    2.5442    1.6822 H   0  0  0  0  0  0  0  0  0  0  0  0
    2.6742    2.4811    2.4938 H   0  0  0  0  0  0  0  0  0  0  0  0
    1.5592    0.3449    1.5042 H   0  0  0  0  0  0  0  0  0  0  0  0
   -0.4798    0.9219    3.1437 H   0  0  0  0  0  0  0  0  0  0  0  0
   -0.1202   -0.5469    2.4861 H   0  0  0  0  0  0  0  0  0  0  0  0
    0.2588   -1.2250    4.1397 H   0  0  0  0  0  0  0  0  0  0  0  0
    2.6236   -1.2611    5.4350 H   0  0  0  0  0  0  0  0  0  0  0  0
    3.0758   -0.7351    7.3421 H   0  0  0  0  0  0  0  0  0  0  0  0
    2.0033    0.6005    7.4857 H   0  0  0  0  0  0  0  0  0  0  0  0
    1.4938   -2.2064    7.8281 H   0  0  0  0  0  0  0  0  0  0  0  0
    0.6002   -3.6713    6.2647 H   0  0  0  0  0  0  0  0  0  0  0  0
   -0.4712   -3.1351    5.0399 H   0  0  0  0  0  0  0  0  0  0  0  0
    2.5744   -3.3119    4.9952 H   0  0  0  0  0  0  0  0  0  0  0  0
    1.4681   -3.9091    3.8668 H   0  0  0  0  0  0  0  0  0  0  0  0
    3.2599   -2.4299    2.9208 H   0  0  0  0  0  0  0  0  0  0  0  0
    1.6994   -2.1045    2.3339 H   0  0  0  0  0  0  0  0  0  0  0  0
    3.5879   -0.1589    2.5933 H   0  0  0  0  0  0  0  0  0  0  0  0
    4.0718    0.0823    4.9124 H   0  0  0  0  0  0  0  0  0  0  0  0
    3.1397    1.8842    6.1274 H   0  0  0  0  0  0  0  0  0  0  0  0
    3.3745    2.4505    4.5743 H   0  0  0  0  0  0  0  0  0  0  0  0
    1.2817    3.0791    5.8893 H   0  0  0  0  0  0  0  0  0  0  0  0
    0.2087    1.4020    7.0105 H   0  0  0  0  0  0  0  0  0  0  0  0
   -2.0423    1.9505    6.5062 H   0  0  0  0  0  0  0  0  0  0  0  0
   -0.9267    3.2606    6.4602 H   0  0  0  0  0  0  0  0  0  0  0  0
   -2.1977    1.9495    4.0472 H   0  0  0  0  0  0  0  0  0  0  0  0
   -2.4806    3.5081    4.6532 H   0  0  0  0  0  0  0  0  0  0  0  0
   -0.8629    2.9023    2.5746 H   0  0  0  0  0  0  0  0  0  0  0  0
   -0.5631    4.8580    2.4025 H   0  0  0  0  0  0  0  0  0  0  0  0
   -2.1427   -0.1058    4.2810 H   0  0  0  0  0  0  0  0  0  0  0  0
   -2.5543   -0.1341    5.9966 H   0  0  0  0  0  0  0  0  0  0  0  0
   -2.0398   -1.5740    5.1726 H   0  0  0  0  0  0  0  0  0  0  0  0
  2  1  1  1
  1 25  1  0
  1 26  1  0
  1 27  1  0
  2 17  1  0
  2 21  1  0
  2  3  1  0
  3  4  1  0
  3 28  1  0
  3 29  1  0
  4 14  1  0
  4  5  1  0
  4 30  1  6
  5  6  1  0
  5 31  1  0
  5 32  1  0
  6 23  1  0
  6  7  1  0
  6 33  1  6
  7 15  1  0
  7  8  1  0
  7 34  1  6
  8  9  1  0
  8 35  1  0
  8 36  1  0
  9 10  2  0
  9 37  1  0
 10 23  1  0
 10 11  1  0
 11 12  1  0
 11 38  1  0
 11 39  1  0
 12 13  1  0
 12 40  1  0
 12 41  1  0
 13 14  1  0
 13 42  1  0
 13 43  1  0
 14 15  1  0
 14 44  1  6
 15 16  1  0
 15 45  1  1
 16 17  1  0
 16 46  1  0
 16 47  1  0
 17 18  1  0
 17 48  1  1
 18 19  1  0
 18 23  1  0
 18 49  1  1
 19 20  1  0
 19 50  1  0
 19 51  1  0
 20 21  1  0
 20 52  1  0
 20 53  1  0
 21 22  1  0
 21 54  1  6
 22 55  1  0
 23 24  1  6
 24 56  1  0
 24 57  1  0
 24 58  1  0
M  END
>  <i_m_ct_stereo_status>  (338) 
1

>  <s_m_source_file>  (338) 
/var/tmp/pbs.5076255.sched01/tmpz7l6rxva/92z_h6r8yo.sdf

>  <i_m_source_file_index>  (338) 
46

>  <i_lp_mmshare_version>  (338) 
48012

>  <i_f3d_flags>  (338) 
0

>  <s_epik_input>  (338) 
W09IXVtDQEBIXTFbQ0gyXVtDSDJdW0NASF0oW0NIXTJbQ0BdMTNbQ0gzXSlDNChbQ0gzXSlbQ0BASF01W0NASF02W0NASF0oW0NIMl0yKVtDQEhdKFtDQEhdKFtDSDJdMylbQ0gyXTUpW0NIMl1bQ0gyXVtDSDJdQzQ9W0NIXVtDSDJdNg==

>  <s_epik_cmdline>  (338) 
J2VwaWtfcHl0aG9uJywgJy1waHQnLCAnMi4wJywgJy1waCcsICc3LjAnLCAnLXRuJywgJzgnLCAnLW1hJywgJzIwMCcsICctaW1hZScsICc8aW5maWxlLm1hZT4nLCAnLW9tYWUnLCAnPG91dGZpbGUubWFlPic=

>  <r_lp_tautomer_probability>  (338) 
1

>  <r_epik_Ionization_Penalty>  (338) 
3.50034e-06

>  <r_epik_Ionization_Penalty_Charging>  (338) 
0

>  <r_epik_Ionization_Penalty_Neutral>  (338) 
3.50034e-06

>  <r_epik_State_Penalty>  (338) 
-0

>  <r_epik_Charging_Adjusted_Penalty>  (338) 
0

>  <i_epik_Tot_Q>  (338) 
0

>  <i_epik_Tot_abs_Q>  (338) 
0

>  <s_lp_Force_Field>  (338) 
OPLS3e

>  <r_lp_Energy>  (338) 
352.247

>  <b_lp_Chiralities_Consistent>  (338) 
1

>  <s_lp_Variant>  (338) 
85:0-2

>  <s_i_glide_gridfile>  (338) 
pfpi4k_grid

>  <i_i_glide_lignum>  (338) 
46

>  <i_i_glide_rotatable_bonds>  (338) 
1

>  <r_i_docking_score>  (338) 
-3.38436

>  <r_i_glide_ligand_efficiency>  (338) 
-0.141015

>  <r_i_glide_ligand_efficiency_sa>  (338) 
-0.406758

>  <r_i_glide_ligand_efficiency_ln>  (338) 
-0.810032

>  <r_i_glide_gscore>  (338) 
-3.38436

>  <r_i_glide_lipo>  (338) 
-0.00640577

>  <r_i_glide_hbond>  (338) 
-0.201842

>  <r_i_glide_metal>  (338) 
-0

>  <r_i_glide_rewards>  (338) 
-1.18285

>  <r_i_glide_evdw>  (338) 
-22.0022

>  <r_i_glide_ecoul>  (338) 
-5.95437

>  <r_i_glide_erotb>  (338) 
0

>  <r_i_glide_esite>  (338) 
0

>  <r_i_glide_emodel>  (338) 
-34.2919

>  <r_i_glide_energy>  (338) 
-27.9565

>  <r_i_glide_einternal>  (338) 
0.476562

>  <r_i_glide_intrahb_reward>  (338) 
-0

>  <i_i_glide_confnum>  (338) 
2

>  <i_i_glide_posenum>  (338) 
5

>  <r_i_glide_eff_state_penalty>  (338) 
0

>  <ligand_id>  (338) 
85

>  <original_smiles>  (338) 
CC12CC3CC4C5CC=C6CCCC3C5CC1C(CCC2O)C64C

>  <smiles>  (338) 
[H]OC1([H])C([H])([H])C([H])([H])C2([H])C3([H])C([H])([H])C4([H])C5([H])C([H])([H])C([H])=C6C([H])([H])C([H])([H])C([H])([H])C4([H])C([H])(C([H])([H])C5([H])C62C([H])([H])[H])C([H])([H])C13C([H])([H])[H]

$$$$
85:1:1
     RDKit          3D

 58 63  0  0  1  0  0  0  0  0999 V2000
   -1.8433    3.0038    3.0649 C   0  0  0  0  0  0  0  0  0  0  0  0
   -0.6276    2.7822    4.0304 C   0  0  1  0  0  0  0  0  0  0  0  0
   -1.2777    2.1705    5.3585 C   0  0  0  0  0  0  0  0  0  0  0  0
   -0.4075    1.3161    6.3527 C   0  0  2  0  0  0  0  0  0  0  0  0
    0.9740    1.8552    6.3072 C   0  0  0  0  0  0  0  0  0  0  0  0
    1.8470    0.8970    5.4554 C   0  0  1  0  0  0  0  0  0  0  0  0
    1.3374   -0.4849    4.6350 C   0  0  2  0  0  0  0  0  0  0  0  0
    2.1576   -1.0101    3.3902 C   0  0  0  0  0  0  0  0  0  0  0  0
    3.5983   -0.8855    3.8066 C   0  0  0  0  0  0  0  0  0  0  0  0
    3.7587   -0.0121    4.8132 C   0  0  0  0  0  0  0  0  0  0  0  0
    3.8356   -0.7489    6.2638 C   0  0  0  0  0  0  0  0  0  0  0  0
    2.5020   -1.4209    7.0619 C   0  0  0  0  0  0  0  0  0  0  0  0
    0.8856   -0.9188    7.2868 C   0  0  0  0  0  0  0  0  0  0  0  0
   -0.2689   -0.2577    6.2240 C   0  0  2  0  0  0  0  0  0  0  0  0
   -0.0782   -0.5889    4.6920 C   0  0  1  0  0  0  0  0  0  0  0  0
   -0.3968    0.3257    3.4848 C   0  0  0  0  0  0  0  0  0  0  0  0
    0.3423    1.7300    3.3540 C   0  0  2  0  0  0  0  0  0  0  0  0
    2.0010    1.9189    3.4483 C   0  0  1  0  0  0  0  0  0  0  0  0
    2.2173    3.3915    3.0462 C   0  0  0  0  0  0  0  0  0  0  0  0
    1.5346    4.4236    3.9533 C   0  0  0  0  0  0  0  0  0  0  0  0
    0.0233    4.2227    4.2520 C   0  0  1  0  0  0  0  0  0  0  0  0
   -0.6500    5.3006    3.6201 O   0  0  0  0  0  0  0  0  0  0  0  0
    2.9502    1.3821    4.7037 C   0  0  1  0  0  0  0  0  0  0  0  0
    3.8361    2.4528    5.3937 C   0  0  0  0  0  0  0  0  0  0  0  0
   -2.5817    3.6825    3.4979 H   0  0  0  0  0  0  0  0  0  0  0  0
   -2.3992    2.1081    2.8003 H   0  0  0  0  0  0  0  0  0  0  0  0
   -1.5138    3.4304    2.1169 H   0  0  0  0  0  0  0  0  0  0  0  0
   -1.6907    3.0075    5.9263 H   0  0  0  0  0  0  0  0  0  0  0  0
   -2.1686    1.5851    5.1214 H   0  0  0  0  0  0  0  0  0  0  0  0
   -0.8125    1.5094    7.3453 H   0  0  0  0  0  0  0  0  0  0  0  0
    1.0610    2.8754    5.9936 H   0  0  0  0  0  0  0  0  0  0  0  0
    1.2875    1.9676    7.3552 H   0  0  0  0  0  0  0  0  0  0  0  0
    2.3030    0.7782    6.4047 H   0  0  0  0  0  0  0  0  0  0  0  0
    1.5122   -1.4365    5.0862 H   0  0  0  0  0  0  0  0  0  0  0  0
    1.9463   -2.0655    3.2085 H   0  0  0  0  0  0  0  0  0  0  0  0
    1.9789   -0.5297    2.4369 H   0  0  0  0  0  0  0  0  0  0  0  0
    4.0285   -1.8677    3.9365 H   0  0  0  0  0  0  0  0  0  0  0  0
    4.5768   -1.5437    6.1682 H   0  0  0  0  0  0  0  0  0  0  0  0
    4.3017   -0.0409    6.9534 H   0  0  0  0  0  0  0  0  0  0  0  0
    2.4349   -2.4400    6.6776 H   0  0  0  0  0  0  0  0  0  0  0  0
    2.8649   -1.5949    8.0744 H   0  0  0  0  0  0  0  0  0  0  0  0
    0.3999   -1.8128    7.6773 H   0  0  0  0  0  0  0  0  0  0  0  0
    0.9024   -0.2587    8.1550 H   0  0  0  0  0  0  0  0  0  0  0  0
   -1.2444   -0.6581    6.5012 H   0  0  0  0  0  0  0  0  0  0  0  0
   -0.4305   -1.6029    4.4834 H   0  0  0  0  0  0  0  0  0  0  0  0
   -0.1750   -0.2289    2.5727 H   0  0  0  0  0  0  0  0  0  0  0  0
   -1.4779    0.3916    3.4137 H   0  0  0  0  0  0  0  0  0  0  0  0
    0.2098    1.9359    2.2908 H   0  0  0  0  0  0  0  0  0  0  0  0
    2.4237    1.4392    2.5726 H   0  0  0  0  0  0  0  0  0  0  0  0
    3.2795    3.6123    2.9473 H   0  0  0  0  0  0  0  0  0  0  0  0
    1.8202    3.5280    2.0422 H   0  0  0  0  0  0  0  0  0  0  0  0
    2.0619    4.4955    4.8963 H   0  0  0  0  0  0  0  0  0  0  0  0
    1.7016    5.4074    3.5146 H   0  0  0  0  0  0  0  0  0  0  0  0
   -0.1153    4.4846    5.3016 H   0  0  0  0  0  0  0  0  0  0  0  0
   -0.4341    5.2589    2.6897 H   0  0  0  0  0  0  0  0  0  0  0  0
    3.2784    3.1998    5.9516 H   0  0  0  0  0  0  0  0  0  0  0  0
    4.4739    2.9603    4.6730 H   0  0  0  0  0  0  0  0  0  0  0  0
    4.5068    2.0022    6.1225 H   0  0  0  0  0  0  0  0  0  0  0  0
  2  1  1  6
  1 25  1  0
  1 26  1  0
  1 27  1  0
  2 17  1  0
  2 21  1  0
  2  3  1  0
  3  4  1  0
  3 28  1  0
  3 29  1  0
  4 14  1  0
  4  5  1  0
  4 30  1  1
  5  6  1  0
  5 31  1  0
  5 32  1  0
  6 23  1  0
  6  7  1  0
  6 33  1  1
  7 15  1  0
  7  8  1  0
  7 34  1  1
  8  9  1  0
  8 35  1  0
  8 36  1  0
  9 10  2  0
  9 37  1  0
 10 23  1  0
 10 11  1  0
 11 12  1  0
 11 38  1  0
 11 39  1  0
 12 13  1  0
 12 40  1  0
 12 41  1  0
 13 14  1  0
 13 42  1  0
 13 43  1  0
 14 15  1  0
 14 44  1  1
 15 16  1  0
 15 45  1  6
 16 17  1  0
 16 46  1  0
 16 47  1  0
 17 18  1  0
 17 48  1  6
 18 19  1  0
 18 23  1  0
 18 49  1  6
 19 20  1  0
 19 50  1  0
 19 51  1  0
 20 21  1  0
 20 52  1  0
 20 53  1  0
 21 22  1  0
 21 54  1  1
 22 55  1  0
 23 24  1  1
 24 56  1  0
 24 57  1  0
 24 58  1  0
M  END
>  <i_m_ct_stereo_status>  (339) 
1

>  <s_m_source_file>  (339) 
/var/tmp/pbs.5076255.sched01/tmpz7l6rxva/92z_h6r8yo.sdf

>  <i_m_source_file_index>  (339) 
46

>  <i_lp_mmshare_version>  (339) 
48012

>  <i_f3d_flags>  (339) 
0

>  <s_epik_input>  (339) 
W09IXVtDQEBIXTFbQ0gyXVtDSDJdW0NASF0oW0NIXTJbQ0BdMTNbQ0gzXSlDNChbQ0gzXSlbQ0BASF01W0NASF02W0NASF0oW0NIMl0yKVtDQEhdKFtDQEhdKFtDSDJdMylbQ0gyXTUpW0NIMl1bQ0gyXVtDSDJdQzQ9W0NIXVtDSDJdNg==

>  <s_epik_cmdline>  (339) 
J2VwaWtfcHl0aG9uJywgJy1waHQnLCAnMi4wJywgJy1waCcsICc3LjAnLCAnLXRuJywgJzgnLCAnLW1hJywgJzIwMCcsICctaW1hZScsICc8aW5maWxlLm1hZT4nLCAnLW9tYWUnLCAnPG91dGZpbGUubWFlPic=

>  <r_lp_tautomer_probability>  (339) 
1

>  <r_epik_Ionization_Penalty>  (339) 
3.50034e-06

>  <r_epik_Ionization_Penalty_Charging>  (339) 
0

>  <r_epik_Ionization_Penalty_Neutral>  (339) 
3.50034e-06

>  <r_epik_State_Penalty>  (339) 
-0

>  <r_epik_Charging_Adjusted_Penalty>  (339) 
0

>  <i_epik_Tot_Q>  (339) 
0

>  <i_epik_Tot_abs_Q>  (339) 
0

>  <s_lp_Force_Field>  (339) 
OPLS3e

>  <r_lp_Energy>  (339) 
352.247

>  <b_lp_Chiralities_Consistent>  (339) 
1

>  <s_lp_Variant>  (339) 
85:0-2

>  <s_i_glide_gridfile>  (339) 
pfpi4k_grid

>  <i_i_glide_lignum>  (339) 
46

>  <i_i_glide_rotatable_bonds>  (339) 
1

>  <r_i_docking_score>  (339) 
-3.06048

>  <r_i_glide_ligand_efficiency>  (339) 
-0.12752

>  <r_i_glide_ligand_efficiency_sa>  (339) 
-0.367831

>  <r_i_glide_ligand_efficiency_ln>  (339) 
-0.732513

>  <r_i_glide_gscore>  (339) 
-3.06048

>  <r_i_glide_lipo>  (339) 
-0.00505966

>  <r_i_glide_hbond>  (339) 
-0.204722

>  <r_i_glide_metal>  (339) 
-0

>  <r_i_glide_rewards>  (339) 
-1.18285

>  <r_i_glide_evdw>  (339) 
-20.1974

>  <r_i_glide_ecoul>  (339) 
-4.38651

>  <r_i_glide_erotb>  (339) 
0

>  <r_i_glide_esite>  (339) 
0

>  <r_i_glide_emodel>  (339) 
-30.5557

>  <r_i_glide_energy>  (339) 
-24.5839

>  <r_i_glide_einternal>  (339) 
0.0686949

>  <r_i_glide_intrahb_reward>  (339) 
-0

>  <i_i_glide_confnum>  (339) 
1

>  <i_i_glide_posenum>  (339) 
2

>  <r_i_glide_eff_state_penalty>  (339) 
0

>  <ligand_id>  (339) 
85

>  <original_smiles>  (339) 
CC12CC3CC4C5CC=C6CCCC3C5CC1C(CCC2O)C64C

>  <smiles>  (339) 
[H]OC1([H])C([H])([H])C([H])([H])C2([H])C3([H])C([H])([H])C4([H])C5([H])C([H])([H])C([H])=C6C([H])([H])C([H])([H])C([H])([H])C4([H])C([H])(C([H])([H])C5([H])C62C([H])([H])[H])C([H])([H])C13C([H])([H])[H]

$$$$
85:1:2
     RDKit          3D

 58 63  0  0  1  0  0  0  0  0999 V2000
    2.6041   -2.0710    2.9423 C   0  0  0  0  0  0  0  0  0  0  0  0
    2.3608   -0.5518    3.2576 C   0  0  1  0  0  0  0  0  0  0  0  0
    1.4013   -0.0331    2.0843 C   0  0  0  0  0  0  0  0  0  0  0  0
    0.4973    1.2377    2.2946 C   0  0  2  0  0  0  0  0  0  0  0  0
    1.2314    2.1585    3.1968 C   0  0  0  0  0  0  0  0  0  0  0  0
    0.6089    2.0558    4.6142 C   0  0  1  0  0  0  0  0  0  0  0  0
   -0.6337    1.0277    5.1079 C   0  0  2  0  0  0  0  0  0  0  0  0
   -0.7661    0.6276    6.6298 C   0  0  0  0  0  0  0  0  0  0  0  0
   -0.5174    1.9059    7.3833 C   0  0  0  0  0  0  0  0  0  0  0  0
    0.1426    2.8060    6.6410 C   0  0  0  0  0  0  0  0  0  0  0  0
   -0.8599    3.8884    5.9531 C   0  0  0  0  0  0  0  0  0  0  0  0
   -1.8711    3.5481    4.6384 C   0  0  0  0  0  0  0  0  0  0  0  0
   -1.6704    2.6619    3.1931 C   0  0  0  0  0  0  0  0  0  0  0  0
   -0.9770    1.1439    2.8662 C   0  0  2  0  0  0  0  0  0  0  0  0
   -0.9543    0.1153    4.0665 C   0  0  1  0  0  0  0  0  0  0  0  0
    0.1301   -0.9454    4.3838 C   0  0  0  0  0  0  0  0  0  0  0  0
    1.6242   -0.4637    4.6564 C   0  0  2  0  0  0  0  0  0  0  0  0
    2.0326    0.7262    5.7586 C   0  0  1  0  0  0  0  0  0  0  0  0
    3.5717    0.6551    5.8133 C   0  0  0  0  0  0  0  0  0  0  0  0
    4.2773    0.9340    4.4802 C   0  0  0  0  0  0  0  0  0  0  0  0
    3.7991    0.1361    3.2369 C   0  0  1  0  0  0  0  0  0  0  0  0
    4.8748   -0.7143    2.8720 O   0  0  0  0  0  0  0  0  0  0  0  0
    1.3948    2.2634    5.7794 C   0  0  1  0  0  0  0  0  0  0  0  0
    2.4202    3.4309    5.7262 C   0  0  0  0  0  0  0  0  0  0  0  0
    3.0546   -2.2109    1.9574 H   0  0  0  0  0  0  0  0  0  0  0  0
    1.7106   -2.6896    2.9317 H   0  0  0  0  0  0  0  0  0  0  0  0
    3.2726   -2.5264    3.6762 H   0  0  0  0  0  0  0  0  0  0  0  0
    2.0304    0.1600    1.2135 H   0  0  0  0  0  0  0  0  0  0  0  0
    0.7525   -0.8337    1.7263 H   0  0  0  0  0  0  0  0  0  0  0  0
    0.4136    1.7125    1.3158 H   0  0  0  0  0  0  0  0  0  0  0  0
    2.2952    2.0422    3.2012 H   0  0  0  0  0  0  0  0  0  0  0  0
    1.1713    3.1518    2.7277 H   0  0  0  0  0  0  0  0  0  0  0  0
    0.3631    3.0572    4.3669 H   0  0  0  0  0  0  0  0  0  0  0  0
   -1.6238    1.4211    5.1794 H   0  0  0  0  0  0  0  0  0  0  0  0
   -1.7821    0.2993    6.8493 H   0  0  0  0  0  0  0  0  0  0  0  0
   -0.1327   -0.1747    6.9889 H   0  0  0  0  0  0  0  0  0  0  0  0
   -1.4266    2.2384    7.8624 H   0  0  0  0  0  0  0  0  0  0  0  0
   -1.4984    4.2666    6.7522 H   0  0  0  0  0  0  0  0  0  0  0  0
   -0.2510    4.7521    5.6804 H   0  0  0  0  0  0  0  0  0  0  0  0
   -2.7898    3.1638    5.0854 H   0  0  0  0  0  0  0  0  0  0  0  0
   -2.1871    4.5316    4.2940 H   0  0  0  0  0  0  0  0  0  0  0  0
   -2.6858    2.5720    2.8053 H   0  0  0  0  0  0  0  0  0  0  0  0
   -1.2106    3.3496    2.4820 H   0  0  0  0  0  0  0  0  0  0  0  0
   -1.5637    0.6919    2.0646 H   0  0  0  0  0  0  0  0  0  0  0  0
   -1.9448   -0.3308    4.1883 H   0  0  0  0  0  0  0  0  0  0  0  0
   -0.1905   -1.5097    5.2601 H   0  0  0  0  0  0  0  0  0  0  0  0
    0.0525   -1.7137    3.6215 H   0  0  0  0  0  0  0  0  0  0  0  0
    2.0240   -1.3274    5.1885 H   0  0  0  0  0  0  0  0  0  0  0  0
    1.8103    0.3342    6.7456 H   0  0  0  0  0  0  0  0  0  0  0  0
    3.9615    1.3091    6.5907 H   0  0  0  0  0  0  0  0  0  0  0  0
    3.8619   -0.3461    6.1307 H   0  0  0  0  0  0  0  0  0  0  0  0
    4.2196    1.9886    4.2426 H   0  0  0  0  0  0  0  0  0  0  0  0
    5.3464    0.7825    4.6302 H   0  0  0  0  0  0  0  0  0  0  0  0
    3.8170    0.8367    2.4006 H   0  0  0  0  0  0  0  0  0  0  0  0
    4.6910   -1.0608    2.0104 H   0  0  0  0  0  0  0  0  0  0  0  0
    2.9464    3.5170    4.7798 H   0  0  0  0  0  0  0  0  0  0  0  0
    3.1510    3.3610    6.5309 H   0  0  0  0  0  0  0  0  0  0  0  0
    1.9324    4.3956    5.8547 H   0  0  0  0  0  0  0  0  0  0  0  0
  2  1  1  6
  1 25  1  0
  1 26  1  0
  1 27  1  0
  2 17  1  0
  2 21  1  0
  2  3  1  0
  3  4  1  0
  3 28  1  0
  3 29  1  0
  4 14  1  0
  4  5  1  0
  4 30  1  6
  5  6  1  0
  5 31  1  0
  5 32  1  0
  6 23  1  0
  6  7  1  0
  6 33  1  6
  7 15  1  0
  7  8  1  0
  7 34  1  1
  8  9  1  0
  8 35  1  0
  8 36  1  0
  9 10  2  0
  9 37  1  0
 10 23  1  0
 10 11  1  0
 11 12  1  0
 11 38  1  0
 11 39  1  0
 12 13  1  0
 12 40  1  0
 12 41  1  0
 13 14  1  0
 13 42  1  0
 13 43  1  0
 14 15  1  0
 14 44  1  6
 15 16  1  0
 15 45  1  1
 16 17  1  0
 16 46  1  0
 16 47  1  0
 17 18  1  0
 17 48  1  1
 18 19  1  0
 18 23  1  0
 18 49  1  1
 19 20  1  0
 19 50  1  0
 19 51  1  0
 20 21  1  0
 20 52  1  0
 20 53  1  0
 21 22  1  0
 21 54  1  6
 22 55  1  0
 23 24  1  6
 24 56  1  0
 24 57  1  0
 24 58  1  0
M  END
>  <i_m_ct_stereo_status>  (340) 
1

>  <s_m_source_file>  (340) 
/var/tmp/pbs.5076255.sched01/tmpz7l6rxva/92z_h6r8yo.sdf

>  <i_m_source_file_index>  (340) 
46

>  <i_lp_mmshare_version>  (340) 
48012

>  <i_f3d_flags>  (340) 
0

>  <s_epik_input>  (340) 
W09IXVtDQEBIXTFbQ0gyXVtDSDJdW0NASF0oW0NIXTJbQ0BdMTNbQ0gzXSlDNChbQ0gzXSlbQ0BASF01W0NASF02W0NASF0oW0NIMl0yKVtDQEhdKFtDQEhdKFtDSDJdMylbQ0gyXTUpW0NIMl1bQ0gyXVtDSDJdQzQ9W0NIXVtDSDJdNg==

>  <s_epik_cmdline>  (340) 
J2VwaWtfcHl0aG9uJywgJy1waHQnLCAnMi4wJywgJy1waCcsICc3LjAnLCAnLXRuJywgJzgnLCAnLW1hJywgJzIwMCcsICctaW1hZScsICc8aW5maWxlLm1hZT4nLCAnLW9tYWUnLCAnPG91dGZpbGUubWFlPic=

>  <r_lp_tautomer_probability>  (340) 
1

>  <r_epik_Ionization_Penalty>  (340) 
3.50034e-06

>  <r_epik_Ionization_Penalty_Charging>  (340) 
0

>  <r_epik_Ionization_Penalty_Neutral>  (340) 
3.50034e-06

>  <r_epik_State_Penalty>  (340) 
-0

>  <r_epik_Charging_Adjusted_Penalty>  (340) 
0

>  <i_epik_Tot_Q>  (340) 
0

>  <i_epik_Tot_abs_Q>  (340) 
0

>  <s_lp_Force_Field>  (340) 
OPLS3e

>  <r_lp_Energy>  (340) 
352.247

>  <b_lp_Chiralities_Consistent>  (340) 
1

>  <s_lp_Variant>  (340) 
85:0-2

>  <s_i_glide_gridfile>  (340) 
pfpi4k_grid

>  <i_i_glide_lignum>  (340) 
46

>  <i_i_glide_rotatable_bonds>  (340) 
1

>  <r_i_docking_score>  (340) 
-2.45814

>  <r_i_glide_ligand_efficiency>  (340) 
-0.102423

>  <r_i_glide_ligand_efficiency_sa>  (340) 
-0.295438

>  <r_i_glide_ligand_efficiency_ln>  (340) 
-0.588346

>  <r_i_glide_gscore>  (340) 
-2.45814

>  <r_i_glide_lipo>  (340) 
-0.00494572

>  <r_i_glide_hbond>  (340) 
0

>  <r_i_glide_metal>  (340) 
-0

>  <r_i_glide_rewards>  (340) 
-1.18285

>  <r_i_glide_evdw>  (340) 
-24.0572

>  <r_i_glide_ecoul>  (340) 
-0.449898

>  <r_i_glide_erotb>  (340) 
0

>  <r_i_glide_esite>  (340) 
0

>  <r_i_glide_emodel>  (340) 
-29.1647

>  <r_i_glide_energy>  (340) 
-24.5071

>  <r_i_glide_einternal>  (340) 
0.330267

>  <r_i_glide_intrahb_reward>  (340) 
-0

>  <i_i_glide_confnum>  (340) 
1

>  <i_i_glide_posenum>  (340) 
3

>  <r_i_glide_eff_state_penalty>  (340) 
0

>  <ligand_id>  (340) 
85

>  <original_smiles>  (340) 
CC12CC3CC4C5CC=C6CCCC3C5CC1C(CCC2O)C64C

>  <smiles>  (340) 
[H]OC1([H])C([H])([H])C([H])([H])C2([H])C3([H])C([H])([H])C4([H])C5([H])C([H])([H])C([H])=C6C([H])([H])C([H])([H])C([H])([H])C4([H])C([H])(C([H])([H])C5([H])C62C([H])([H])[H])C([H])([H])C13C([H])([H])[H]

$$$$
86:0:0
     RDKit          3D

 60 63  0  0  1  0  0  0  0  0999 V2000
    2.4224    1.4390    2.7164 C   0  0  0  0  0  0  0  0  0  0  0  0
    1.9665    0.3800    3.7089 C   0  0  0  0  0  0  0  0  0  0  0  0
    0.8904    0.4839    4.2950 O   0  0  0  0  0  0  0  0  0  0  0  0
    2.8724   -0.6360    3.8200 O   0  0  0  0  0  0  0  0  0  0  0  0
    2.7753   -1.8053    4.6768 C   0  0  1  0  0  0  0  0  0  0  0  0
    2.4416   -1.2972    6.1137 C   0  0  0  0  0  0  0  0  0  0  0  0
    1.6964   -2.8441    4.1685 C   0  0  1  0  0  0  0  0  0  0  0  0
    0.7229   -2.3016    3.3006 O   0  0  0  0  0  0  0  0  0  0  0  0
    2.1566   -4.2032    3.5556 C   0  0  0  0  0  0  0  0  0  0  0  0
    3.5995   -4.6953    3.8597 C   0  0  1  0  0  0  0  0  0  0  0  0
    4.6294   -4.8883    2.7090 C   0  0  0  0  0  0  0  0  0  0  0  0
    5.7589   -5.5800    3.0276 C   0  0  0  0  0  0  0  0  0  0  0  0
    6.6831   -6.2978    2.0464 C   0  0  0  0  0  0  0  0  0  0  0  0
    6.0841   -6.5292    0.8807 F   0  0  0  0  0  0  0  0  0  0  0  0
    7.8214   -5.6310    1.8525 F   0  0  0  0  0  0  0  0  0  0  0  0
    7.0079   -7.4902    2.5461 F   0  0  0  0  0  0  0  0  0  0  0  0
    6.2129   -5.4554    4.4049 C   0  0  0  0  0  0  0  0  0  0  0  0
    5.6271   -4.6044    5.2721 C   0  0  0  0  0  0  0  0  0  0  0  0
    4.2391   -3.9916    5.0514 C   0  0  2  0  0  0  0  0  0  0  0  0
    3.4993   -4.3544    6.3658 C   0  0  0  0  0  0  0  0  0  0  0  0
    4.2198   -2.4615    4.6732 C   0  0  1  0  0  0  0  0  0  0  0  0
    4.9939   -2.1465    3.3362 C   0  0  0  0  0  0  0  0  0  0  0  0
    4.2790   -2.4687    1.9544 C   0  0  1  0  0  0  0  0  0  0  0  0
    4.7372   -1.5465    0.7763 C   0  0  1  0  0  0  0  0  0  0  0  0
    3.6314   -1.2708   -0.2540 C   0  0  0  0  0  0  0  0  0  0  0  0
    5.1919   -0.2644    1.1720 O   0  0  0  0  0  0  0  0  0  0  0  0
    5.8579   -2.3408    0.1441 C   0  0  0  0  0  0  0  0  0  0  0  0
    6.6243   -1.9166   -0.7257 O   0  0  0  0  0  0  0  0  0  0  0  0
    5.9033   -3.7371    0.7230 C   0  0  0  0  0  0  0  0  0  0  0  0
    4.5526   -3.9458    1.4807 C   0  0  1  0  0  0  0  0  0  0  0  0
    3.5045   -4.4913    0.4766 C   0  0  0  0  0  0  0  0  0  0  0  0
    3.4230    1.7873    2.9700 H   0  0  0  0  0  0  0  0  0  0  0  0
    1.7495    2.2972    2.7271 H   0  0  0  0  0  0  0  0  0  0  0  0
    2.4358    1.0273    1.7079 H   0  0  0  0  0  0  0  0  0  0  0  0
    2.5574   -2.0431    6.8922 H   0  0  0  0  0  0  0  0  0  0  0  0
    1.4084   -0.9641    6.2037 H   0  0  0  0  0  0  0  0  0  0  0  0
    3.0799   -0.4598    6.3970 H   0  0  0  0  0  0  0  0  0  0  0  0
    1.1002   -3.1023    5.0422 H   0  0  0  0  0  0  0  0  0  0  0  0
    1.1587   -1.9703    2.5309 H   0  0  0  0  0  0  0  0  0  0  0  0
    1.4832   -4.9485    3.9788 H   0  0  0  0  0  0  0  0  0  0  0  0
    1.9229   -4.2698    2.5021 H   0  0  0  0  0  0  0  0  0  0  0  0
    3.4517   -5.7267    4.1868 H   0  0  0  0  0  0  0  0  0  0  0  0
    7.1489   -5.9162    4.6779 H   0  0  0  0  0  0  0  0  0  0  0  0
    6.0749   -4.4494    6.2412 H   0  0  0  0  0  0  0  0  0  0  0  0
    2.4289   -4.1753    6.3491 H   0  0  0  0  0  0  0  0  0  0  0  0
    3.9179   -3.8171    7.2169 H   0  0  0  0  0  0  0  0  0  0  0  0
    3.6032   -5.4167    6.5945 H   0  0  0  0  0  0  0  0  0  0  0  0
    4.7973   -1.9621    5.4514 H   0  0  0  0  0  0  0  0  0  0  0  0
    5.2431   -1.0875    3.4032 H   0  0  0  0  0  0  0  0  0  0  0  0
    5.9734   -2.6171    3.3525 H   0  0  0  0  0  0  0  0  0  0  0  0
    3.2116   -2.3144    2.0537 H   0  0  0  0  0  0  0  0  0  0  0  0
    3.2615   -2.1663   -0.7466 H   0  0  0  0  0  0  0  0  0  0  0  0
    3.9792   -0.6138   -1.0512 H   0  0  0  0  0  0  0  0  0  0  0  0
    2.7749   -0.7912    0.2175 H   0  0  0  0  0  0  0  0  0  0  0  0
    4.4511    0.2366    1.4670 H   0  0  0  0  0  0  0  0  0  0  0  0
    6.0831   -4.4530   -0.0758 H   0  0  0  0  0  0  0  0  0  0  0  0
    6.7545   -3.7242    1.3961 H   0  0  0  0  0  0  0  0  0  0  0  0
    3.8415   -4.4155   -0.5575 H   0  0  0  0  0  0  0  0  0  0  0  0
    2.5549   -3.9599    0.5257 H   0  0  0  0  0  0  0  0  0  0  0  0
    3.3009   -5.5508    0.6481 H   0  0  0  0  0  0  0  0  0  0  0  0
  1  2  1  0
  1 32  1  0
  1 33  1  0
  1 34  1  0
  2  3  2  0
  2  4  1  0
  5  4  1  6
  5 21  1  0
  5  6  1  0
  5  7  1  0
  6 35  1  0
  6 36  1  0
  6 37  1  0
  7  8  1  0
  7  9  1  0
  7 38  1  1
  8 39  1  0
  9 10  1  0
  9 40  1  0
  9 41  1  0
 10 19  1  0
 10 11  1  0
 10 42  1  1
 11 30  1  0
 11 12  2  0
 12 13  1  0
 12 17  1  0
 13 14  1  0
 13 15  1  0
 13 16  1  0
 17 18  2  0
 17 43  1  0
 18 19  1  0
 18 44  1  0
 19 20  1  1
 19 21  1  0
 20 45  1  0
 20 46  1  0
 20 47  1  0
 21 22  1  0
 21 48  1  1
 22 23  1  0
 22 49  1  0
 22 50  1  0
 23 30  1  0
 23 24  1  0
 23 51  1  1
 24 25  1  0
 24 26  1  1
 24 27  1  0
 25 52  1  0
 25 53  1  0
 25 54  1  0
 26 55  1  0
 27 28  2  0
 27 29  1  0
 29 30  1  0
 29 56  1  0
 29 57  1  0
 30 31  1  6
 31 58  1  0
 31 59  1  0
 31 60  1  0
M  END
>  <i_m_ct_stereo_status>  (341) 
1

>  <s_m_source_file>  (341) 
/var/tmp/pbs.5076255.sched01/tmpgahbdy6u/1388ql836nh.sdf

>  <i_m_source_file_index>  (341) 
1

>  <i_lp_mmshare_version>  (341) 
48012

>  <i_f3d_flags>  (341) 
0

>  <s_epik_input>  (341) 
W0NIM11DKD1PKU9bQ0BAXShbQ0gzXSkoW0NAQEhdKFtPSF0pW0NIMl0xKVtDQEBIXTJbQ0gyXVtDQEBIXShbQ0BAXShbQ0gzXSkoW09IXSlDKD1PKVtDSDJdMylbQ0BdMyhbQ0gzXSlDKFtDQEhdMUMyNFtDSDNdKT1DKEMoRikoRilGKVtDSF09W0NIXTQ=

>  <s_epik_cmdline>  (341) 
J2VwaWtfcHl0aG9uJywgJy1waHQnLCAnMi4wJywgJy1waCcsICc3LjAnLCAnLXRuJywgJzgnLCAnLW1hJywgJzIwMCcsICctaW1hZScsICc8aW5maWxlLm1hZT4nLCAnLW9tYWUnLCAnPG91dGZpbGUubWFlPic=

>  <r_lp_tautomer_probability>  (341) 
1

>  <r_epik_Ionization_Penalty>  (341) 
2.45272e-07

>  <r_epik_Ionization_Penalty_Charging>  (341) 
0

>  <r_epik_Ionization_Penalty_Neutral>  (341) 
2.45272e-07

>  <r_epik_State_Penalty>  (341) 
-0

>  <r_epik_Charging_Adjusted_Penalty>  (341) 
0

>  <i_epik_Tot_Q>  (341) 
0

>  <i_epik_Tot_abs_Q>  (341) 
0

>  <s_epik_Chemistry_Notes>  (341) 
This compound has an ester and may undergo hydrolysis at high or low pH.

>  <s_lp_Force_Field>  (341) 
OPLS3e

>  <r_lp_Energy>  (341) 
100.588

>  <b_lp_Chiralities_Consistent>  (341) 
1

>  <s_lp_Variant>  (341) 
86:0-1

>  <s_i_glide_gridfile>  (341) 
pfpi4k_grid

>  <i_i_glide_lignum>  (341) 
1

>  <i_i_glide_rotatable_bonds>  (341) 
5

>  <r_i_docking_score>  (341) 
-2.23197

>  <r_i_glide_ligand_efficiency>  (341) 
-0.0719991

>  <r_i_glide_ligand_efficiency_sa>  (341) 
-0.226177

>  <r_i_glide_ligand_efficiency_ln>  (341) 
-0.503378

>  <r_i_glide_gscore>  (341) 
-2.23197

>  <r_i_glide_lipo>  (341) 
-0.280611

>  <r_i_glide_hbond>  (341) 
-0.16

>  <r_i_glide_metal>  (341) 
-0

>  <r_i_glide_rewards>  (341) 
-0.579841

>  <r_i_glide_evdw>  (341) 
-22.0185

>  <r_i_glide_ecoul>  (341) 
-1.39597

>  <r_i_glide_erotb>  (341) 
0.102073

>  <r_i_glide_esite>  (341) 
-0.00327211

>  <r_i_glide_emodel>  (341) 
-26.7685

>  <r_i_glide_energy>  (341) 
-23.4145

>  <r_i_glide_einternal>  (341) 
0.609222

>  <r_i_glide_intrahb_reward>  (341) 
-0

>  <i_i_glide_confnum>  (341) 
2

>  <i_i_glide_posenum>  (341) 
7

>  <r_i_glide_eff_state_penalty>  (341) 
0

>  <ligand_id>  (341) 
86

>  <original_smiles>  (341) 
CC(=O)OC1(C)C(O)CC2C3=C(C(F)(F)F)C=CC2(C)C1CC1C(C)(O)C(=O)CC31C

>  <smiles>  (341) 
[H]OC1([H])C([H])([H])C2([H])C3=C(C(F)(F)F)C([H])=C([H])C2(C([H])([H])[H])C([H])(C([H])([H])C2([H])C(O[H])(C([H])([H])[H])C(=O)C([H])([H])C32C([H])([H])[H])C1(OC(=O)C([H])([H])[H])C([H])([H])[H]

$$$$
86:0:1
     RDKit          3D

 60 63  0  0  1  0  0  0  0  0999 V2000
    3.0578    0.4533    1.9563 C   0  0  0  0  0  0  0  0  0  0  0  0
    3.6386   -0.3194    3.1404 C   0  0  0  0  0  0  0  0  0  0  0  0
    4.6859    0.0416    3.6663 O   0  0  0  0  0  0  0  0  0  0  0  0
    2.9215   -1.4278    3.4734 O   0  0  0  0  0  0  0  0  0  0  0  0
    3.2760   -2.3890    4.5085 C   0  0  1  0  0  0  0  0  0  0  0  0
    3.2671   -1.5535    5.8389 C   0  0  0  0  0  0  0  0  0  0  0  0
    2.1384   -3.4688    4.5979 C   0  0  1  0  0  0  0  0  0  0  0  0
    0.9777   -3.1062    3.8793 O   0  0  0  0  0  0  0  0  0  0  0  0
    2.4318   -4.9727    4.2851 C   0  0  0  0  0  0  0  0  0  0  0  0
    3.9105   -5.4436    4.2901 C   0  0  1  0  0  0  0  0  0  0  0  0
    4.5768   -5.9914    2.9914 C   0  0  0  0  0  0  0  0  0  0  0  0
    5.7758   -6.6200    3.1521 C   0  0  0  0  0  0  0  0  0  0  0  0
    6.4285   -7.6096    2.1817 C   0  0  0  0  0  0  0  0  0  0  0  0
    6.8877   -8.6394    2.8818 F   0  0  0  0  0  0  0  0  0  0  0  0
    5.5659   -8.1053    1.2922 F   0  0  0  0  0  0  0  0  0  0  0  0
    7.4675   -7.0646    1.5581 F   0  0  0  0  0  0  0  0  0  0  0  0
    6.6011   -6.1393    4.2557 C   0  0  0  0  0  0  0  0  0  0  0  0
    6.2431   -5.0650    4.9968 C   0  0  0  0  0  0  0  0  0  0  0  0
    4.8426   -4.4703    5.0099 C   0  0  2  0  0  0  0  0  0  0  0  0
    4.5162   -4.4360    6.5286 C   0  0  0  0  0  0  0  0  0  0  0  0
    4.6833   -3.0968    4.2484 C   0  0  1  0  0  0  0  0  0  0  0  0
    5.0173   -3.2195    2.7083 C   0  0  0  0  0  0  0  0  0  0  0  0
    3.9308   -3.8533    1.7426 C   0  0  1  0  0  0  0  0  0  0  0  0
    3.9881   -3.3097    0.2894 C   0  0  1  0  0  0  0  0  0  0  0  0
    2.6237   -3.2838   -0.4341 C   0  0  0  0  0  0  0  0  0  0  0  0
    4.5001   -1.9949    0.1514 O   0  0  0  0  0  0  0  0  0  0  0  0
    4.9222   -4.2827   -0.3923 C   0  0  0  0  0  0  0  0  0  0  0  0
    5.4191   -4.1243   -1.5150 O   0  0  0  0  0  0  0  0  0  0  0  0
    5.1839   -5.4730    0.5023 C   0  0  0  0  0  0  0  0  0  0  0  0
    4.1145   -5.4070    1.6301 C   0  0  1  0  0  0  0  0  0  0  0  0
    2.8506   -6.1611    1.1551 C   0  0  0  0  0  0  0  0  0  0  0  0
    2.9789   -0.1899    1.0814 H   0  0  0  0  0  0  0  0  0  0  0  0
    3.7213    1.2812    1.6979 H   0  0  0  0  0  0  0  0  0  0  0  0
    2.0742    0.8561    2.1907 H   0  0  0  0  0  0  0  0  0  0  0  0
    3.5496   -2.1183    6.7229 H   0  0  0  0  0  0  0  0  0  0  0  0
    2.2574   -1.1721    6.0179 H   0  0  0  0  0  0  0  0  0  0  0  0
    3.9420   -0.6891    5.8531 H   0  0  0  0  0  0  0  0  0  0  0  0
    1.8059   -3.4712    5.6292 H   0  0  0  0  0  0  0  0  0  0  0  0
    0.7320   -2.2230    4.1233 H   0  0  0  0  0  0  0  0  0  0  0  0
    1.9332   -5.5559    5.0619 H   0  0  0  0  0  0  0  0  0  0  0  0
    1.9049   -5.3193    3.4093 H   0  0  0  0  0  0  0  0  0  0  0  0
    3.9062   -6.3364    4.9159 H   0  0  0  0  0  0  0  0  0  0  0  0
    7.5970   -6.5284    4.3553 H   0  0  0  0  0  0  0  0  0  0  0  0
    6.9304   -4.6648    5.7111 H   0  0  0  0  0  0  0  0  0  0  0  0
    3.4749   -4.2368    6.7708 H   0  0  0  0  0  0  0  0  0  0  0  0
    5.1346   -3.7013    7.0428 H   0  0  0  0  0  0  0  0  0  0  0  0
    4.7257   -5.3969    6.9987 H   0  0  0  0  0  0  0  0  0  0  0  0
    5.4509   -2.4415    4.6655 H   0  0  0  0  0  0  0  0  0  0  0  0
    5.2750   -2.2209    2.3825 H   0  0  0  0  0  0  0  0  0  0  0  0
    5.9786   -3.7216    2.5717 H   0  0  0  0  0  0  0  0  0  0  0  0
    2.9336   -3.6165    2.1056 H   0  0  0  0  0  0  0  0  0  0  0  0
    2.1871   -4.2715   -0.5544 H   0  0  0  0  0  0  0  0  0  0  0  0
    2.6947   -2.8550   -1.4343 H   0  0  0  0  0  0  0  0  0  0  0  0
    1.9223   -2.6755    0.1310 H   0  0  0  0  0  0  0  0  0  0  0  0
    3.8338   -1.3936    0.4512 H   0  0  0  0  0  0  0  0  0  0  0  0
    5.1491   -6.3725   -0.1118 H   0  0  0  0  0  0  0  0  0  0  0  0
    6.1987   -5.3274    0.8693 H   0  0  0  0  0  0  0  0  0  0  0  0
    2.8828   -6.3567    0.0834 H   0  0  0  0  0  0  0  0  0  0  0  0
    1.9296   -5.6059    1.3346 H   0  0  0  0  0  0  0  0  0  0  0  0
    2.7533   -7.1326    1.6462 H   0  0  0  0  0  0  0  0  0  0  0  0
  1  2  1  0
  1 32  1  0
  1 33  1  0
  1 34  1  0
  2  3  2  0
  2  4  1  0
  5  4  1  6
  5 21  1  0
  5  6  1  0
  5  7  1  0
  6 35  1  0
  6 36  1  0
  6 37  1  0
  7  8  1  0
  7  9  1  0
  7 38  1  1
  8 39  1  0
  9 10  1  0
  9 40  1  0
  9 41  1  0
 10 19  1  0
 10 11  1  0
 10 42  1  1
 11 30  1  0
 11 12  2  0
 12 13  1  0
 12 17  1  0
 13 14  1  0
 13 15  1  0
 13 16  1  0
 17 18  2  0
 17 43  1  0
 18 19  1  0
 18 44  1  0
 19 20  1  1
 19 21  1  0
 20 45  1  0
 20 46  1  0
 20 47  1  0
 21 22  1  0
 21 48  1  1
 22 23  1  0
 22 49  1  0
 22 50  1  0
 23 30  1  0
 23 24  1  0
 23 51  1  1
 24 25  1  0
 24 26  1  1
 24 27  1  0
 25 52  1  0
 25 53  1  0
 25 54  1  0
 26 55  1  0
 27 28  2  0
 27 29  1  0
 29 30  1  0
 29 56  1  0
 29 57  1  0
 30 31  1  6
 31 58  1  0
 31 59  1  0
 31 60  1  0
M  END
>  <i_m_ct_stereo_status>  (342) 
1

>  <s_m_source_file>  (342) 
/var/tmp/pbs.5076255.sched01/tmpgahbdy6u/1388ql836nh.sdf

>  <i_m_source_file_index>  (342) 
1

>  <i_lp_mmshare_version>  (342) 
48012

>  <i_f3d_flags>  (342) 
0

>  <s_epik_input>  (342) 
W0NIM11DKD1PKU9bQ0BAXShbQ0gzXSkoW0NAQEhdKFtPSF0pW0NIMl0xKVtDQEBIXTJbQ0gyXVtDQEBIXShbQ0BAXShbQ0gzXSkoW09IXSlDKD1PKVtDSDJdMylbQ0BdMyhbQ0gzXSlDKFtDQEhdMUMyNFtDSDNdKT1DKEMoRikoRilGKVtDSF09W0NIXTQ=

>  <s_epik_cmdline>  (342) 
J2VwaWtfcHl0aG9uJywgJy1waHQnLCAnMi4wJywgJy1waCcsICc3LjAnLCAnLXRuJywgJzgnLCAnLW1hJywgJzIwMCcsICctaW1hZScsICc8aW5maWxlLm1hZT4nLCAnLW9tYWUnLCAnPG91dGZpbGUubWFlPic=

>  <r_lp_tautomer_probability>  (342) 
1

>  <r_epik_Ionization_Penalty>  (342) 
2.45272e-07

>  <r_epik_Ionization_Penalty_Charging>  (342) 
0

>  <r_epik_Ionization_Penalty_Neutral>  (342) 
2.45272e-07

>  <r_epik_State_Penalty>  (342) 
-0

>  <r_epik_Charging_Adjusted_Penalty>  (342) 
0

>  <i_epik_Tot_Q>  (342) 
0

>  <i_epik_Tot_abs_Q>  (342) 
0

>  <s_epik_Chemistry_Notes>  (342) 
This compound has an ester and may undergo hydrolysis at high or low pH.

>  <s_lp_Force_Field>  (342) 
OPLS3e

>  <r_lp_Energy>  (342) 
100.588

>  <b_lp_Chiralities_Consistent>  (342) 
1

>  <s_lp_Variant>  (342) 
86:0-1

>  <s_i_glide_gridfile>  (342) 
pfpi4k_grid

>  <i_i_glide_lignum>  (342) 
1

>  <i_i_glide_rotatable_bonds>  (342) 
5

>  <r_i_docking_score>  (342) 
-2.00419

>  <r_i_glide_ligand_efficiency>  (342) 
-0.0646513

>  <r_i_glide_ligand_efficiency_sa>  (342) 
-0.203094

>  <r_i_glide_ligand_efficiency_ln>  (342) 
-0.452006

>  <r_i_glide_gscore>  (342) 
-2.00419

>  <r_i_glide_lipo>  (342) 
-0.360311

>  <r_i_glide_hbond>  (342) 
0

>  <r_i_glide_metal>  (342) 
-0

>  <r_i_glide_rewards>  (342) 
-0.660518

>  <r_i_glide_evdw>  (342) 
-22.6876

>  <r_i_glide_ecoul>  (342) 
0.378167

>  <r_i_glide_erotb>  (342) 
0.102073

>  <r_i_glide_esite>  (342) 
-0.00777932

>  <r_i_glide_emodel>  (342) 
-23.9703

>  <r_i_glide_energy>  (342) 
-22.3094

>  <r_i_glide_einternal>  (342) 
2.27106

>  <r_i_glide_intrahb_reward>  (342) 
-0

>  <i_i_glide_confnum>  (342) 
2

>  <i_i_glide_posenum>  (342) 
1

>  <r_i_glide_eff_state_penalty>  (342) 
0

>  <ligand_id>  (342) 
86

>  <original_smiles>  (342) 
CC(=O)OC1(C)C(O)CC2C3=C(C(F)(F)F)C=CC2(C)C1CC1C(C)(O)C(=O)CC31C

>  <smiles>  (342) 
[H]OC1([H])C([H])([H])C2([H])C3=C(C(F)(F)F)C([H])=C([H])C2(C([H])([H])[H])C([H])(C([H])([H])C2([H])C(O[H])(C([H])([H])[H])C(=O)C([H])([H])C32C([H])([H])[H])C1(OC(=O)C([H])([H])[H])C([H])([H])[H]

$$$$
86:0:2
     RDKit          3D

 60 63  0  0  1  0  0  0  0  0999 V2000
    4.2852   -0.2414    1.1811 C   0  0  0  0  0  0  0  0  0  0  0  0
    4.4021   -0.6215    2.6608 C   0  0  0  0  0  0  0  0  0  0  0  0
    5.4430   -0.4228    3.2711 O   0  0  0  0  0  0  0  0  0  0  0  0
    3.2873   -1.2579    3.1428 O   0  0  0  0  0  0  0  0  0  0  0  0
    3.1649   -1.8044    4.4895 C   0  0  1  0  0  0  0  0  0  0  0  0
    3.3188   -0.5960    5.4813 C   0  0  0  0  0  0  0  0  0  0  0  0
    1.6828   -2.3547    4.6459 C   0  0  1  0  0  0  0  0  0  0  0  0
    0.8016   -1.8415    3.6685 O   0  0  0  0  0  0  0  0  0  0  0  0
    1.4045   -3.8823    4.8650 C   0  0  0  0  0  0  0  0  0  0  0  0
    2.5914   -4.7728    5.3397 C   0  0  1  0  0  0  0  0  0  0  0  0
    3.1039   -5.9359    4.4538 C   0  0  0  0  0  0  0  0  0  0  0  0
    3.9651   -6.8165    5.0492 C   0  0  0  0  0  0  0  0  0  0  0  0
    4.2689   -8.2356    4.5915 C   0  0  0  0  0  0  0  0  0  0  0  0
    4.2446   -9.0331    5.6574 F   0  0  0  0  0  0  0  0  0  0  0  0
    3.3663   -8.7147    3.7349 F   0  0  0  0  0  0  0  0  0  0  0  0
    5.4961   -8.3287    4.0695 F   0  0  0  0  0  0  0  0  0  0  0  0
    4.8068   -6.2574    6.1003 C   0  0  0  0  0  0  0  0  0  0  0  0
    4.8240   -4.9379    6.3778 C   0  0  0  0  0  0  0  0  0  0  0  0
    3.7501   -3.9609    5.9191 C   0  0  2  0  0  0  0  0  0  0  0  0
    3.3186   -3.2850    7.2453 C   0  0  0  0  0  0  0  0  0  0  0  0
    4.1913   -2.9790    4.7652 C   0  0  1  0  0  0  0  0  0  0  0  0
    4.5978   -3.7596    3.4503 C   0  0  0  0  0  0  0  0  0  0  0  0
    3.4354   -4.3059    2.5135 C   0  0  1  0  0  0  0  0  0  0  0  0
    3.8283   -4.3892    0.9997 C   0  0  1  0  0  0  0  0  0  0  0  0
    2.6534   -4.1455    0.0273 C   0  0  0  0  0  0  0  0  0  0  0  0
    4.8178   -3.4517    0.6137 O   0  0  0  0  0  0  0  0  0  0  0  0
    4.3628   -5.7853    0.8845 C   0  0  0  0  0  0  0  0  0  0  0  0
    4.9747   -6.2353   -0.0958 O   0  0  0  0  0  0  0  0  0  0  0  0
    4.0890   -6.5846    2.1233 C   0  0  0  0  0  0  0  0  0  0  0  0
    3.0229   -5.7737    2.9181 C   0  0  1  0  0  0  0  0  0  0  0  0
    1.6203   -6.1941    2.4176 C   0  0  0  0  0  0  0  0  0  0  0  0
    4.0713   -1.1130    0.5691 H   0  0  0  0  0  0  0  0  0  0  0  0
    5.2397    0.1723    0.8495 H   0  0  0  0  0  0  0  0  0  0  0  0
    3.5053    0.5079    1.0138 H   0  0  0  0  0  0  0  0  0  0  0  0
    3.2481   -0.8793    6.5294 H   0  0  0  0  0  0  0  0  0  0  0  0
    2.5071    0.1132    5.3012 H   0  0  0  0  0  0  0  0  0  0  0  0
    4.2563   -0.0467    5.4238 H   0  0  0  0  0  0  0  0  0  0  0  0
    1.2918   -1.9001    5.5481 H   0  0  0  0  0  0  0  0  0  0  0  0
    1.0565   -2.1764    2.8301 H   0  0  0  0  0  0  0  0  0  0  0  0
    0.6525   -3.9488    5.6561 H   0  0  0  0  0  0  0  0  0  0  0  0
    0.8633   -4.3332    4.0428 H   0  0  0  0  0  0  0  0  0  0  0  0
    2.1892   -5.3223    6.1969 H   0  0  0  0  0  0  0  0  0  0  0  0
    5.5574   -6.8979    6.5353 H   0  0  0  0  0  0  0  0  0  0  0  0
    5.5445   -4.5527    7.0847 H   0  0  0  0  0  0  0  0  0  0  0  0
    2.4141   -2.6907    7.1865 H   0  0  0  0  0  0  0  0  0  0  0  0
    4.1178   -2.6545    7.6393 H   0  0  0  0  0  0  0  0  0  0  0  0
    3.1037   -4.0244    8.0175 H   0  0  0  0  0  0  0  0  0  0  0  0
    5.1124   -2.5122    5.1218 H   0  0  0  0  0  0  0  0  0  0  0  0
    5.2492   -3.0922    2.8994 H   0  0  0  0  0  0  0  0  0  0  0  0
    5.2989   -4.5642    3.6828 H   0  0  0  0  0  0  0  0  0  0  0  0
    2.5776   -3.6466    2.5493 H   0  0  0  0  0  0  0  0  0  0  0  0
    1.8759   -4.9014    0.1141 H   0  0  0  0  0  0  0  0  0  0  0  0
    2.9750   -4.1707   -1.0158 H   0  0  0  0  0  0  0  0  0  0  0  0
    2.1953   -3.1726    0.1916 H   0  0  0  0  0  0  0  0  0  0  0  0
    4.4449   -2.6093    0.5895 H   0  0  0  0  0  0  0  0  0  0  0  0
    3.7774   -7.5812    1.8207 H   0  0  0  0  0  0  0  0  0  0  0  0
    5.0422   -6.6447    2.6362 H   0  0  0  0  0  0  0  0  0  0  0  0
    1.6644   -6.7763    1.4931 H   0  0  0  0  0  0  0  0  0  0  0  0
    0.9786   -5.3422    2.2192 H   0  0  0  0  0  0  0  0  0  0  0  0
    1.1230   -6.8308    3.1532 H   0  0  0  0  0  0  0  0  0  0  0  0
  1  2  1  0
  1 32  1  0
  1 33  1  0
  1 34  1  0
  2  3  2  0
  2  4  1  0
  5  4  1  6
  5 21  1  0
  5  6  1  0
  5  7  1  0
  6 35  1  0
  6 36  1  0
  6 37  1  0
  7  8  1  0
  7  9  1  0
  7 38  1  1
  8 39  1  0
  9 10  1  0
  9 40  1  0
  9 41  1  0
 10 19  1  0
 10 11  1  0
 10 42  1  1
 11 30  1  0
 11 12  2  0
 12 13  1  0
 12 17  1  0
 13 14  1  0
 13 15  1  0
 13 16  1  0
 17 18  2  0
 17 43  1  0
 18 19  1  0
 18 44  1  0
 19 20  1  1
 19 21  1  0
 20 45  1  0
 20 46  1  0
 20 47  1  0
 21 22  1  0
 21 48  1  1
 22 23  1  0
 22 49  1  0
 22 50  1  0
 23 30  1  0
 23 24  1  0
 23 51  1  6
 24 25  1  0
 24 26  1  6
 24 27  1  0
 25 52  1  0
 25 53  1  0
 25 54  1  0
 26 55  1  0
 27 28  2  0
 27 29  1  0
 29 30  1  0
 29 56  1  0
 29 57  1  0
 30 31  1  6
 31 58  1  0
 31 59  1  0
 31 60  1  0
M  END
>  <i_m_ct_stereo_status>  (343) 
1

>  <s_m_source_file>  (343) 
/var/tmp/pbs.5076255.sched01/tmpgahbdy6u/1388ql836nh.sdf

>  <i_m_source_file_index>  (343) 
1

>  <i_lp_mmshare_version>  (343) 
48012

>  <i_f3d_flags>  (343) 
0

>  <s_epik_input>  (343) 
W0NIM11DKD1PKU9bQ0BAXShbQ0gzXSkoW0NAQEhdKFtPSF0pW0NIMl0xKVtDQEBIXTJbQ0gyXVtDQEBIXShbQ0BAXShbQ0gzXSkoW09IXSlDKD1PKVtDSDJdMylbQ0BdMyhbQ0gzXSlDKFtDQEhdMUMyNFtDSDNdKT1DKEMoRikoRilGKVtDSF09W0NIXTQ=

>  <s_epik_cmdline>  (343) 
J2VwaWtfcHl0aG9uJywgJy1waHQnLCAnMi4wJywgJy1waCcsICc3LjAnLCAnLXRuJywgJzgnLCAnLW1hJywgJzIwMCcsICctaW1hZScsICc8aW5maWxlLm1hZT4nLCAnLW9tYWUnLCAnPG91dGZpbGUubWFlPic=

>  <r_lp_tautomer_probability>  (343) 
1

>  <r_epik_Ionization_Penalty>  (343) 
2.45272e-07

>  <r_epik_Ionization_Penalty_Charging>  (343) 
0

>  <r_epik_Ionization_Penalty_Neutral>  (343) 
2.45272e-07

>  <r_epik_State_Penalty>  (343) 
-0

>  <r_epik_Charging_Adjusted_Penalty>  (343) 
0

>  <i_epik_Tot_Q>  (343) 
0

>  <i_epik_Tot_abs_Q>  (343) 
0

>  <s_epik_Chemistry_Notes>  (343) 
This compound has an ester and may undergo hydrolysis at high or low pH.

>  <s_lp_Force_Field>  (343) 
OPLS3e

>  <r_lp_Energy>  (343) 
100.588

>  <b_lp_Chiralities_Consistent>  (343) 
1

>  <s_lp_Variant>  (343) 
86:0-1

>  <s_i_glide_gridfile>  (343) 
pfpi4k_grid

>  <i_i_glide_lignum>  (343) 
1

>  <i_i_glide_rotatable_bonds>  (343) 
5

>  <r_i_docking_score>  (343) 
-1.69903

>  <r_i_glide_ligand_efficiency>  (343) 
-0.0548074

>  <r_i_glide_ligand_efficiency_sa>  (343) 
-0.172171

>  <r_i_glide_ligand_efficiency_ln>  (343) 
-0.383183

>  <r_i_glide_gscore>  (343) 
-1.69903

>  <r_i_glide_lipo>  (343) 
-0.162624

>  <r_i_glide_hbond>  (343) 
0

>  <r_i_glide_metal>  (343) 
-0

>  <r_i_glide_rewards>  (343) 
-0.581615

>  <r_i_glide_evdw>  (343) 
-20.3637

>  <r_i_glide_ecoul>  (343) 
-0.224775

>  <r_i_glide_erotb>  (343) 
0.102073

>  <r_i_glide_esite>  (343) 
-0.00496192

>  <r_i_glide_emodel>  (343) 
-21.886

>  <r_i_glide_energy>  (343) 
-20.5885

>  <r_i_glide_einternal>  (343) 
1.81053

>  <r_i_glide_intrahb_reward>  (343) 
-0

>  <i_i_glide_confnum>  (343) 
5

>  <i_i_glide_posenum>  (343) 
10

>  <r_i_glide_eff_state_penalty>  (343) 
0

>  <ligand_id>  (343) 
86

>  <original_smiles>  (343) 
CC(=O)OC1(C)C(O)CC2C3=C(C(F)(F)F)C=CC2(C)C1CC1C(C)(O)C(=O)CC31C

>  <smiles>  (343) 
[H]OC1([H])C([H])([H])C2([H])C3=C(C(F)(F)F)C([H])=C([H])C2(C([H])([H])[H])C([H])(C([H])([H])C2([H])C(O[H])(C([H])([H])[H])C(=O)C([H])([H])C32C([H])([H])[H])C1(OC(=O)C([H])([H])[H])C([H])([H])[H]

$$$$
87:0:0
     RDKit          3D

 39 43  0  0  1  0  0  0  0  0999 V2000
    5.6172   -1.1887    2.5676 C   0  0  0  0  0  0  0  0  0  0  0  0
    5.6708   -1.8587    1.1763 C   0  0  0  0  0  0  0  0  0  0  0  0
    7.1044   -2.3470    0.8884 C   0  0  0  0  0  0  0  0  0  0  0  0
    4.5891   -2.9427    1.0112 C   0  0  0  0  0  0  0  0  0  0  0  0
    3.5856   -2.3247   -0.0138 C   0  0  1  0  0  0  0  0  0  0  0  0
    3.6351   -0.9051    0.2727 C   0  0  0  0  0  0  0  0  0  0  0  0
    5.1968   -0.9481    0.0520 C   0  0  2  0  0  0  0  0  0  0  0  0
    5.4838   -1.8162   -1.1252 O   0  0  0  0  0  0  0  0  0  0  0  0
    4.2407   -2.2761   -1.4004 C   0  0  2  0  0  0  0  0  0  0  0  0
    3.5238   -1.3633   -2.5517 N   0  0  0  0  0  0  0  0  0  0  0  0
    4.2757   -0.1335   -2.8149 C   0  0  0  0  0  0  0  0  0  0  0  0
    3.8223    0.4092   -4.1531 C   0  0  0  0  0  0  0  0  0  0  0  0
    3.2968   -0.7855   -4.8612 C   0  0  0  0  0  0  0  0  0  0  0  0
    3.4939   -1.9604   -3.9159 C   0  0  0  0  0  0  0  0  0  0  0  0
    3.5940   -3.5854   -1.6496 C   0  0  2  0  0  0  0  0  0  0  0  0
    2.1749   -3.5117   -1.8451 O   0  0  0  0  0  0  0  0  0  0  0  0
    2.6123   -3.3525   -0.4927 C   0  0  2  0  0  0  0  0  0  0  0  0
    5.9582   -1.9039    3.3128 H   0  0  0  0  0  0  0  0  0  0  0  0
    4.6190   -0.8770    2.8770 H   0  0  0  0  0  0  0  0  0  0  0  0
    6.2676   -0.3133    2.6124 H   0  0  0  0  0  0  0  0  0  0  0  0
    7.2446   -2.8840   -0.0427 H   0  0  0  0  0  0  0  0  0  0  0  0
    7.4004   -3.0506    1.6686 H   0  0  0  0  0  0  0  0  0  0  0  0
    7.7932   -1.4977    0.8707 H   0  0  0  0  0  0  0  0  0  0  0  0
    5.0221   -3.8636    0.6216 H   0  0  0  0  0  0  0  0  0  0  0  0
    4.0748   -3.1808    1.9550 H   0  0  0  0  0  0  0  0  0  0  0  0
    3.0166   -0.2860   -0.3426 H   0  0  0  0  0  0  0  0  0  0  0  0
    3.2732   -0.7108    1.2813 H   0  0  0  0  0  0  0  0  0  0  0  0
    5.6701    0.0332    0.0716 H   0  0  0  0  0  0  0  0  0  0  0  0
    4.2073    0.5607   -2.0154 H   0  0  0  0  0  0  0  0  0  0  0  0
    5.3298   -0.4072   -2.8945 H   0  0  0  0  0  0  0  0  0  0  0  0
    2.9973    1.0844   -4.0368 H   0  0  0  0  0  0  0  0  0  0  0  0
    4.5916    0.9363   -4.7143 H   0  0  0  0  0  0  0  0  0  0  0  0
    2.2333   -0.6119   -5.0297 H   0  0  0  0  0  0  0  0  0  0  0  0
    3.7710   -0.9153   -5.8288 H   0  0  0  0  0  0  0  0  0  0  0  0
    4.4636   -2.4208   -4.1233 H   0  0  0  0  0  0  0  0  0  0  0  0
    2.7281   -2.7206   -4.0761 H   0  0  0  0  0  0  0  0  0  0  0  0
    4.1736   -4.5162   -1.6841 H   0  0  0  0  0  0  0  0  0  0  0  0
    2.2728   -4.1259    0.2002 H   0  0  0  0  0  0  0  0  0  0  0  0
    2.5829   -1.1656   -2.2760 H   0  0  0  0  0  0  0  0  0  0  0  0
  1  2  1  0
  1 18  1  0
  1 19  1  0
  1 20  1  0
  2  7  1  0
  2  3  1  0
  2  4  1  0
  3 21  1  0
  3 22  1  0
  3 23  1  0
  5  4  1  1
  4 24  1  0
  4 25  1  0
  5  9  1  0
  5 17  1  0
  5  6  1  0
  6  7  1  0
  6 26  1  0
  6 27  1  0
  7  8  1  0
  7 28  1  6
  8  9  1  0
  9 10  1  6
  9 15  1  0
 10 14  1  0
 10 11  1  0
 10 39  1  0
 11 12  1  0
 11 29  1  0
 11 30  1  0
 12 13  1  0
 12 31  1  0
 12 32  1  0
 13 14  1  0
 13 33  1  0
 13 34  1  0
 14 35  1  0
 14 36  1  0
 15 17  1  0
 15 16  1  0
 15 37  1  1
 16 17  1  0
 17 38  1  1
M  CHG  1  10   1
M  END
>  <i_m_ct_stereo_status>  (344) 
1

>  <s_m_source_file>  (344) 
/var/tmp/pbs.5076255.sched01/tmpgahbdy6u/1388ql836nh.sdf

>  <i_m_source_file_index>  (344) 
3

>  <i_lp_mmshare_version>  (344) 
48012

>  <i_f3d_flags>  (344) 
0

>  <s_epik_input>  (344) 
W0NIM11DKFtDSDNdKShbQ0gyXTEpW0NASF0oW0NIMl0yKU9bQ0BdKFtDQEBdMTIzKShbQ0BIXTRbQ0BASF0zTzQpTjVbQ0gyXVtDSDJdW0NIMl1bQ0gyXTU=

>  <s_epik_cmdline>  (344) 
J2VwaWtfcHl0aG9uJywgJy1waHQnLCAnMi4wJywgJy1waCcsICc3LjAnLCAnLXRuJywgJzgnLCAnLW1hJywgJzIwMCcsICctaW1hZScsICc8aW5maWxlLm1hZT4nLCAnLW9tYWUnLCAnPG91dGZpbGUubWFlPic=

>  <r_epik_Ionization_Penalty>  (344) 
0.339685

>  <r_epik_Ionization_Penalty_Charging>  (344) 
0.339685

>  <r_epik_Ionization_Penalty_Neutral>  (344) 
1.90759e-14

>  <r_epik_State_Penalty>  (344) 
0.335267

>  <r_epik_Charging_Adjusted_Penalty>  (344) 
0.674952

>  <i_epik_Tot_Q>  (344) 
1

>  <i_epik_Tot_abs_Q>  (344) 
1

>  <s_lp_Force_Field>  (344) 
OPLS3e

>  <r_lp_Energy>  (344) 
82.6234

>  <b_lp_Chiralities_Consistent>  (344) 
1

>  <s_lp_Variant>  (344) 
87:0-1

>  <s_i_glide_gridfile>  (344) 
pfpi4k_grid

>  <i_i_glide_lignum>  (344) 
3

>  <i_i_glide_rotatable_bonds>  (344) 
1

>  <r_i_docking_score>  (344) 
-2.95861

>  <r_i_glide_ligand_efficiency>  (344) 
-0.174036

>  <r_i_glide_ligand_efficiency_sa>  (344) 
-0.447496

>  <r_i_glide_ligand_efficiency_ln>  (344) 
-0.771837

>  <r_i_glide_gscore>  (344) 
-2.95861

>  <r_i_glide_lipo>  (344) 
-0.655019

>  <r_i_glide_hbond>  (344) 
-0.0426154

>  <r_i_glide_metal>  (344) 
-0

>  <r_i_glide_rewards>  (344) 
-1.79775

>  <r_i_glide_evdw>  (344) 
-6.79502

>  <r_i_glide_ecoul>  (344) 
-2.29643

>  <r_i_glide_erotb>  (344) 
0.308235

>  <r_i_glide_esite>  (344) 
-0.0872499

>  <r_i_glide_emodel>  (344) 
-8.9048

>  <r_i_glide_energy>  (344) 
-9.09145

>  <r_i_glide_einternal>  (344) 
0.0935992

>  <r_i_glide_intrahb_reward>  (344) 
-0

>  <i_i_glide_confnum>  (344) 
1

>  <i_i_glide_posenum>  (344) 
34

>  <r_i_glide_eff_state_penalty>  (344) 
0

>  <ligand_id>  (344) 
87

>  <original_smiles>  (344) 
CC1(C)CC23CC1OC2(N1CCCC1)C1OC13

>  <smiles>  (344) 
[H]C([H])([H])C1(C([H])([H])[H])C([H])([H])C23C([H])([H])C1([H])OC2([N+]1([H])C([H])([H])C([H])([H])C([H])([H])C1([H])[H])C1([H])OC13[H]

$$$$
87:1:0
     RDKit          3D

 38 42  0  0  1  0  0  0  0  0999 V2000
    4.2262   -6.0570    2.3977 C   0  0  0  0  0  0  0  0  0  0  0  0
    4.3065   -4.5816    1.9401 C   0  0  0  0  0  0  0  0  0  0  0  0
    3.4947   -3.7317    2.9567 C   0  0  0  0  0  0  0  0  0  0  0  0
    5.7538   -4.0728    1.6989 C   0  0  0  0  0  0  0  0  0  0  0  0
    5.8373   -3.8309    0.1546 C   0  0  1  0  0  0  0  0  0  0  0  0
    5.0349   -4.9142   -0.3779 C   0  0  0  0  0  0  0  0  0  0  0  0
    3.8227   -4.3827    0.4962 C   0  0  2  0  0  0  0  0  0  0  0  0
    3.8325   -2.9129    0.4628 O   0  0  0  0  0  0  0  0  0  0  0  0
    4.9422   -2.6487   -0.2822 C   0  0  2  0  0  0  0  0  0  0  0  0
    4.5047   -2.4218   -1.7230 N   0  0  0  0  0  0  0  0  0  0  0  0
    3.3484   -3.1566   -2.2945 C   0  0  0  0  0  0  0  0  0  0  0  0
    2.9617   -2.4672   -3.5840 C   0  0  0  0  0  0  0  0  0  0  0  0
    3.4838   -1.0447   -3.4454 C   0  0  0  0  0  0  0  0  0  0  0  0
    4.1855   -1.0139   -2.0885 C   0  0  0  0  0  0  0  0  0  0  0  0
    6.1830   -1.8264   -0.0390 C   0  0  2  0  0  0  0  0  0  0  0  0
    7.1307   -1.9122   -1.1081 O   0  0  0  0  0  0  0  0  0  0  0  0
    7.0878   -3.0659   -0.2337 C   0  0  2  0  0  0  0  0  0  0  0  0
    4.5966   -6.1623    3.4189 H   0  0  0  0  0  0  0  0  0  0  0  0
    4.8063   -6.7412    1.7772 H   0  0  0  0  0  0  0  0  0  0  0  0
    3.1911   -6.4124    2.3862 H   0  0  0  0  0  0  0  0  0  0  0  0
    3.5649   -2.6559    2.7790 H   0  0  0  0  0  0  0  0  0  0  0  0
    3.8446   -3.8877    3.9771 H   0  0  0  0  0  0  0  0  0  0  0  0
    2.4311   -3.9853    2.9162 H   0  0  0  0  0  0  0  0  0  0  0  0
    5.9452   -3.1639    2.2804 H   0  0  0  0  0  0  0  0  0  0  0  0
    6.4805   -4.8158    2.0229 H   0  0  0  0  0  0  0  0  0  0  0  0
    4.9960   -4.9380   -1.4592 H   0  0  0  0  0  0  0  0  0  0  0  0
    5.4123   -5.8869   -0.0775 H   0  0  0  0  0  0  0  0  0  0  0  0
    2.8568   -4.8362    0.2776 H   0  0  0  0  0  0  0  0  0  0  0  0
    3.5582   -4.1926   -2.5181 H   0  0  0  0  0  0  0  0  0  0  0  0
    2.5154   -3.0964   -1.5847 H   0  0  0  0  0  0  0  0  0  0  0  0
    3.4408   -2.9692   -4.4202 H   0  0  0  0  0  0  0  0  0  0  0  0
    1.8852   -2.5226   -3.7191 H   0  0  0  0  0  0  0  0  0  0  0  0
    4.1898   -0.8222   -4.2434 H   0  0  0  0  0  0  0  0  0  0  0  0
    2.6805   -0.3126   -3.4900 H   0  0  0  0  0  0  0  0  0  0  0  0
    3.4864   -0.6508   -1.3313 H   0  0  0  0  0  0  0  0  0  0  0  0
    5.0459   -0.3482   -2.0776 H   0  0  0  0  0  0  0  0  0  0  0  0
    6.3540   -1.1788    0.8097 H   0  0  0  0  0  0  0  0  0  0  0  0
    8.0144   -3.2493    0.2980 H   0  0  0  0  0  0  0  0  0  0  0  0
  1  2  1  0
  1 18  1  0
  1 19  1  0
  1 20  1  0
  2  7  1  0
  2  3  1  0
  2  4  1  0
  3 21  1  0
  3 22  1  0
  3 23  1  0
  5  4  1  1
  4 24  1  0
  4 25  1  0
  5  9  1  0
  5 17  1  0
  5  6  1  0
  6  7  1  0
  6 26  1  0
  6 27  1  0
  7  8  1  0
  7 28  1  1
  8  9  1  0
  9 10  1  6
  9 15  1  0
 10 14  1  0
 10 11  1  0
 11 12  1  0
 11 29  1  0
 11 30  1  0
 12 13  1  0
 12 31  1  0
 12 32  1  0
 13 14  1  0
 13 33  1  0
 13 34  1  0
 14 35  1  0
 14 36  1  0
 15 17  1  0
 15 16  1  0
 15 37  1  1
 16 17  1  0
 17 38  1  1
M  END
>  <i_m_ct_stereo_status>  (345) 
1

>  <s_m_source_file>  (345) 
/var/tmp/pbs.5076255.sched01/tmpgahbdy6u/1388ql836nh.sdf

>  <i_m_source_file_index>  (345) 
4

>  <i_lp_mmshare_version>  (345) 
48012

>  <i_f3d_flags>  (345) 
0

>  <s_epik_input>  (345) 
W0NIM11DKFtDSDNdKShbQ0gyXTEpW0NASF0oW0NIMl0yKU9bQ0BdKFtDQEBdMTIzKShbQ0BIXTRbQ0BASF0zTzQpTjVbQ0gyXVtDSDJdW0NIMl1bQ0gyXTU=

>  <s_epik_cmdline>  (345) 
J2VwaWtfcHl0aG9uJywgJy1waHQnLCAnMi4wJywgJy1waCcsICc3LjAnLCAnLXRuJywgJzgnLCAnLW1hJywgJzIwMCcsICctaW1hZScsICc8aW5maWxlLm1hZT4nLCAnLW9tYWUnLCAnPG91dGZpbGUubWFlPic=

>  <r_epik_Ionization_Penalty>  (345) 
0.491355

>  <r_epik_Ionization_Penalty_Charging>  (345) 
0

>  <r_epik_Ionization_Penalty_Neutral>  (345) 
0.491355

>  <r_epik_State_Penalty>  (345) 
0.497111

>  <r_epik_Charging_Adjusted_Penalty>  (345) 
0.497111

>  <i_epik_Tot_Q>  (345) 
0

>  <i_epik_Tot_abs_Q>  (345) 
0

>  <s_lp_Force_Field>  (345) 
OPLS3e

>  <r_lp_Energy>  (345) 
97.5055

>  <b_lp_Chiralities_Consistent>  (345) 
1

>  <s_lp_Variant>  (345) 
87:0-2

>  <s_i_glide_gridfile>  (345) 
pfpi4k_grid

>  <i_i_glide_lignum>  (345) 
4

>  <i_i_glide_rotatable_bonds>  (345) 
1

>  <r_i_docking_score>  (345) 
-3.90653

>  <r_i_glide_ligand_efficiency>  (345) 
-0.229796

>  <r_i_glide_ligand_efficiency_sa>  (345) 
-0.59087

>  <r_i_glide_ligand_efficiency_ln>  (345) 
-1.01913

>  <r_i_glide_gscore>  (345) 
-3.90653

>  <r_i_glide_lipo>  (345) 
-0.660205

>  <r_i_glide_hbond>  (345) 
-0.16

>  <r_i_glide_metal>  (345) 
-0

>  <r_i_glide_rewards>  (345) 
-1.80462

>  <r_i_glide_evdw>  (345) 
-20.0857

>  <r_i_glide_ecoul>  (345) 
-3.91114

>  <r_i_glide_erotb>  (345) 
0.310486

>  <r_i_glide_esite>  (345) 
-0.00123318

>  <r_i_glide_emodel>  (345) 
-29.2367

>  <r_i_glide_energy>  (345) 
-23.9968

>  <r_i_glide_einternal>  (345) 
0.0011361

>  <r_i_glide_intrahb_reward>  (345) 
-0

>  <i_i_glide_confnum>  (345) 
4

>  <i_i_glide_posenum>  (345) 
40

>  <r_i_glide_eff_state_penalty>  (345) 
0

>  <ligand_id>  (345) 
87

>  <original_smiles>  (345) 
CC1(C)CC23CC1OC2(N1CCCC1)C1OC13

>  <smiles>  (345) 
[H]C([H])([H])C1(C([H])([H])[H])C([H])([H])C23C([H])([H])C1([H])OC2(N1C([H])([H])C([H])([H])C([H])([H])C1([H])[H])C1([H])OC13[H]

$$$$
87:1:1
     RDKit          3D

 38 42  0  0  1  0  0  0  0  0999 V2000
    3.7652   -1.0130   -4.2165 C   0  0  0  0  0  0  0  0  0  0  0  0
    3.6258   -2.1344   -3.1585 C   0  0  0  0  0  0  0  0  0  0  0  0
    2.4243   -3.0140   -3.5948 C   0  0  0  0  0  0  0  0  0  0  0  0
    4.9204   -2.9184   -2.8464 C   0  0  0  0  0  0  0  0  0  0  0  0
    5.2920   -2.5064   -1.3982 C   0  0  1  0  0  0  0  0  0  0  0  0
    4.9081   -1.1159   -1.3340 C   0  0  0  0  0  0  0  0  0  0  0  0
    3.4353   -1.5678   -1.7560 C   0  0  2  0  0  0  0  0  0  0  0  0
    3.1106   -2.8090   -1.0473 O   0  0  0  0  0  0  0  0  0  0  0  0
    4.2661   -3.0327   -0.3780 C   0  0  2  0  0  0  0  0  0  0  0  0
    4.0875   -2.4849    1.0474 N   0  0  0  0  0  0  0  0  0  0  0  0
    3.5803   -3.4575    2.0463 C   0  0  0  0  0  0  0  0  0  0  0  0
    3.2209   -2.6651    3.3047 C   0  0  0  0  0  0  0  0  0  0  0  0
    3.0703   -1.2224    2.8393 C   0  0  0  0  0  0  0  0  0  0  0  0
    3.3015   -1.2532    1.3313 C   0  0  0  0  0  0  0  0  0  0  0  0
    5.1949   -4.2347   -0.3089 C   0  0  1  0  0  0  0  0  0  0  0  0
    6.3854   -4.0242    0.4626 O   0  0  0  0  0  0  0  0  0  0  0  0
    6.3710   -3.4094   -0.8165 C   0  0  2  0  0  0  0  0  0  0  0  0
    3.8881   -1.4517   -5.2058 H   0  0  0  0  0  0  0  0  0  0  0  0
    4.6100   -0.3432   -4.0556 H   0  0  0  0  0  0  0  0  0  0  0  0
    2.8593   -0.3897   -4.2601 H   0  0  0  0  0  0  0  0  0  0  0  0
    2.2517   -3.8681   -2.9474 H   0  0  0  0  0  0  0  0  0  0  0  0
    2.5504   -3.4207   -4.6025 H   0  0  0  0  0  0  0  0  0  0  0  0
    1.4829   -2.4492   -3.5812 H   0  0  0  0  0  0  0  0  0  0  0  0
    4.7457   -3.9868   -2.9494 H   0  0  0  0  0  0  0  0  0  0  0  0
    5.7075   -2.6728   -3.5377 H   0  0  0  0  0  0  0  0  0  0  0  0
    5.0979   -0.6294   -0.3729 H   0  0  0  0  0  0  0  0  0  0  0  0
    5.3962   -0.5045   -2.0859 H   0  0  0  0  0  0  0  0  0  0  0  0
    2.6793   -0.7918   -1.7103 H   0  0  0  0  0  0  0  0  0  0  0  0
    2.6720   -3.9179    1.6455 H   0  0  0  0  0  0  0  0  0  0  0  0
    4.2724   -4.2650    2.2556 H   0  0  0  0  0  0  0  0  0  0  0  0
    2.3134   -3.0402    3.7660 H   0  0  0  0  0  0  0  0  0  0  0  0
    4.0212   -2.7395    4.0392 H   0  0  0  0  0  0  0  0  0  0  0  0
    2.0886   -0.8029    3.0545 H   0  0  0  0  0  0  0  0  0  0  0  0
    3.8264   -0.5958    3.3116 H   0  0  0  0  0  0  0  0  0  0  0  0
    3.7464   -0.3010    1.0531 H   0  0  0  0  0  0  0  0  0  0  0  0
    2.3134   -1.3224    0.8518 H   0  0  0  0  0  0  0  0  0  0  0  0
    5.0104   -5.1661   -0.8503 H   0  0  0  0  0  0  0  0  0  0  0  0
    7.1217   -3.7938   -1.5110 H   0  0  0  0  0  0  0  0  0  0  0  0
  1  2  1  0
  1 18  1  0
  1 19  1  0
  1 20  1  0
  2  7  1  0
  2  3  1  0
  2  4  1  0
  3 21  1  0
  3 22  1  0
  3 23  1  0
  5  4  1  6
  4 24  1  0
  4 25  1  0
  5  9  1  0
  5 17  1  0
  5  6  1  0
  6  7  1  0
  6 26  1  0
  6 27  1  0
  7  8  1  0
  7 28  1  6
  8  9  1  0
  9 10  1  1
  9 15  1  0
 10 14  1  0
 10 11  1  0
 11 12  1  0
 11 29  1  0
 11 30  1  0
 12 13  1  0
 12 31  1  0
 12 32  1  0
 13 14  1  0
 13 33  1  0
 13 34  1  0
 14 35  1  0
 14 36  1  0
 15 17  1  0
 15 16  1  0
 15 37  1  6
 16 17  1  0
 17 38  1  6
M  END
>  <i_m_ct_stereo_status>  (346) 
1

>  <s_m_source_file>  (346) 
/var/tmp/pbs.5076255.sched01/tmpgahbdy6u/1388ql836nh.sdf

>  <i_m_source_file_index>  (346) 
4

>  <i_lp_mmshare_version>  (346) 
48012

>  <i_f3d_flags>  (346) 
0

>  <s_epik_input>  (346) 
W0NIM11DKFtDSDNdKShbQ0gyXTEpW0NASF0oW0NIMl0yKU9bQ0BdKFtDQEBdMTIzKShbQ0BIXTRbQ0BASF0zTzQpTjVbQ0gyXVtDSDJdW0NIMl1bQ0gyXTU=

>  <s_epik_cmdline>  (346) 
J2VwaWtfcHl0aG9uJywgJy1waHQnLCAnMi4wJywgJy1waCcsICc3LjAnLCAnLXRuJywgJzgnLCAnLW1hJywgJzIwMCcsICctaW1hZScsICc8aW5maWxlLm1hZT4nLCAnLW9tYWUnLCAnPG91dGZpbGUubWFlPic=

>  <r_epik_Ionization_Penalty>  (346) 
0.491355

>  <r_epik_Ionization_Penalty_Charging>  (346) 
0

>  <r_epik_Ionization_Penalty_Neutral>  (346) 
0.491355

>  <r_epik_State_Penalty>  (346) 
0.497111

>  <r_epik_Charging_Adjusted_Penalty>  (346) 
0.497111

>  <i_epik_Tot_Q>  (346) 
0

>  <i_epik_Tot_abs_Q>  (346) 
0

>  <s_lp_Force_Field>  (346) 
OPLS3e

>  <r_lp_Energy>  (346) 
97.5055

>  <b_lp_Chiralities_Consistent>  (346) 
1

>  <s_lp_Variant>  (346) 
87:0-2

>  <s_i_glide_gridfile>  (346) 
pfpi4k_grid

>  <i_i_glide_lignum>  (346) 
4

>  <i_i_glide_rotatable_bonds>  (346) 
1

>  <r_i_docking_score>  (346) 
-3.45939

>  <r_i_glide_ligand_efficiency>  (346) 
-0.203494

>  <r_i_glide_ligand_efficiency_sa>  (346) 
-0.52324

>  <r_i_glide_ligand_efficiency_ln>  (346) 
-0.902478

>  <r_i_glide_gscore>  (346) 
-3.45939

>  <r_i_glide_lipo>  (346) 
-0.760207

>  <r_i_glide_hbond>  (346) 
0

>  <r_i_glide_metal>  (346) 
-0

>  <r_i_glide_rewards>  (346) 
-1.82052

>  <r_i_glide_evdw>  (346) 
-24.2845

>  <r_i_glide_ecoul>  (346) 
0.16717

>  <r_i_glide_erotb>  (346) 
0.310486

>  <r_i_glide_esite>  (346) 
0

>  <r_i_glide_emodel>  (346) 
-28.8259

>  <r_i_glide_energy>  (346) 
-24.1174

>  <r_i_glide_einternal>  (346) 
0.000468916

>  <r_i_glide_intrahb_reward>  (346) 
-0

>  <i_i_glide_confnum>  (346) 
5

>  <i_i_glide_posenum>  (346) 
25

>  <r_i_glide_eff_state_penalty>  (346) 
0

>  <ligand_id>  (346) 
87

>  <original_smiles>  (346) 
CC1(C)CC23CC1OC2(N1CCCC1)C1OC13

>  <smiles>  (346) 
[H]C([H])([H])C1(C([H])([H])[H])C([H])([H])C23C([H])([H])C1([H])OC2(N1C([H])([H])C([H])([H])C([H])([H])C1([H])[H])C1([H])OC13[H]

$$$$
87:1:2
     RDKit          3D

 38 42  0  0  1  0  0  0  0  0999 V2000
    3.0461   -1.8880   -3.6270 C   0  0  0  0  0  0  0  0  0  0  0  0
    4.0870   -2.7238   -2.8479 C   0  0  0  0  0  0  0  0  0  0  0  0
    4.6100   -3.8324   -3.8060 C   0  0  0  0  0  0  0  0  0  0  0  0
    5.1926   -1.8844   -2.1618 C   0  0  0  0  0  0  0  0  0  0  0  0
    4.9352   -2.0469   -0.6257 C   0  0  1  0  0  0  0  0  0  0  0  0
    3.4893   -2.0811   -0.5419 C   0  0  0  0  0  0  0  0  0  0  0  0
    3.5195   -3.3100   -1.5473 C   0  0  2  0  0  0  0  0  0  0  0  0
    4.6490   -4.1752   -1.1788 O   0  0  0  0  0  0  0  0  0  0  0  0
    5.2076   -3.4935   -0.1536 C   0  0  2  0  0  0  0  0  0  0  0  0
    4.6605   -4.0743    1.1440 N   0  0  0  0  0  0  0  0  0  0  0  0
    5.4688   -5.1855    1.7345 C   0  0  0  0  0  0  0  0  0  0  0  0
    4.6301   -5.8043    2.8440 C   0  0  0  0  0  0  0  0  0  0  0  0
    3.1955   -5.3869    2.5399 C   0  0  0  0  0  0  0  0  0  0  0  0
    3.2583   -4.5887    1.2562 C   0  0  0  0  0  0  0  0  0  0  0  0
    6.6033   -2.9803    0.0841 C   0  0  2  0  0  0  0  0  0  0  0  0
    6.7383   -2.2176    1.2817 O   0  0  0  0  0  0  0  0  0  0  0  0
    6.0964   -1.5316    0.1968 C   0  0  2  0  0  0  0  0  0  0  0  0
    3.4903   -1.4694   -4.5326 H   0  0  0  0  0  0  0  0  0  0  0  0
    2.6316   -1.0559   -3.0553 H   0  0  0  0  0  0  0  0  0  0  0  0
    2.2008   -2.5147   -3.9354 H   0  0  0  0  0  0  0  0  0  0  0  0
    5.4145   -4.4270   -3.3695 H   0  0  0  0  0  0  0  0  0  0  0  0
    5.0027   -3.4523   -4.7334 H   0  0  0  0  0  0  0  0  0  0  0  0
    3.8133   -4.5330   -4.0646 H   0  0  0  0  0  0  0  0  0  0  0  0
    6.1822   -2.2528   -2.4493 H   0  0  0  0  0  0  0  0  0  0  0  0
    5.1263   -0.8351   -2.4690 H   0  0  0  0  0  0  0  0  0  0  0  0
    3.1037   -2.1647    0.4673 H   0  0  0  0  0  0  0  0  0  0  0  0
    3.0410   -1.1852   -0.9697 H   0  0  0  0  0  0  0  0  0  0  0  0
    2.5707   -3.8340   -1.6736 H   0  0  0  0  0  0  0  0  0  0  0  0
    5.6402   -5.9315    0.9451 H   0  0  0  0  0  0  0  0  0  0  0  0
    6.4521   -4.8641    2.0814 H   0  0  0  0  0  0  0  0  0  0  0  0
    4.7424   -6.8832    2.8716 H   0  0  0  0  0  0  0  0  0  0  0  0
    4.9369   -5.4158    3.8155 H   0  0  0  0  0  0  0  0  0  0  0  0
    2.5260   -6.2314    2.4195 H   0  0  0  0  0  0  0  0  0  0  0  0
    2.8167   -4.7596    3.3445 H   0  0  0  0  0  0  0  0  0  0  0  0
    2.4798   -3.8275    1.2891 H   0  0  0  0  0  0  0  0  0  0  0  0
    3.0747   -5.2673    0.4025 H   0  0  0  0  0  0  0  0  0  0  0  0
    7.4523   -3.1694   -0.5744 H   0  0  0  0  0  0  0  0  0  0  0  0
    6.6502   -0.6627   -0.1411 H   0  0  0  0  0  0  0  0  0  0  0  0
  1  2  1  0
  1 18  1  0
  1 19  1  0
  1 20  1  0
  2  7  1  0
  2  3  1  0
  2  4  1  0
  3 21  1  0
  3 22  1  0
  3 23  1  0
  5  4  1  6
  4 24  1  0
  4 25  1  0
  5  9  1  0
  5 17  1  0
  5  6  1  0
  6  7  1  0
  6 26  1  0
  6 27  1  0
  7  8  1  0
  7 28  1  6
  8  9  1  0
  9 10  1  1
  9 15  1  0
 10 14  1  0
 10 11  1  0
 11 12  1  0
 11 29  1  0
 11 30  1  0
 12 13  1  0
 12 31  1  0
 12 32  1  0
 13 14  1  0
 13 33  1  0
 13 34  1  0
 14 35  1  0
 14 36  1  0
 15 17  1  0
 15 16  1  0
 15 37  1  6
 16 17  1  0
 17 38  1  6
M  END
>  <i_m_ct_stereo_status>  (347) 
1

>  <s_m_source_file>  (347) 
/var/tmp/pbs.5076255.sched01/tmpgahbdy6u/1388ql836nh.sdf

>  <i_m_source_file_index>  (347) 
4

>  <i_lp_mmshare_version>  (347) 
48012

>  <i_f3d_flags>  (347) 
0

>  <s_epik_input>  (347) 
W0NIM11DKFtDSDNdKShbQ0gyXTEpW0NASF0oW0NIMl0yKU9bQ0BdKFtDQEBdMTIzKShbQ0BIXTRbQ0BASF0zTzQpTjVbQ0gyXVtDSDJdW0NIMl1bQ0gyXTU=

>  <s_epik_cmdline>  (347) 
J2VwaWtfcHl0aG9uJywgJy1waHQnLCAnMi4wJywgJy1waCcsICc3LjAnLCAnLXRuJywgJzgnLCAnLW1hJywgJzIwMCcsICctaW1hZScsICc8aW5maWxlLm1hZT4nLCAnLW9tYWUnLCAnPG91dGZpbGUubWFlPic=

>  <r_epik_Ionization_Penalty>  (347) 
0.491355

>  <r_epik_Ionization_Penalty_Charging>  (347) 
0

>  <r_epik_Ionization_Penalty_Neutral>  (347) 
0.491355

>  <r_epik_State_Penalty>  (347) 
0.497111

>  <r_epik_Charging_Adjusted_Penalty>  (347) 
0.497111

>  <i_epik_Tot_Q>  (347) 
0

>  <i_epik_Tot_abs_Q>  (347) 
0

>  <s_lp_Force_Field>  (347) 
OPLS3e

>  <r_lp_Energy>  (347) 
97.5055

>  <b_lp_Chiralities_Consistent>  (347) 
1

>  <s_lp_Variant>  (347) 
87:0-2

>  <s_i_glide_gridfile>  (347) 
pfpi4k_grid

>  <i_i_glide_lignum>  (347) 
4

>  <i_i_glide_rotatable_bonds>  (347) 
1

>  <r_i_docking_score>  (347) 
-3.04978

>  <r_i_glide_ligand_efficiency>  (347) 
-0.179399

>  <r_i_glide_ligand_efficiency_sa>  (347) 
-0.461285

>  <r_i_glide_ligand_efficiency_ln>  (347) 
-0.79562

>  <r_i_glide_gscore>  (347) 
-3.04978

>  <r_i_glide_lipo>  (347) 
-0.507965

>  <r_i_glide_hbond>  (347) 
0

>  <r_i_glide_metal>  (347) 
-0

>  <r_i_glide_rewards>  (347) 
-1.87111

>  <r_i_glide_evdw>  (347) 
-21.6873

>  <r_i_glide_ecoul>  (347) 
0.687817

>  <r_i_glide_erotb>  (347) 
0.310486

>  <r_i_glide_esite>  (347) 
0

>  <r_i_glide_emodel>  (347) 
-24.9301

>  <r_i_glide_energy>  (347) 
-20.9994

>  <r_i_glide_einternal>  (347) 
0.00165238

>  <r_i_glide_intrahb_reward>  (347) 
-0

>  <i_i_glide_confnum>  (347) 
1

>  <i_i_glide_posenum>  (347) 
18

>  <r_i_glide_eff_state_penalty>  (347) 
0

>  <ligand_id>  (347) 
87

>  <original_smiles>  (347) 
CC1(C)CC23CC1OC2(N1CCCC1)C1OC13

>  <smiles>  (347) 
[H]C([H])([H])C1(C([H])([H])[H])C([H])([H])C23C([H])([H])C1([H])OC2(N1C([H])([H])C([H])([H])C([H])([H])C1([H])[H])C1([H])OC13[H]

$$$$
88:0:0
     RDKit          3D

 29 31  0  0  1  0  0  0  0  0999 V2000
    2.7583   -3.4054   -1.0931 C   0  0  0  0  0  0  0  0  0  0  0  0
    4.0361   -3.9043   -0.4377 C   0  0  0  0  0  0  0  0  0  0  0  0
    4.2241   -4.9802    0.5027 C   0  0  0  0  0  0  0  0  0  0  0  0
    3.1497   -5.8551    1.0188 C   0  0  0  0  0  0  0  0  0  0  0  0
    1.8360   -5.5243    1.0386 N   0  0  0  0  0  0  0  0  0  0  0  0
    1.1555   -6.6226    1.5623 C   0  0  0  0  0  0  0  0  0  0  0  0
   -0.1735   -6.6992    1.7211 N   0  0  0  0  0  0  0  0  0  0  0  0
   -0.6307   -7.8703    2.2358 C   0  0  0  0  0  0  0  0  0  0  0  0
    0.1839   -8.9664    2.6111 C   0  0  0  0  0  0  0  0  0  0  0  0
    1.5839   -8.8571    2.4320 C   0  0  0  0  0  0  0  0  0  0  0  0
    2.0597   -7.6537    1.8966 C   0  0  0  0  0  0  0  0  0  0  0  0
    3.2649   -7.1171    1.5522 N   0  0  0  0  0  0  0  0  0  0  0  0
    4.4929   -7.9034    1.6968 C   0  0  0  0  0  0  0  0  0  0  0  0
    5.5455   -4.9692    0.8532 C   0  0  0  0  0  0  0  0  0  0  0  0
    6.2066   -4.0247    0.1652 O   0  0  0  0  0  0  0  0  0  0  0  0
    5.3015   -3.3706   -0.6068 C   0  0  0  0  0  0  0  0  0  0  0  0
    5.8206   -2.2541   -1.4184 C   0  0  0  0  0  0  0  0  0  0  0  0
    5.1293   -1.7598   -2.3298 O   0  0  0  0  0  0  0  0  0  0  0  0
    6.9866   -1.8582   -1.1439 O   0  0  0  0  0  0  0  0  0  0  0  0
    1.8584   -3.6242   -0.5316 H   0  0  0  0  0  0  0  0  0  0  0  0
    2.6346   -3.8539   -2.0867 H   0  0  0  0  0  0  0  0  0  0  0  0
    2.7753   -2.3135   -1.2030 H   0  0  0  0  0  0  0  0  0  0  0  0
   -1.7041   -7.9324    2.3444 H   0  0  0  0  0  0  0  0  0  0  0  0
   -0.2563   -9.8713    3.0028 H   0  0  0  0  0  0  0  0  0  0  0  0
    2.2560   -9.6712    2.6761 H   0  0  0  0  0  0  0  0  0  0  0  0
    4.4160   -8.5461    2.5829 H   0  0  0  0  0  0  0  0  0  0  0  0
    5.3874   -7.3147    1.8831 H   0  0  0  0  0  0  0  0  0  0  0  0
    4.6533   -8.5145    0.8109 H   0  0  0  0  0  0  0  0  0  0  0  0
    6.2102   -5.4840    1.5428 H   0  0  0  0  0  0  0  0  0  0  0  0
  1  2  1  0
  1 20  1  0
  1 21  1  0
  1 22  1  0
  2 16  2  0
  2  3  1  0
  3  4  1  0
  3 14  2  0
  4 12  1  0
  4  5  2  0
  5  6  1  0
  6 11  2  0
  6  7  1  0
  7  8  2  0
  8  9  1  0
  8 23  1  0
  9 10  2  0
  9 24  1  0
 10 11  1  0
 10 25  1  0
 11 12  1  0
 12 13  1  0
 13 26  1  0
 13 27  1  0
 13 28  1  0
 14 15  1  0
 14 29  1  0
 15 16  1  0
 16 17  1  0
 17 18  2  0
 17 19  1  0
M  CHG  1  19  -1
M  END
>  <i_m_ct_stereo_status>  (348) 
1

>  <s_m_source_file>  (348) 
/var/tmp/pbs.5076255.sched01/tmpgahbdy6u/1388ql836nh.sdf

>  <i_m_source_file_index>  (348) 
5

>  <i_lp_mmshare_version>  (348) 
48012

>  <i_f3d_flags>  (348) 
0

>  <s_epik_input>  (348) 
Tz1DKFtPSF0pYzFvW2NIXWMoYzFbQ0gzXSktYyhuMiluKFtDSDNdKWMoYzIzKVtjSF1bY0hdW2NIXW4z

>  <s_epik_cmdline>  (348) 
J2VwaWtfcHl0aG9uJywgJy1waHQnLCAnMi4wJywgJy1waCcsICc3LjAnLCAnLXRuJywgJzgnLCAnLW1hJywgJzIwMCcsICctaW1hZScsICc8aW5maWxlLm1hZT4nLCAnLW9tYWUnLCAnPG91dGZpbGUubWFlPic=

>  <r_lp_tautomer_probability>  (348) 
1

>  <r_epik_Ionization_Penalty>  (348) 
0.00158751

>  <r_epik_Ionization_Penalty_Charging>  (348) 
8.40712e-05

>  <r_epik_Ionization_Penalty_Neutral>  (348) 
0.00150344

>  <r_epik_State_Penalty>  (348) 
1.26734e-05

>  <r_epik_Charging_Adjusted_Penalty>  (348) 
9.67446e-05

>  <i_epik_Tot_Q>  (348) 
-1

>  <i_epik_Tot_abs_Q>  (348) 
1

>  <s_lp_Force_Field>  (348) 
OPLS3e

>  <r_lp_Energy>  (348) 
19.4561

>  <b_lp_Chiralities_Consistent>  (348) 
1

>  <s_lp_Variant>  (348) 
88:0-1

>  <s_i_glide_gridfile>  (348) 
pfpi4k_grid

>  <i_i_glide_lignum>  (348) 
5

>  <i_i_glide_rotatable_bonds>  (348) 
2

>  <r_i_docking_score>  (348) 
-4.39471

>  <r_i_glide_ligand_efficiency>  (348) 
-0.2313

>  <r_i_glide_ligand_efficiency_sa>  (348) 
-0.617202

>  <r_i_glide_ligand_efficiency_ln>  (348) 
-1.11415

>  <r_i_glide_gscore>  (348) 
-4.39471

>  <r_i_glide_lipo>  (348) 
-0.248485

>  <r_i_glide_hbond>  (348) 
-0.480242

>  <r_i_glide_metal>  (348) 
-0

>  <r_i_glide_rewards>  (348) 
-1.74179

>  <r_i_glide_evdw>  (348) 
-21.1481

>  <r_i_glide_ecoul>  (348) 
-6.85056

>  <r_i_glide_erotb>  (348) 
0.268402

>  <r_i_glide_esite>  (348) 
-0.1076

>  <r_i_glide_emodel>  (348) 
-38.775

>  <r_i_glide_energy>  (348) 
-27.9987

>  <r_i_glide_einternal>  (348) 
0.353386

>  <r_i_glide_intrahb_reward>  (348) 
-0

>  <i_i_glide_confnum>  (348) 
4

>  <i_i_glide_posenum>  (348) 
26

>  <r_i_glide_eff_state_penalty>  (348) 
0

>  <ligand_id>  (348) 
88

>  <original_smiles>  (348) 
Cc1c(-c2nc3ncccc3n2C)coc1C(=O)O

>  <smiles>  (348) 
[H]c1nc2nc(-c3c([H])oc(C(=O)[O-])c3C([H])([H])[H])n(C([H])([H])[H])c2c([H])c1[H]

$$$$
88:0:1
     RDKit          3D

 29 31  0  0  1  0  0  0  0  0999 V2000
    0.3842   -4.6936    4.7964 C   0  0  0  0  0  0  0  0  0  0  0  0
    0.2586   -5.3486    6.1618 C   0  0  0  0  0  0  0  0  0  0  0  0
    0.5408   -6.7024    6.5367 C   0  0  0  0  0  0  0  0  0  0  0  0
    1.0362   -7.7322    5.6273 C   0  0  0  0  0  0  0  0  0  0  0  0
    1.6870   -7.5061    4.4729 N   0  0  0  0  0  0  0  0  0  0  0  0
    1.9908   -8.7575    3.9519 C   0  0  0  0  0  0  0  0  0  0  0  0
    2.6493   -8.9759    2.8115 N   0  0  0  0  0  0  0  0  0  0  0  0
    2.8762  -10.2720    2.5037 C   0  0  0  0  0  0  0  0  0  0  0  0
    2.4624  -11.3825    3.2794 C   0  0  0  0  0  0  0  0  0  0  0  0
    1.7568  -11.1391    4.4757 C   0  0  0  0  0  0  0  0  0  0  0  0
    1.5259   -9.7944    4.8003 C   0  0  0  0  0  0  0  0  0  0  0  0
    0.9317   -9.0931    5.8010 N   0  0  0  0  0  0  0  0  0  0  0  0
    0.2933   -9.7647    6.9300 C   0  0  0  0  0  0  0  0  0  0  0  0
    0.3291   -6.8188    7.8793 C   0  0  0  0  0  0  0  0  0  0  0  0
   -0.0930   -5.6402    8.3746 O   0  0  0  0  0  0  0  0  0  0  0  0
   -0.1385   -4.7561    7.3367 C   0  0  0  0  0  0  0  0  0  0  0  0
   -0.5817   -3.3897    7.6495 C   0  0  0  0  0  0  0  0  0  0  0  0
   -0.9711   -2.6472    6.7165 O   0  0  0  0  0  0  0  0  0  0  0  0
   -0.5884   -3.0271    8.8479 O   0  0  0  0  0  0  0  0  0  0  0  0
    0.3055   -5.4139    3.9871 H   0  0  0  0  0  0  0  0  0  0  0  0
    1.3513   -4.1954    4.7006 H   0  0  0  0  0  0  0  0  0  0  0  0
   -0.3905   -3.9429    4.6338 H   0  0  0  0  0  0  0  0  0  0  0  0
    3.4207  -10.4147    1.5849 H   0  0  0  0  0  0  0  0  0  0  0  0
    2.6915  -12.3880    2.9518 H   0  0  0  0  0  0  0  0  0  0  0  0
    1.4232  -11.9398    5.1229 H   0  0  0  0  0  0  0  0  0  0  0  0
   -0.1431  -10.7154    6.6086 H   0  0  0  0  0  0  0  0  0  0  0  0
   -0.5386   -9.1973    7.3467 H   0  0  0  0  0  0  0  0  0  0  0  0
    1.0427   -9.9522    7.7060 H   0  0  0  0  0  0  0  0  0  0  0  0
    0.4301   -7.6022    8.6161 H   0  0  0  0  0  0  0  0  0  0  0  0
  1  2  1  0
  1 20  1  0
  1 21  1  0
  1 22  1  0
  2 16  2  0
  2  3  1  0
  3  4  1  0
  3 14  2  0
  4 12  1  0
  4  5  2  0
  5  6  1  0
  6 11  2  0
  6  7  1  0
  7  8  2  0
  8  9  1  0
  8 23  1  0
  9 10  2  0
  9 24  1  0
 10 11  1  0
 10 25  1  0
 11 12  1  0
 12 13  1  0
 13 26  1  0
 13 27  1  0
 13 28  1  0
 14 15  1  0
 14 29  1  0
 15 16  1  0
 16 17  1  0
 17 18  2  0
 17 19  1  0
M  CHG  1  19  -1
M  END
>  <i_m_ct_stereo_status>  (349) 
1

>  <s_m_source_file>  (349) 
/var/tmp/pbs.5076255.sched01/tmpgahbdy6u/1388ql836nh.sdf

>  <i_m_source_file_index>  (349) 
5

>  <i_lp_mmshare_version>  (349) 
48012

>  <i_f3d_flags>  (349) 
0

>  <s_epik_input>  (349) 
Tz1DKFtPSF0pYzFvW2NIXWMoYzFbQ0gzXSktYyhuMiluKFtDSDNdKWMoYzIzKVtjSF1bY0hdW2NIXW4z

>  <s_epik_cmdline>  (349) 
J2VwaWtfcHl0aG9uJywgJy1waHQnLCAnMi4wJywgJy1waCcsICc3LjAnLCAnLXRuJywgJzgnLCAnLW1hJywgJzIwMCcsICctaW1hZScsICc8aW5maWxlLm1hZT4nLCAnLW9tYWUnLCAnPG91dGZpbGUubWFlPic=

>  <r_lp_tautomer_probability>  (349) 
1

>  <r_epik_Ionization_Penalty>  (349) 
0.00158751

>  <r_epik_Ionization_Penalty_Charging>  (349) 
8.40712e-05

>  <r_epik_Ionization_Penalty_Neutral>  (349) 
0.00150344

>  <r_epik_State_Penalty>  (349) 
1.26734e-05

>  <r_epik_Charging_Adjusted_Penalty>  (349) 
9.67446e-05

>  <i_epik_Tot_Q>  (349) 
-1

>  <i_epik_Tot_abs_Q>  (349) 
1

>  <s_lp_Force_Field>  (349) 
OPLS3e

>  <r_lp_Energy>  (349) 
19.4561

>  <b_lp_Chiralities_Consistent>  (349) 
1

>  <s_lp_Variant>  (349) 
88:0-1

>  <s_i_glide_gridfile>  (349) 
pfpi4k_grid

>  <i_i_glide_lignum>  (349) 
5

>  <i_i_glide_rotatable_bonds>  (349) 
2

>  <r_i_docking_score>  (349) 
-3.33392

>  <r_i_glide_ligand_efficiency>  (349) 
-0.17547

>  <r_i_glide_ligand_efficiency_sa>  (349) 
-0.468223

>  <r_i_glide_ligand_efficiency_ln>  (349) 
-0.845221

>  <r_i_glide_gscore>  (349) 
-3.33392

>  <r_i_glide_lipo>  (349) 
-0.0243403

>  <r_i_glide_hbond>  (349) 
-0.200022

>  <r_i_glide_metal>  (349) 
-0

>  <r_i_glide_rewards>  (349) 
-1.66202

>  <r_i_glide_evdw>  (349) 
-15.1172

>  <r_i_glide_ecoul>  (349) 
-5.59642

>  <r_i_glide_erotb>  (349) 
0.268402

>  <r_i_glide_esite>  (349) 
-0.120618

>  <r_i_glide_emodel>  (349) 
-28.5061

>  <r_i_glide_energy>  (349) 
-20.7136

>  <r_i_glide_einternal>  (349) 
0.762571

>  <r_i_glide_intrahb_reward>  (349) 
-0

>  <i_i_glide_confnum>  (349) 
4

>  <i_i_glide_posenum>  (349) 
19

>  <r_i_glide_eff_state_penalty>  (349) 
0

>  <ligand_id>  (349) 
88

>  <original_smiles>  (349) 
Cc1c(-c2nc3ncccc3n2C)coc1C(=O)O

>  <smiles>  (349) 
[H]c1nc2nc(-c3c([H])oc(C(=O)[O-])c3C([H])([H])[H])n(C([H])([H])[H])c2c([H])c1[H]

$$$$
88:0:2
     RDKit          3D

 29 31  0  0  1  0  0  0  0  0999 V2000
    0.0296   -3.5562    5.3410 C   0  0  0  0  0  0  0  0  0  0  0  0
    0.7434   -2.8913    4.1752 C   0  0  0  0  0  0  0  0  0  0  0  0
    0.6622   -1.5348    3.7157 C   0  0  0  0  0  0  0  0  0  0  0  0
   -0.1667   -0.4863    4.3367 C   0  0  0  0  0  0  0  0  0  0  0  0
   -0.7323   -0.5721    5.5573 N   0  0  0  0  0  0  0  0  0  0  0  0
   -1.3855    0.6395    5.7673 C   0  0  0  0  0  0  0  0  0  0  0  0
   -2.0653    0.9603    6.8800 N   0  0  0  0  0  0  0  0  0  0  0  0
   -2.5857    2.2122    6.8942 C   0  0  0  0  0  0  0  0  0  0  0  0
   -2.5001    3.1474    5.8359 C   0  0  0  0  0  0  0  0  0  0  0  0
   -1.8003    2.7768    4.6621 C   0  0  0  0  0  0  0  0  0  0  0  0
   -1.2399    1.4939    4.6554 C   0  0  0  0  0  0  0  0  0  0  0  0
   -0.5031    0.7349    3.7955 N   0  0  0  0  0  0  0  0  0  0  0  0
   -0.1123    1.2366    2.4751 C   0  0  0  0  0  0  0  0  0  0  0  0
    1.5053   -1.4084    2.6499 C   0  0  0  0  0  0  0  0  0  0  0  0
    2.0835   -2.5975    2.3858 O   0  0  0  0  0  0  0  0  0  0  0  0
    1.6269   -3.4953    3.3025 C   0  0  0  0  0  0  0  0  0  0  0  0
    2.1348   -4.8754    3.1873 C   0  0  0  0  0  0  0  0  0  0  0  0
    2.9150   -5.1269    2.2366 O   0  0  0  0  0  0  0  0  0  0  0  0
    1.7616   -5.7361    4.0181 O   0  0  0  0  0  0  0  0  0  0  0  0
   -0.9061   -3.0638    5.5963 H   0  0  0  0  0  0  0  0  0  0  0  0
    0.6655   -3.5493    6.2280 H   0  0  0  0  0  0  0  0  0  0  0  0
   -0.2281   -4.5917    5.1121 H   0  0  0  0  0  0  0  0  0  0  0  0
   -3.1235    2.4679    7.7981 H   0  0  0  0  0  0  0  0  0  0  0  0
   -2.9615    4.1159    5.9248 H   0  0  0  0  0  0  0  0  0  0  0  0
   -1.6899    3.4408    3.8146 H   0  0  0  0  0  0  0  0  0  0  0  0
   -0.8686    1.9242    2.0827 H   0  0  0  0  0  0  0  0  0  0  0  0
   -0.0342    0.4430    1.7231 H   0  0  0  0  0  0  0  0  0  0  0  0
    0.8411    1.7751    2.5545 H   0  0  0  0  0  0  0  0  0  0  0  0
    1.8191   -0.6221    1.9803 H   0  0  0  0  0  0  0  0  0  0  0  0
  1  2  1  0
  1 20  1  0
  1 21  1  0
  1 22  1  0
  2 16  2  0
  2  3  1  0
  3  4  1  0
  3 14  2  0
  4 12  1  0
  4  5  2  0
  5  6  1  0
  6 11  2  0
  6  7  1  0
  7  8  2  0
  8  9  1  0
  8 23  1  0
  9 10  2  0
  9 24  1  0
 10 11  1  0
 10 25  1  0
 11 12  1  0
 12 13  1  0
 13 26  1  0
 13 27  1  0
 13 28  1  0
 14 15  1  0
 14 29  1  0
 15 16  1  0
 16 17  1  0
 17 18  2  0
 17 19  1  0
M  CHG  1  19  -1
M  END
>  <i_m_ct_stereo_status>  (350) 
1

>  <s_m_source_file>  (350) 
/var/tmp/pbs.5076255.sched01/tmpgahbdy6u/1388ql836nh.sdf

>  <i_m_source_file_index>  (350) 
5

>  <i_lp_mmshare_version>  (350) 
48012

>  <i_f3d_flags>  (350) 
0

>  <s_epik_input>  (350) 
Tz1DKFtPSF0pYzFvW2NIXWMoYzFbQ0gzXSktYyhuMiluKFtDSDNdKWMoYzIzKVtjSF1bY0hdW2NIXW4z

>  <s_epik_cmdline>  (350) 
J2VwaWtfcHl0aG9uJywgJy1waHQnLCAnMi4wJywgJy1waCcsICc3LjAnLCAnLXRuJywgJzgnLCAnLW1hJywgJzIwMCcsICctaW1hZScsICc8aW5maWxlLm1hZT4nLCAnLW9tYWUnLCAnPG91dGZpbGUubWFlPic=

>  <r_lp_tautomer_probability>  (350) 
1

>  <r_epik_Ionization_Penalty>  (350) 
0.00158751

>  <r_epik_Ionization_Penalty_Charging>  (350) 
8.40712e-05

>  <r_epik_Ionization_Penalty_Neutral>  (350) 
0.00150344

>  <r_epik_State_Penalty>  (350) 
1.26734e-05

>  <r_epik_Charging_Adjusted_Penalty>  (350) 
9.67446e-05

>  <i_epik_Tot_Q>  (350) 
-1

>  <i_epik_Tot_abs_Q>  (350) 
1

>  <s_lp_Force_Field>  (350) 
OPLS3e

>  <r_lp_Energy>  (350) 
19.4561

>  <b_lp_Chiralities_Consistent>  (350) 
1

>  <s_lp_Variant>  (350) 
88:0-1

>  <s_i_glide_gridfile>  (350) 
pfpi4k_grid

>  <i_i_glide_lignum>  (350) 
5

>  <i_i_glide_rotatable_bonds>  (350) 
2

>  <r_i_docking_score>  (350) 
-3.02184

>  <r_i_glide_ligand_efficiency>  (350) 
-0.159044

>  <r_i_glide_ligand_efficiency_sa>  (350) 
-0.424394

>  <r_i_glide_ligand_efficiency_ln>  (350) 
-0.766101

>  <r_i_glide_gscore>  (350) 
-3.02184

>  <r_i_glide_lipo>  (350) 
-0.140905

>  <r_i_glide_hbond>  (350) 
-0.16

>  <r_i_glide_metal>  (350) 
-0

>  <r_i_glide_rewards>  (350) 
-1.66202

>  <r_i_glide_evdw>  (350) 
-17.7872

>  <r_i_glide_ecoul>  (350) 
-2.33089

>  <r_i_glide_erotb>  (350) 
0.268402

>  <r_i_glide_esite>  (350) 
-0.0883223

>  <r_i_glide_emodel>  (350) 
-27.4853

>  <r_i_glide_energy>  (350) 
-20.1181

>  <r_i_glide_einternal>  (350) 
0.0550856

>  <r_i_glide_intrahb_reward>  (350) 
-0

>  <i_i_glide_confnum>  (350) 
1

>  <i_i_glide_posenum>  (350) 
4

>  <r_i_glide_eff_state_penalty>  (350) 
0

>  <ligand_id>  (350) 
88

>  <original_smiles>  (350) 
Cc1c(-c2nc3ncccc3n2C)coc1C(=O)O

>  <smiles>  (350) 
[H]c1nc2nc(-c3c([H])oc(C(=O)[O-])c3C([H])([H])[H])n(C([H])([H])[H])c2c([H])c1[H]

$$$$
89:0:0
     RDKit          3D

 24 26  0  0  1  0  0  0  0  0999 V2000
    3.0986   -1.4034   -3.9723 C   0  0  0  0  0  0  0  0  0  0  0  0
    3.3203   -2.7864   -3.8994 C   0  0  0  0  0  0  0  0  0  0  0  0
    4.2914   -3.2630   -3.0029 C   0  0  0  0  0  0  0  0  0  0  0  0
    4.9671   -2.3388   -2.1890 C   0  0  0  0  0  0  0  0  0  0  0  0
    5.9594   -2.7720   -1.3466 O   0  0  0  0  0  0  0  0  0  0  0  0
    5.7161   -2.7504    0.0035 C   0  0  0  0  0  0  0  0  0  0  0  0
    5.9842   -1.5851    0.6091 N   0  0  0  0  0  0  0  0  0  0  0  0
    5.7927   -1.5731    1.9303 C   0  0  0  0  0  0  0  0  0  0  0  0
    5.4018   -2.5838    2.7104 N   0  0  0  0  0  0  0  0  0  0  0  0
    5.1590   -3.7590    2.1106 C   0  0  0  0  0  0  0  0  0  0  0  0
    4.7881   -4.8067    2.8782 N   0  0  0  0  0  0  0  0  0  0  0  0
    4.5788   -5.9715    2.2528 C   0  0  0  0  0  0  0  0  0  0  0  0
    4.7346   -6.1171    0.8646 C   0  0  0  0  0  0  0  0  0  0  0  0
    5.0971   -5.0968    0.0734 N   0  0  0  0  0  0  0  0  0  0  0  0
    5.3076   -3.9138    0.6933 C   0  0  0  0  0  0  0  0  0  0  0  0
    4.7628   -1.0046   -2.2582 N   0  0  0  0  0  0  0  0  0  0  0  0
    3.8354   -0.5542   -3.1304 C   0  0  0  0  0  0  0  0  0  0  0  0
    2.3690   -0.9934   -4.6549 H   0  0  0  0  0  0  0  0  0  0  0  0
    2.7667   -3.4548   -4.5368 H   0  0  0  0  0  0  0  0  0  0  0  0
    4.5204   -4.3144   -2.9333 H   0  0  0  0  0  0  0  0  0  0  0  0
    6.0113   -0.6453    2.4363 H   0  0  0  0  0  0  0  0  0  0  0  0
    4.2731   -6.7933    2.8848 H   0  0  0  0  0  0  0  0  0  0  0  0
    4.5619   -7.0696    0.3798 H   0  0  0  0  0  0  0  0  0  0  0  0
    3.7054    0.5148   -3.1830 H   0  0  0  0  0  0  0  0  0  0  0  0
  1 17  2  0
  1  2  1  0
  1 18  1  0
  2  3  2  0
  2 19  1  0
  3  4  1  0
  3 20  1  0
  4  5  1  0
  4 16  2  0
  5  6  1  0
  6 15  1  0
  6  7  2  0
  7  8  1  0
  8  9  2  0
  8 21  1  0
  9 10  1  0
 10 15  2  0
 10 11  1  0
 11 12  2  0
 12 13  1  0
 12 22  1  0
 13 14  2  0
 13 23  1  0
 14 15  1  0
 16 17  1  0
 17 24  1  0
M  END
>  <i_m_ct_stereo_status>  (351) 
1

>  <s_m_source_file>  (351) 
/var/tmp/pbs.5076255.sched01/tmpgahbdy6u/1388ql836nh.sdf

>  <i_m_source_file_index>  (351) 
6

>  <i_lp_mmshare_version>  (351) 
48012

>  <i_f3d_flags>  (351) 
0

>  <s_epik_input>  (351) 
bjFbY0hdW2NIXVtjSF1bY0hdYzFPYyhuW2NIXW4yKWMoYzIzKW5bY0hdW2NIXW4z

>  <s_epik_cmdline>  (351) 
J2VwaWtfcHl0aG9uJywgJy1waHQnLCAnMi4wJywgJy1waCcsICc3LjAnLCAnLXRuJywgJzgnLCAnLW1hJywgJzIwMCcsICctaW1hZScsICc8aW5maWxlLm1hZT4nLCAnLW9tYWUnLCAnPG91dGZpbGUubWFlPic=

>  <r_lp_tautomer_probability>  (351) 
1

>  <r_epik_Ionization_Penalty>  (351) 
1.44632e-05

>  <r_epik_Ionization_Penalty_Charging>  (351) 
0

>  <r_epik_Ionization_Penalty_Neutral>  (351) 
1.44632e-05

>  <r_epik_State_Penalty>  (351) 
-0

>  <r_epik_Charging_Adjusted_Penalty>  (351) 
0

>  <i_epik_Tot_Q>  (351) 
0

>  <i_epik_Tot_abs_Q>  (351) 
0

>  <s_lp_Force_Field>  (351) 
OPLS3e

>  <r_lp_Energy>  (351) 
37.3857

>  <b_lp_Chiralities_Consistent>  (351) 
1

>  <s_lp_Variant>  (351) 
89:0-1

>  <s_i_glide_gridfile>  (351) 
pfpi4k_grid

>  <i_i_glide_lignum>  (351) 
6

>  <i_i_glide_rotatable_bonds>  (351) 
2

>  <r_i_docking_score>  (351) 
-3.4774

>  <r_i_glide_ligand_efficiency>  (351) 
-0.204553

>  <r_i_glide_ligand_efficiency_sa>  (351) 
-0.525963

>  <r_i_glide_ligand_efficiency_ln>  (351) 
-0.907176

>  <r_i_glide_gscore>  (351) 
-3.4774

>  <r_i_glide_lipo>  (351) 
-0.651099

>  <r_i_glide_hbond>  (351) 
0

>  <r_i_glide_metal>  (351) 
-0

>  <r_i_glide_rewards>  (351) 
-2.10811

>  <r_i_glide_evdw>  (351) 
-24.1669

>  <r_i_glide_ecoul>  (351) 
-1.19263

>  <r_i_glide_erotb>  (351) 
0.669048

>  <r_i_glide_esite>  (351) 
0

>  <r_i_glide_emodel>  (351) 
-30.3479

>  <r_i_glide_energy>  (351) 
-25.3595

>  <r_i_glide_einternal>  (351) 
2.61223

>  <r_i_glide_intrahb_reward>  (351) 
-0

>  <i_i_glide_confnum>  (351) 
3

>  <i_i_glide_posenum>  (351) 
5

>  <r_i_glide_eff_state_penalty>  (351) 
0

>  <ligand_id>  (351) 
89

>  <original_smiles>  (351) 
c1ccc(Oc2ncnc3nccnc23)nc1

>  <smiles>  (351) 
[H]c1nc(Oc2nc([H])c([H])c([H])c2[H])c2nc([H])c([H])nc2n1

$$$$
89:0:1
     RDKit          3D

 24 26  0  0  1  0  0  0  0  0999 V2000
    2.6573   -2.5996   -3.6335 C   0  0  0  0  0  0  0  0  0  0  0  0
    2.5211   -3.0536   -2.3138 C   0  0  0  0  0  0  0  0  0  0  0  0
    3.3104   -2.4986   -1.3003 C   0  0  0  0  0  0  0  0  0  0  0  0
    4.2724   -1.5306   -1.6601 C   0  0  0  0  0  0  0  0  0  0  0  0
    5.1739   -0.9963   -0.7563 O   0  0  0  0  0  0  0  0  0  0  0  0
    5.1848   -1.4026    0.5643 C   0  0  0  0  0  0  0  0  0  0  0  0
    5.0344   -0.4147    1.4604 N   0  0  0  0  0  0  0  0  0  0  0  0
    5.0013   -0.7903    2.7410 C   0  0  0  0  0  0  0  0  0  0  0  0
    5.1117   -2.0307    3.2346 N   0  0  0  0  0  0  0  0  0  0  0  0
    5.3056   -3.0213    2.3459 C   0  0  0  0  0  0  0  0  0  0  0  0
    5.4118   -4.2937    2.8017 N   0  0  0  0  0  0  0  0  0  0  0  0
    5.5743   -5.2605    1.8946 C   0  0  0  0  0  0  0  0  0  0  0  0
    5.6641   -4.9821    0.5219 C   0  0  0  0  0  0  0  0  0  0  0  0
    5.5902   -3.7424    0.0263 N   0  0  0  0  0  0  0  0  0  0  0  0
    5.3840   -2.7567    0.9388 C   0  0  0  0  0  0  0  0  0  0  0  0
    4.4094   -1.0833   -2.9342 N   0  0  0  0  0  0  0  0  0  0  0  0
    3.6041   -1.5970   -3.8904 C   0  0  0  0  0  0  0  0  0  0  0  0
    2.0498   -3.0077   -4.4254 H   0  0  0  0  0  0  0  0  0  0  0  0
    1.8090   -3.8305   -2.0861 H   0  0  0  0  0  0  0  0  0  0  0  0
    3.1837   -2.8361   -0.2773 H   0  0  0  0  0  0  0  0  0  0  0  0
    4.8877    0.0116    3.4732 H   0  0  0  0  0  0  0  0  0  0  0  0
    5.6395   -6.2755    2.2762 H   0  0  0  0  0  0  0  0  0  0  0  0
    5.7452   -5.7786   -0.2026 H   0  0  0  0  0  0  0  0  0  0  0  0
    3.7369   -1.1960   -4.8850 H   0  0  0  0  0  0  0  0  0  0  0  0
  1 17  2  0
  1  2  1  0
  1 18  1  0
  2  3  2  0
  2 19  1  0
  3  4  1  0
  3 20  1  0
  4  5  1  0
  4 16  2  0
  5  6  1  0
  6 15  1  0
  6  7  2  0
  7  8  1  0
  8  9  2  0
  8 21  1  0
  9 10  1  0
 10 15  2  0
 10 11  1  0
 11 12  2  0
 12 13  1  0
 12 22  1  0
 13 14  2  0
 13 23  1  0
 14 15  1  0
 16 17  1  0
 17 24  1  0
M  END
>  <i_m_ct_stereo_status>  (352) 
1

>  <s_m_source_file>  (352) 
/var/tmp/pbs.5076255.sched01/tmpgahbdy6u/1388ql836nh.sdf

>  <i_m_source_file_index>  (352) 
6

>  <i_lp_mmshare_version>  (352) 
48012

>  <i_f3d_flags>  (352) 
0

>  <s_epik_input>  (352) 
bjFbY0hdW2NIXVtjSF1bY0hdYzFPYyhuW2NIXW4yKWMoYzIzKW5bY0hdW2NIXW4z

>  <s_epik_cmdline>  (352) 
J2VwaWtfcHl0aG9uJywgJy1waHQnLCAnMi4wJywgJy1waCcsICc3LjAnLCAnLXRuJywgJzgnLCAnLW1hJywgJzIwMCcsICctaW1hZScsICc8aW5maWxlLm1hZT4nLCAnLW9tYWUnLCAnPG91dGZpbGUubWFlPic=

>  <r_lp_tautomer_probability>  (352) 
1

>  <r_epik_Ionization_Penalty>  (352) 
1.44632e-05

>  <r_epik_Ionization_Penalty_Charging>  (352) 
0

>  <r_epik_Ionization_Penalty_Neutral>  (352) 
1.44632e-05

>  <r_epik_State_Penalty>  (352) 
-0

>  <r_epik_Charging_Adjusted_Penalty>  (352) 
0

>  <i_epik_Tot_Q>  (352) 
0

>  <i_epik_Tot_abs_Q>  (352) 
0

>  <s_lp_Force_Field>  (352) 
OPLS3e

>  <r_lp_Energy>  (352) 
37.3857

>  <b_lp_Chiralities_Consistent>  (352) 
1

>  <s_lp_Variant>  (352) 
89:0-1

>  <s_i_glide_gridfile>  (352) 
pfpi4k_grid

>  <i_i_glide_lignum>  (352) 
6

>  <i_i_glide_rotatable_bonds>  (352) 
2

>  <r_i_docking_score>  (352) 
-3.40387

>  <r_i_glide_ligand_efficiency>  (352) 
-0.200228

>  <r_i_glide_ligand_efficiency_sa>  (352) 
-0.514842

>  <r_i_glide_ligand_efficiency_ln>  (352) 
-0.887994

>  <r_i_glide_gscore>  (352) 
-3.40387

>  <r_i_glide_lipo>  (352) 
-0.654734

>  <r_i_glide_hbond>  (352) 
-0.0172847

>  <r_i_glide_metal>  (352) 
-0

>  <r_i_glide_rewards>  (352) 
-2.09098

>  <r_i_glide_evdw>  (352) 
-23.3679

>  <r_i_glide_ecoul>  (352) 
-0.943476

>  <r_i_glide_erotb>  (352) 
0.669048

>  <r_i_glide_esite>  (352) 
0

>  <r_i_glide_emodel>  (352) 
-29.1198

>  <r_i_glide_energy>  (352) 
-24.3114

>  <r_i_glide_einternal>  (352) 
1.70324

>  <r_i_glide_intrahb_reward>  (352) 
-0

>  <i_i_glide_confnum>  (352) 
3

>  <i_i_glide_posenum>  (352) 
18

>  <r_i_glide_eff_state_penalty>  (352) 
0

>  <ligand_id>  (352) 
89

>  <original_smiles>  (352) 
c1ccc(Oc2ncnc3nccnc23)nc1

>  <smiles>  (352) 
[H]c1nc(Oc2nc([H])c([H])c([H])c2[H])c2nc([H])c([H])nc2n1

$$$$
89:0:2
     RDKit          3D

 24 26  0  0  1  0  0  0  0  0999 V2000
    3.4994   -7.9205    1.4313 C   0  0  0  0  0  0  0  0  0  0  0  0
    2.3859   -7.2538    1.9688 C   0  0  0  0  0  0  0  0  0  0  0  0
    2.3680   -5.8471    1.9468 C   0  0  0  0  0  0  0  0  0  0  0  0
    3.4581   -5.1610    1.3703 C   0  0  0  0  0  0  0  0  0  0  0  0
    3.4384   -3.7817    1.3605 O   0  0  0  0  0  0  0  0  0  0  0  0
    4.2142   -3.0673    0.4779 C   0  0  0  0  0  0  0  0  0  0  0  0
    5.3164   -2.5259    1.0160 N   0  0  0  0  0  0  0  0  0  0  0  0
    6.0474   -1.7829    0.1809 C   0  0  0  0  0  0  0  0  0  0  0  0
    5.8092   -1.5118   -1.1093 N   0  0  0  0  0  0  0  0  0  0  0  0
    4.6842   -2.0314   -1.6373 C   0  0  0  0  0  0  0  0  0  0  0  0
    4.3905   -1.7634   -2.9293 N   0  0  0  0  0  0  0  0  0  0  0  0
    3.2471   -2.2741   -3.4070 C   0  0  0  0  0  0  0  0  0  0  0  0
    2.3845   -3.0557   -2.6197 C   0  0  0  0  0  0  0  0  0  0  0  0
    2.6579   -3.3645   -1.3448 N   0  0  0  0  0  0  0  0  0  0  0  0
    3.8043   -2.8521   -0.8550 C   0  0  0  0  0  0  0  0  0  0  0  0
    4.5371   -5.8003    0.8570 N   0  0  0  0  0  0  0  0  0  0  0  0
    4.5484   -7.1500    0.8962 C   0  0  0  0  0  0  0  0  0  0  0  0
    3.5474   -8.9991    1.4205 H   0  0  0  0  0  0  0  0  0  0  0  0
    1.5636   -7.8115    2.3900 H   0  0  0  0  0  0  0  0  0  0  0  0
    1.5466   -5.2976    2.3730 H   0  0  0  0  0  0  0  0  0  0  0  0
    6.9447   -1.3538    0.5948 H   0  0  0  0  0  0  0  0  0  0  0  0
    3.0156   -2.0537   -4.4376 H   0  0  0  0  0  0  0  0  0  0  0  0
    1.4682   -3.4556   -3.0289 H   0  0  0  0  0  0  0  0  0  0  0  0
    5.4155   -7.6357    0.4784 H   0  0  0  0  0  0  0  0  0  0  0  0
  1 17  2  0
  1  2  1  0
  1 18  1  0
  2  3  2  0
  2 19  1  0
  3  4  1  0
  3 20  1  0
  4  5  1  0
  4 16  2  0
  5  6  1  0
  6 15  1  0
  6  7  2  0
  7  8  1  0
  8  9  2  0
  8 21  1  0
  9 10  1  0
 10 15  2  0
 10 11  1  0
 11 12  2  0
 12 13  1  0
 12 22  1  0
 13 14  2  0
 13 23  1  0
 14 15  1  0
 16 17  1  0
 17 24  1  0
M  END
>  <i_m_ct_stereo_status>  (353) 
1

>  <s_m_source_file>  (353) 
/var/tmp/pbs.5076255.sched01/tmpgahbdy6u/1388ql836nh.sdf

>  <i_m_source_file_index>  (353) 
6

>  <i_lp_mmshare_version>  (353) 
48012

>  <i_f3d_flags>  (353) 
0

>  <s_epik_input>  (353) 
bjFbY0hdW2NIXVtjSF1bY0hdYzFPYyhuW2NIXW4yKWMoYzIzKW5bY0hdW2NIXW4z

>  <s_epik_cmdline>  (353) 
J2VwaWtfcHl0aG9uJywgJy1waHQnLCAnMi4wJywgJy1waCcsICc3LjAnLCAnLXRuJywgJzgnLCAnLW1hJywgJzIwMCcsICctaW1hZScsICc8aW5maWxlLm1hZT4nLCAnLW9tYWUnLCAnPG91dGZpbGUubWFlPic=

>  <r_lp_tautomer_probability>  (353) 
1

>  <r_epik_Ionization_Penalty>  (353) 
1.44632e-05

>  <r_epik_Ionization_Penalty_Charging>  (353) 
0

>  <r_epik_Ionization_Penalty_Neutral>  (353) 
1.44632e-05

>  <r_epik_State_Penalty>  (353) 
-0

>  <r_epik_Charging_Adjusted_Penalty>  (353) 
0

>  <i_epik_Tot_Q>  (353) 
0

>  <i_epik_Tot_abs_Q>  (353) 
0

>  <s_lp_Force_Field>  (353) 
OPLS3e

>  <r_lp_Energy>  (353) 
37.3857

>  <b_lp_Chiralities_Consistent>  (353) 
1

>  <s_lp_Variant>  (353) 
89:0-1

>  <s_i_glide_gridfile>  (353) 
pfpi4k_grid

>  <i_i_glide_lignum>  (353) 
6

>  <i_i_glide_rotatable_bonds>  (353) 
2

>  <r_i_docking_score>  (353) 
-3.19395

>  <r_i_glide_ligand_efficiency>  (353) 
-0.187879

>  <r_i_glide_ligand_efficiency_sa>  (353) 
-0.48309

>  <r_i_glide_ligand_efficiency_ln>  (353) 
-0.83323

>  <r_i_glide_gscore>  (353) 
-3.19395

>  <r_i_glide_lipo>  (353) 
-0.36202

>  <r_i_glide_hbond>  (353) 
-0.056905

>  <r_i_glide_metal>  (353) 
-0

>  <r_i_glide_rewards>  (353) 
-1.91949

>  <r_i_glide_evdw>  (353) 
-22.9907

>  <r_i_glide_ecoul>  (353) 
-2.29701

>  <r_i_glide_erotb>  (353) 
0.669048

>  <r_i_glide_esite>  (353) 
-0.0304982

>  <r_i_glide_emodel>  (353) 
-30.8117

>  <r_i_glide_energy>  (353) 
-25.2877

>  <r_i_glide_einternal>  (353) 
0.481278

>  <r_i_glide_intrahb_reward>  (353) 
-0

>  <i_i_glide_confnum>  (353) 
1

>  <i_i_glide_posenum>  (353) 
4

>  <r_i_glide_eff_state_penalty>  (353) 
0

>  <ligand_id>  (353) 
89

>  <original_smiles>  (353) 
c1ccc(Oc2ncnc3nccnc23)nc1

>  <smiles>  (353) 
[H]c1nc(Oc2nc([H])c([H])c([H])c2[H])c2nc([H])c([H])nc2n1

$$$$
90:0:0
     RDKit          3D

 74 80  0  0  1  0  0  0  0  0999 V2000
    4.0718   -5.0306    0.8387 C   0  0  0  0  0  0  0  0  0  0  0  0
    4.0923   -5.0234    2.4000 C   0  0  1  0  0  0  0  0  0  0  0  0
    5.0969   -3.9260    2.8518 C   0  0  0  0  0  0  0  0  0  0  0  0
    4.6486   -2.4959    2.4313 C   0  0  0  0  0  0  0  0  0  0  0  0
    3.1760   -2.1283    2.7905 C   0  0  0  0  0  0  0  0  0  0  0  0
    2.2055   -3.3181    2.5130 C   0  0  0  0  0  0  0  0  0  0  0  0
    2.7522   -4.6521    3.0571 C   0  0  1  0  0  0  0  0  0  0  0  0
    1.7687   -5.8586    3.1769 C   0  0  2  0  0  0  0  0  0  0  0  0
    1.8741   -6.6722    4.4560 C   0  0  0  0  0  0  0  0  0  0  0  0
    3.0468   -6.9180    5.0861 C   0  0  0  0  0  0  0  0  0  0  0  0
    4.4064   -6.5978    4.4725 C   0  0  0  0  0  0  0  0  0  0  0  0
    4.4059   -6.4613    2.9095 C   0  0  1  0  0  0  0  0  0  0  0  0
    3.4191   -7.5012    2.2570 C   0  0  0  0  0  0  0  0  0  0  0  0
    1.8898   -7.0690    2.2542 C   0  0  1  0  0  0  0  0  0  0  0  0
    0.8179   -8.0599    2.9054 C   0  0  1  0  0  0  0  0  0  0  0  0
   -0.4207   -7.8057    2.2531 O   0  0  0  0  0  0  0  0  0  0  0  0
    1.1218   -9.5691    2.5898 C   0  0  0  0  0  0  0  0  0  0  0  0
    0.8858  -10.5681    3.7218 C   0  0  1  0  0  0  0  0  0  0  0  0
    1.4948  -11.7928    3.3790 O   0  0  0  0  0  0  0  0  0  0  0  0
    1.4876  -10.0553    5.0206 C   0  0  0  0  0  0  0  0  0  0  0  0
    0.6846   -8.8355    5.4549 C   0  0  1  0  0  0  0  0  0  0  0  0
    1.0120   -8.4792    6.7857 O   0  0  0  0  0  0  0  0  0  0  0  0
    0.6854   -7.6301    4.4476 C   0  0  1  0  0  0  0  0  0  0  0  0
   -0.5935   -6.8172    4.8243 C   0  0  0  0  0  0  0  0  0  0  0  0
    3.1579   -1.7494    4.1750 O   0  0  0  0  0  0  0  0  0  0  0  0
    1.7560   -1.2934    4.5488 O   0  0  0  0  0  0  0  0  0  0  0  0
    1.3638   -0.2003    3.7042 C   0  0  0  0  0  0  0  0  0  0  0  0
   -0.1103    0.1266    4.0484 C   0  0  0  0  0  0  0  0  0  0  0  0
   -0.6387    1.3465    3.2709 C   0  0  0  0  0  0  0  0  0  0  0  0
    0.2474    2.5806    3.5045 C   0  0  0  0  0  0  0  0  0  0  0  0
    1.7192    2.2749    3.1698 C   0  0  0  0  0  0  0  0  0  0  0  0
    2.2406    1.0526    3.9503 C   0  0  0  0  0  0  0  0  0  0  0  0
    1.4119   -0.6004    2.3324 O   0  0  0  0  0  0  0  0  0  0  0  0
    2.8132   -1.0040    1.9795 O   0  0  0  0  0  0  0  0  0  0  0  0
    5.0085   -5.4241    0.4410 H   0  0  0  0  0  0  0  0  0  0  0  0
    3.9375   -4.0486    0.3964 H   0  0  0  0  0  0  0  0  0  0  0  0
    3.2691   -5.6293    0.4190 H   0  0  0  0  0  0  0  0  0  0  0  0
    5.2074   -3.9209    3.9336 H   0  0  0  0  0  0  0  0  0  0  0  0
    6.0904   -4.1415    2.4576 H   0  0  0  0  0  0  0  0  0  0  0  0
    5.3205   -1.7608    2.8737 H   0  0  0  0  0  0  0  0  0  0  0  0
    4.7980   -2.3764    1.3593 H   0  0  0  0  0  0  0  0  0  0  0  0
    1.2238   -3.1304    2.9465 H   0  0  0  0  0  0  0  0  0  0  0  0
    2.0380   -3.3940    1.4429 H   0  0  0  0  0  0  0  0  0  0  0  0
    2.9636   -4.3985    4.0968 H   0  0  0  0  0  0  0  0  0  0  0  0
    0.7801   -5.4298    3.0672 H   0  0  0  0  0  0  0  0  0  0  0  0
    3.1020   -7.6399    5.8793 H   0  0  0  0  0  0  0  0  0  0  0  0
    4.8678   -5.7641    4.9961 H   0  0  0  0  0  0  0  0  0  0  0  0
    5.0313   -7.4591    4.7064 H   0  0  0  0  0  0  0  0  0  0  0  0
    5.4158   -6.7079    2.5776 H   0  0  0  0  0  0  0  0  0  0  0  0
    3.7198   -7.6967    1.2294 H   0  0  0  0  0  0  0  0  0  0  0  0
    3.6034   -8.4371    2.7764 H   0  0  0  0  0  0  0  0  0  0  0  0
    1.5837   -6.8166    1.2373 H   0  0  0  0  0  0  0  0  0  0  0  0
   -0.4923   -8.4094    1.5243 H   0  0  0  0  0  0  0  0  0  0  0  0
    0.5533   -9.9146    1.7316 H   0  0  0  0  0  0  0  0  0  0  0  0
    2.1382   -9.7241    2.2486 H   0  0  0  0  0  0  0  0  0  0  0  0
   -0.1811  -10.7446    3.8417 H   0  0  0  0  0  0  0  0  0  0  0  0
    1.3871  -12.4163    4.0848 H   0  0  0  0  0  0  0  0  0  0  0  0
    1.4130  -10.8359    5.7769 H   0  0  0  0  0  0  0  0  0  0  0  0
    2.5445   -9.8242    4.8982 H   0  0  0  0  0  0  0  0  0  0  0  0
   -0.3416   -9.2030    5.5268 H   0  0  0  0  0  0  0  0  0  0  0  0
    1.0930   -9.2790    7.2878 H   0  0  0  0  0  0  0  0  0  0  0  0
   -1.4833   -7.4469    4.8536 H   0  0  0  0  0  0  0  0  0  0  0  0
   -0.8332   -6.0026    4.1498 H   0  0  0  0  0  0  0  0  0  0  0  0
   -0.4831   -6.3731    5.8148 H   0  0  0  0  0  0  0  0  0  0  0  0
   -0.7460   -0.7352    3.8589 H   0  0  0  0  0  0  0  0  0  0  0  0
   -0.1831    0.3364    5.1148 H   0  0  0  0  0  0  0  0  0  0  0  0
   -0.6722    1.1217    2.2022 H   0  0  0  0  0  0  0  0  0  0  0  0
   -1.6634    1.5715    3.5677 H   0  0  0  0  0  0  0  0  0  0  0  0
   -0.1068    3.4075    2.8784 H   0  0  0  0  0  0  0  0  0  0  0  0
    0.1572    2.9205    4.5367 H   0  0  0  0  0  0  0  0  0  0  0  0
    1.8077    2.0923    2.0969 H   0  0  0  0  0  0  0  0  0  0  0  0
    2.3286    3.1507    3.3870 H   0  0  0  0  0  0  0  0  0  0  0  0
    2.2230    1.2848    5.0134 H   0  0  0  0  0  0  0  0  0  0  0  0
    3.2842    0.8744    3.6956 H   0  0  0  0  0  0  0  0  0  0  0  0
  2  1  1  6
  1 35  1  0
  1 36  1  0
  1 37  1  0
  2  7  1  0
  2 12  1  0
  2  3  1  0
  3  4  1  0
  3 38  1  0
  3 39  1  0
  4  5  1  0
  4 40  1  0
  4 41  1  0
  5 34  1  0
  5  6  1  0
  5 25  1  0
  6  7  1  0
  6 42  1  0
  6 43  1  0
  7  8  1  0
  7 44  1  1
  8 14  1  0
  8  9  1  0
  8 45  1  1
  9 23  1  0
  9 10  2  0
 10 11  1  0
 10 46  1  0
 11 12  1  0
 11 47  1  0
 11 48  1  0
 12 13  1  0
 12 49  1  6
 13 14  1  0
 13 50  1  0
 13 51  1  0
 14 15  1  0
 14 52  1  6
 15 23  1  0
 15 16  1  6
 15 17  1  0
 16 53  1  0
 17 18  1  0
 17 54  1  0
 17 55  1  0
 18 19  1  0
 18 20  1  0
 18 56  1  1
 19 57  1  0
 20 21  1  0
 20 58  1  0
 20 59  1  0
 21 22  1  0
 21 23  1  0
 21 60  1  1
 22 61  1  0
 23 24  1  6
 24 62  1  0
 24 63  1  0
 24 64  1  0
 25 26  1  0
 26 27  1  0
 27 32  1  0
 27 28  1  0
 27 33  1  0
 28 29  1  0
 28 65  1  0
 28 66  1  0
 29 30  1  0
 29 67  1  0
 29 68  1  0
 30 31  1  0
 30 69  1  0
 30 70  1  0
 31 32  1  0
 31 71  1  0
 31 72  1  0
 32 73  1  0
 32 74  1  0
 33 34  1  0
M  END
>  <i_m_ct_stereo_status>  (354) 
1

>  <s_m_source_file>  (354) 
/var/tmp/pbs.5076255.sched01/tmpgahbdy6u/1388ql836nh.sdf

>  <i_m_source_file_index>  (354) 
7

>  <i_lp_mmshare_version>  (354) 
48012

>  <i_f3d_flags>  (354) 
0

>  <s_epik_input>  (354) 
W0NIXTFbQ0gyXVtDQEhdMltDSDJdW0NASF0zW0NAQF0oW09IXSkoW0NIMl1bQ0BASF0oW09IXSlbQ0gyXVtDQEhdNFtPSF0pW0NAXTQoW0NIM10pQz0xW0NASF0zW0NASF0oW0NIMl01KVtDQEBdMihbQ0gzXSlbQ0gyXVtDSDJdQzU2T09DNyhPTzYpW0NIMl1bQ0gyXVtDSDJdW0NIMl1bQ0gyXTc=

>  <s_epik_cmdline>  (354) 
J2VwaWtfcHl0aG9uJywgJy1waHQnLCAnMi4wJywgJy1waCcsICc3LjAnLCAnLXRuJywgJzgnLCAnLW1hJywgJzIwMCcsICctaW1hZScsICc8aW5maWxlLm1hZT4nLCAnLW9tYWUnLCAnPG91dGZpbGUubWFlPic=

>  <r_lp_tautomer_probability>  (354) 
1

>  <r_epik_Ionization_Penalty>  (354) 
1.98134e-06

>  <r_epik_Ionization_Penalty_Charging>  (354) 
0

>  <r_epik_Ionization_Penalty_Neutral>  (354) 
1.98134e-06

>  <r_epik_State_Penalty>  (354) 
-0

>  <r_epik_Charging_Adjusted_Penalty>  (354) 
0

>  <i_epik_Tot_Q>  (354) 
0

>  <i_epik_Tot_abs_Q>  (354) 
0

>  <s_lp_Force_Field>  (354) 
OPLS3e

>  <r_lp_Energy>  (354) 
82.02

>  <b_lp_Chiralities_Consistent>  (354) 
1

>  <s_lp_Variant>  (354) 
90:0-1

>  <s_i_glide_gridfile>  (354) 
pfpi4k_grid

>  <i_i_glide_lignum>  (354) 
7

>  <i_i_glide_rotatable_bonds>  (354) 
3

>  <r_i_docking_score>  (354) 
-2.66239

>  <r_i_glide_ligand_efficiency>  (354) 
-0.0783056

>  <r_i_glide_ligand_efficiency_sa>  (354) 
-0.25368

>  <r_i_glide_ligand_efficiency_ln>  (354) 
-0.588197

>  <r_i_glide_gscore>  (354) 
-2.66239

>  <r_i_glide_lipo>  (354) 
-0.21935

>  <r_i_glide_hbond>  (354) 
-0.0957854

>  <r_i_glide_metal>  (354) 
-0

>  <r_i_glide_rewards>  (354) 
-0.15953

>  <r_i_glide_evdw>  (354) 
-31.7509

>  <r_i_glide_ecoul>  (354) 
-3.95405

>  <r_i_glide_erotb>  (354) 
0

>  <r_i_glide_esite>  (354) 
-0.00707004

>  <r_i_glide_emodel>  (354) 
-40.9413

>  <r_i_glide_energy>  (354) 
-35.705

>  <r_i_glide_einternal>  (354) 
1.40921

>  <r_i_glide_intrahb_reward>  (354) 
-0

>  <i_i_glide_confnum>  (354) 
5

>  <i_i_glide_posenum>  (354) 
13

>  <r_i_glide_eff_state_penalty>  (354) 
0

>  <ligand_id>  (354) 
90

>  <original_smiles>  (354) 
CC12CCC3(CC1C1C4=CCC2CC1C1(O)CC(O)CC(O)C41C)OOC1(CCCCC1)OO3

>  <smiles>  (354) 
[H]OC1([H])C([H])([H])C([H])(O[H])C2(C([H])([H])[H])C3=C([H])C([H])([H])C4([H])C([H])([H])C([H])(C3([H])C3([H])C([H])([H])C5(OOC6(OO5)C([H])([H])C([H])([H])C([H])([H])C([H])([H])C6([H])[H])C([H])([H])C([H])([H])C43C([H])([H])[H])C2(O[H])C1([H])[H]

$$$$
90:0:1
     RDKit          3D

 74 80  0  0  1  0  0  0  0  0999 V2000
    3.6466   -4.4441    0.2527 C   0  0  0  0  0  0  0  0  0  0  0  0
    3.9760   -4.4715    1.7785 C   0  0  1  0  0  0  0  0  0  0  0  0
    5.1258   -3.4559    2.0296 C   0  0  0  0  0  0  0  0  0  0  0  0
    4.7040   -1.9892    1.7198 C   0  0  0  0  0  0  0  0  0  0  0  0
    3.3603   -1.5299    2.3671 C   0  0  0  0  0  0  0  0  0  0  0  0
    2.2659   -2.6425    2.2813 C   0  0  0  0  0  0  0  0  0  0  0  0
    2.8202   -4.0242    2.6912 C   0  0  1  0  0  0  0  0  0  0  0  0
    1.8000   -5.1663    2.9958 C   0  0  2  0  0  0  0  0  0  0  0  0
    2.1016   -6.0151    4.2220 C   0  0  0  0  0  0  0  0  0  0  0  0
    3.3544   -6.3517    4.6047 C   0  0  0  0  0  0  0  0  0  0  0  0
    4.5828   -6.1101    3.7343 C   0  0  0  0  0  0  0  0  0  0  0  0
    4.2804   -5.9374    2.2042 C   0  0  1  0  0  0  0  0  0  0  0  0
    3.1134   -6.8926    1.7522 C   0  0  0  0  0  0  0  0  0  0  0  0
    1.6466   -6.3604    2.0574 C   0  0  1  0  0  0  0  0  0  0  0  0
    0.6663   -7.2970    2.9044 C   0  0  1  0  0  0  0  0  0  0  0  0
   -0.6723   -6.9767    2.5513 O   0  0  0  0  0  0  0  0  0  0  0  0
    0.7853   -8.8133    2.5140 C   0  0  0  0  0  0  0  0  0  0  0  0
    0.7004   -9.8232    3.6644 C   0  0  1  0  0  0  0  0  0  0  0  0
    1.1325  -11.0897    3.2157 O   0  0  0  0  0  0  0  0  0  0  0  0
    1.5876   -9.3836    4.8241 C   0  0  0  0  0  0  0  0  0  0  0  0
    0.9828   -8.1177    5.4184 C   0  0  1  0  0  0  0  0  0  0  0  0
    1.5847   -7.8064    6.6614 O   0  0  0  0  0  0  0  0  0  0  0  0
    0.8728   -6.8936    4.4431 C   0  0  1  0  0  0  0  0  0  0  0  0
   -0.2453   -6.0058    5.0782 C   0  0  0  0  0  0  0  0  0  0  0  0
    3.6444   -1.1827    3.7312 O   0  0  0  0  0  0  0  0  0  0  0  0
    2.3802   -0.6419    4.3795 O   0  0  0  0  0  0  0  0  0  0  0  0
    1.9041    0.4940    3.6385 C   0  0  0  0  0  0  0  0  0  0  0  0
    0.5569    0.9124    4.2711 C   0  0  0  0  0  0  0  0  0  0  0  0
   -0.0237    2.1846    3.6269 C   0  0  0  0  0  0  0  0  0  0  0  0
    0.9743    3.3540    3.6899 C   0  0  0  0  0  0  0  0  0  0  0  0
    2.3250    2.9515    3.0709 C   0  0  0  0  0  0  0  0  0  0  0  0
    2.8943    1.6772    3.7237 C   0  0  0  0  0  0  0  0  0  0  0  0
    1.6570    0.1273    2.2777 O   0  0  0  0  0  0  0  0  0  0  0  0
    2.9300   -0.3638    1.6528 O   0  0  0  0  0  0  0  0  0  0  0  0
    4.4554   -4.8926   -0.3276 H   0  0  0  0  0  0  0  0  0  0  0  0
    3.4968   -3.4457   -0.1449 H   0  0  0  0  0  0  0  0  0  0  0  0
    2.7360   -4.9768   -0.0027 H   0  0  0  0  0  0  0  0  0  0  0  0
    5.4486   -3.4822    3.0680 H   0  0  0  0  0  0  0  0  0  0  0  0
    6.0066   -3.7285    1.4441 H   0  0  0  0  0  0  0  0  0  0  0  0
    5.4991   -1.3105    2.0259 H   0  0  0  0  0  0  0  0  0  0  0  0
    4.6433   -1.8570    0.6409 H   0  0  0  0  0  0  0  0  0  0  0  0
    1.4055   -2.4025    2.9043 H   0  0  0  0  0  0  0  0  0  0  0  0
    1.8855   -2.6818    1.2641 H   0  0  0  0  0  0  0  0  0  0  0  0
    3.2533   -3.8106    3.6695 H   0  0  0  0  0  0  0  0  0  0  0  0
    0.8424   -4.6677    3.0905 H   0  0  0  0  0  0  0  0  0  0  0  0
    3.5122   -7.0951    5.3649 H   0  0  0  0  0  0  0  0  0  0  0  0
    5.1972   -5.3221    4.1615 H   0  0  0  0  0  0  0  0  0  0  0  0
    5.1775   -7.0174    3.8301 H   0  0  0  0  0  0  0  0  0  0  0  0
    5.1831   -6.2471    1.6737 H   0  0  0  0  0  0  0  0  0  0  0  0
    3.1950   -7.0774    0.6837 H   0  0  0  0  0  0  0  0  0  0  0  0
    3.3268   -7.8518    2.2159 H   0  0  0  0  0  0  0  0  0  0  0  0
    1.1632   -6.0694    1.1232 H   0  0  0  0  0  0  0  0  0  0  0  0
   -1.2242   -7.6535    2.9216 H   0  0  0  0  0  0  0  0  0  0  0  0
    0.0237   -9.0702    1.7807 H   0  0  0  0  0  0  0  0  0  0  0  0
    1.6981   -9.0298    1.9705 H   0  0  0  0  0  0  0  0  0  0  0  0
   -0.3374   -9.9214    3.9923 H   0  0  0  0  0  0  0  0  0  0  0  0
    1.0785  -11.7131    3.9265 H   0  0  0  0  0  0  0  0  0  0  0  0
    1.6126  -10.1689    5.5807 H   0  0  0  0  0  0  0  0  0  0  0  0
    2.6137   -9.2200    4.4958 H   0  0  0  0  0  0  0  0  0  0  0  0
   -0.0347   -8.4104    5.6868 H   0  0  0  0  0  0  0  0  0  0  0  0
    1.6012   -8.5912    7.1892 H   0  0  0  0  0  0  0  0  0  0  0  0
   -1.1605   -6.5679    5.2694 H   0  0  0  0  0  0  0  0  0  0  0  0
   -0.5483   -5.1543    4.4806 H   0  0  0  0  0  0  0  0  0  0  0  0
    0.0883   -5.5938    6.0311 H   0  0  0  0  0  0  0  0  0  0  0  0
   -0.1629    0.0994    4.2048 H   0  0  0  0  0  0  0  0  0  0  0  0
    0.7162    1.1001    5.3337 H   0  0  0  0  0  0  0  0  0  0  0  0
   -0.2819    1.9892    2.5841 H   0  0  0  0  0  0  0  0  0  0  0  0
   -0.9487    2.4712    4.1264 H   0  0  0  0  0  0  0  0  0  0  0  0
    0.5664    4.2159    3.1538 H   0  0  0  0  0  0  0  0  0  0  0  0
    1.1142    3.6768    4.7234 H   0  0  0  0  0  0  0  0  0  0  0  0
    2.1845    2.7871    2.0012 H   0  0  0  0  0  0  0  0  0  0  0  0
    3.0305    3.7760    3.1683 H   0  0  0  0  0  0  0  0  0  0  0  0
    3.1090    1.8835    4.7717 H   0  0  0  0  0  0  0  0  0  0  0  0
    3.8465    1.4254    3.2664 H   0  0  0  0  0  0  0  0  0  0  0  0
  2  1  1  6
  1 35  1  0
  1 36  1  0
  1 37  1  0
  2  7  1  0
  2 12  1  0
  2  3  1  0
  3  4  1  0
  3 38  1  0
  3 39  1  0
  4  5  1  0
  4 40  1  0
  4 41  1  0
  5 34  1  0
  5  6  1  0
  5 25  1  0
  6  7  1  0
  6 42  1  0
  6 43  1  0
  7  8  1  0
  7 44  1  1
  8 14  1  0
  8  9  1  0
  8 45  1  1
  9 23  1  0
  9 10  2  0
 10 11  1  0
 10 46  1  0
 11 12  1  0
 11 47  1  0
 11 48  1  0
 12 13  1  0
 12 49  1  6
 13 14  1  0
 13 50  1  0
 13 51  1  0
 14 15  1  0
 14 52  1  6
 15 23  1  0
 15 16  1  6
 15 17  1  0
 16 53  1  0
 17 18  1  0
 17 54  1  0
 17 55  1  0
 18 19  1  0
 18 20  1  0
 18 56  1  1
 19 57  1  0
 20 21  1  0
 20 58  1  0
 20 59  1  0
 21 22  1  0
 21 23  1  0
 21 60  1  1
 22 61  1  0
 23 24  1  1
 24 62  1  0
 24 63  1  0
 24 64  1  0
 25 26  1  0
 26 27  1  0
 27 32  1  0
 27 28  1  0
 27 33  1  0
 28 29  1  0
 28 65  1  0
 28 66  1  0
 29 30  1  0
 29 67  1  0
 29 68  1  0
 30 31  1  0
 30 69  1  0
 30 70  1  0
 31 32  1  0
 31 71  1  0
 31 72  1  0
 32 73  1  0
 32 74  1  0
 33 34  1  0
M  END
>  <i_m_ct_stereo_status>  (355) 
1

>  <s_m_source_file>  (355) 
/var/tmp/pbs.5076255.sched01/tmpgahbdy6u/1388ql836nh.sdf

>  <i_m_source_file_index>  (355) 
7

>  <i_lp_mmshare_version>  (355) 
48012

>  <i_f3d_flags>  (355) 
0

>  <s_epik_input>  (355) 
W0NIXTFbQ0gyXVtDQEhdMltDSDJdW0NASF0zW0NAQF0oW09IXSkoW0NIMl1bQ0BASF0oW09IXSlbQ0gyXVtDQEhdNFtPSF0pW0NAXTQoW0NIM10pQz0xW0NASF0zW0NASF0oW0NIMl01KVtDQEBdMihbQ0gzXSlbQ0gyXVtDSDJdQzU2T09DNyhPTzYpW0NIMl1bQ0gyXVtDSDJdW0NIMl1bQ0gyXTc=

>  <s_epik_cmdline>  (355) 
J2VwaWtfcHl0aG9uJywgJy1waHQnLCAnMi4wJywgJy1waCcsICc3LjAnLCAnLXRuJywgJzgnLCAnLW1hJywgJzIwMCcsICctaW1hZScsICc8aW5maWxlLm1hZT4nLCAnLW9tYWUnLCAnPG91dGZpbGUubWFlPic=

>  <r_lp_tautomer_probability>  (355) 
1

>  <r_epik_Ionization_Penalty>  (355) 
1.98134e-06

>  <r_epik_Ionization_Penalty_Charging>  (355) 
0

>  <r_epik_Ionization_Penalty_Neutral>  (355) 
1.98134e-06

>  <r_epik_State_Penalty>  (355) 
-0

>  <r_epik_Charging_Adjusted_Penalty>  (355) 
0

>  <i_epik_Tot_Q>  (355) 
0

>  <i_epik_Tot_abs_Q>  (355) 
0

>  <s_lp_Force_Field>  (355) 
OPLS3e

>  <r_lp_Energy>  (355) 
82.02

>  <b_lp_Chiralities_Consistent>  (355) 
1

>  <s_lp_Variant>  (355) 
90:0-1

>  <s_i_glide_gridfile>  (355) 
pfpi4k_grid

>  <i_i_glide_lignum>  (355) 
7

>  <i_i_glide_rotatable_bonds>  (355) 
3

>  <r_i_docking_score>  (355) 
-2.63147

>  <r_i_glide_ligand_efficiency>  (355) 
-0.0773962

>  <r_i_glide_ligand_efficiency_sa>  (355) 
-0.250734

>  <r_i_glide_ligand_efficiency_ln>  (355) 
-0.581365

>  <r_i_glide_gscore>  (355) 
-2.63147

>  <r_i_glide_lipo>  (355) 
-0.137496

>  <r_i_glide_hbond>  (355) 
-0.16

>  <r_i_glide_metal>  (355) 
-0

>  <r_i_glide_rewards>  (355) 
-0.15953

>  <r_i_glide_evdw>  (355) 
-31.3724

>  <r_i_glide_ecoul>  (355) 
-3.99316

>  <r_i_glide_erotb>  (355) 
0

>  <r_i_glide_esite>  (355) 
-0.00685186

>  <r_i_glide_emodel>  (355) 
-40.9318

>  <r_i_glide_energy>  (355) 
-35.3655

>  <r_i_glide_einternal>  (355) 
0.918882

>  <r_i_glide_intrahb_reward>  (355) 
-0

>  <i_i_glide_confnum>  (355) 
1

>  <i_i_glide_posenum>  (355) 
1

>  <r_i_glide_eff_state_penalty>  (355) 
0

>  <ligand_id>  (355) 
90

>  <original_smiles>  (355) 
CC12CCC3(CC1C1C4=CCC2CC1C1(O)CC(O)CC(O)C41C)OOC1(CCCCC1)OO3

>  <smiles>  (355) 
[H]OC1([H])C([H])([H])C([H])(O[H])C2(C([H])([H])[H])C3=C([H])C([H])([H])C4([H])C([H])([H])C([H])(C3([H])C3([H])C([H])([H])C5(OOC6(OO5)C([H])([H])C([H])([H])C([H])([H])C([H])([H])C6([H])[H])C([H])([H])C([H])([H])C43C([H])([H])[H])C2(O[H])C1([H])[H]

$$$$
90:0:2
     RDKit          3D

 74 80  0  0  1  0  0  0  0  0999 V2000
    4.0684   -5.1358    0.7402 C   0  0  0  0  0  0  0  0  0  0  0  0
    4.1273   -5.1273    2.3005 C   0  0  1  0  0  0  0  0  0  0  0  0
    5.2072   -4.0927    2.7247 C   0  0  0  0  0  0  0  0  0  0  0  0
    4.8347   -2.6379    2.3140 C   0  0  0  0  0  0  0  0  0  0  0  0
    3.3956   -2.1826    2.7091 C   0  0  0  0  0  0  0  0  0  0  0  0
    2.3431   -3.3100    2.4598 C   0  0  0  0  0  0  0  0  0  0  0  0
    2.8273   -4.6743    2.9904 C   0  0  1  0  0  0  0  0  0  0  0  0
    1.7785   -5.8192    3.1375 C   0  0  2  0  0  0  0  0  0  0  0  0
    1.8679   -6.6399    4.4158 C   0  0  0  0  0  0  0  0  0  0  0  0
    3.0381   -6.9545    5.0174 C   0  0  0  0  0  0  0  0  0  0  0  0
    4.3976   -6.7171    4.3684 C   0  0  0  0  0  0  0  0  0  0  0  0
    4.3658   -6.5805    2.8047 C   0  0  1  0  0  0  0  0  0  0  0  0
    3.3038   -7.5587    2.1776 C   0  0  0  0  0  0  0  0  0  0  0  0
    1.8041   -7.0331    2.2134 C   0  0  1  0  0  0  0  0  0  0  0  0
    0.6946   -7.9573    2.8919 C   0  0  1  0  0  0  0  0  0  0  0  0
   -0.5439   -7.6295    2.2725 O   0  0  0  0  0  0  0  0  0  0  0  0
    0.9062   -9.4784    2.5659 C   0  0  0  0  0  0  0  0  0  0  0  0
    0.6351  -10.4662    3.6938 C   0  0  1  0  0  0  0  0  0  0  0  0
    1.1024  -11.7470    3.3284 O   0  0  0  0  0  0  0  0  0  0  0  0
    1.2938  -10.0010    4.9887 C   0  0  0  0  0  0  0  0  0  0  0  0
    0.5761   -8.7334    5.4432 C   0  0  1  0  0  0  0  0  0  0  0  0
    0.9507   -8.3922    6.7665 O   0  0  0  0  0  0  0  0  0  0  0  0
    0.6253   -7.5273    4.4370 C   0  0  1  0  0  0  0  0  0  0  0  0
   -0.5953   -6.6458    4.8443 C   0  0  0  0  0  0  0  0  0  0  0  0
    3.4349   -1.8032    4.0956 O   0  0  0  0  0  0  0  0  0  0  0  0
    2.0727   -1.2624    4.5009 O   0  0  0  0  0  0  0  0  0  0  0  0
    1.7267   -0.1461    3.6618 C   0  0  0  0  0  0  0  0  0  0  0  0
    0.2837    0.2677    4.0406 C   0  0  0  0  0  0  0  0  0  0  0  0
   -0.1861    1.5185    3.2777 C   0  0  0  0  0  0  0  0  0  0  0  0
    0.7777    2.6992    3.4926 C   0  0  0  0  0  0  0  0  0  0  0  0
    2.2206    2.3028    3.1200 C   0  0  0  0  0  0  0  0  0  0  0  0
    2.6851    1.0496    3.8851 C   0  0  0  0  0  0  0  0  0  0  0  0
    1.7195   -0.5496    2.2877 O   0  0  0  0  0  0  0  0  0  0  0  0
    3.0826   -1.0380    1.9008 O   0  0  0  0  0  0  0  0  0  0  0  0
    4.9705   -5.5853    0.3209 H   0  0  0  0  0  0  0  0  0  0  0  0
    3.9831   -4.1477    0.3006 H   0  0  0  0  0  0  0  0  0  0  0  0
    3.2200   -5.6836    0.3421 H   0  0  0  0  0  0  0  0  0  0  0  0
    5.3463   -4.0934    3.8037 H   0  0  0  0  0  0  0  0  0  0  0  0
    6.1783   -4.3665    2.3067 H   0  0  0  0  0  0  0  0  0  0  0  0
    5.5595   -1.9439    2.7380 H   0  0  0  0  0  0  0  0  0  0  0  0
    4.9618   -2.5284    1.2383 H   0  0  0  0  0  0  0  0  0  0  0  0
    1.3851   -3.0656    2.9158 H   0  0  0  0  0  0  0  0  0  0  0  0
    2.1522   -3.3788    1.3929 H   0  0  0  0  0  0  0  0  0  0  0  0
    3.0815   -4.4366    4.0242 H   0  0  0  0  0  0  0  0  0  0  0  0
    0.8147   -5.3311    3.0502 H   0  0  0  0  0  0  0  0  0  0  0  0
    3.0677   -7.6790    5.8114 H   0  0  0  0  0  0  0  0  0  0  0  0
    4.9221   -5.9126    4.8779 H   0  0  0  0  0  0  0  0  0  0  0  0
    4.9749   -7.6140    4.5876 H   0  0  0  0  0  0  0  0  0  0  0  0
    5.3501   -6.8890    2.4476 H   0  0  0  0  0  0  0  0  0  0  0  0
    3.5657   -7.7735    1.1429 H   0  0  0  0  0  0  0  0  0  0  0  0
    3.4436   -8.5025    2.6967 H   0  0  0  0  0  0  0  0  0  0  0  0
    1.4879   -6.7647    1.2033 H   0  0  0  0  0  0  0  0  0  0  0  0
   -0.6844   -8.2493    1.5687 H   0  0  0  0  0  0  0  0  0  0  0  0
    0.2813   -9.7802    1.7332 H   0  0  0  0  0  0  0  0  0  0  0  0
    1.8997   -9.6917    2.1915 H   0  0  0  0  0  0  0  0  0  0  0  0
   -0.4422  -10.5563    3.8217 H   0  0  0  0  0  0  0  0  0  0  0  0
    2.0447  -11.7329    3.2476 H   0  0  0  0  0  0  0  0  0  0  0  0
    1.1836  -10.7756    5.7479 H   0  0  0  0  0  0  0  0  0  0  0  0
    2.3613   -9.8278    4.8558 H   0  0  0  0  0  0  0  0  0  0  0  0
   -0.4690   -9.0368    5.5402 H   0  0  0  0  0  0  0  0  0  0  0  0
    0.9744   -9.1883    7.2780 H   0  0  0  0  0  0  0  0  0  0  0  0
   -1.5228   -7.2189    4.8755 H   0  0  0  0  0  0  0  0  0  0  0  0
   -0.7930   -5.8215    4.1710 H   0  0  0  0  0  0  0  0  0  0  0  0
   -0.4391   -6.2076    5.8320 H   0  0  0  0  0  0  0  0  0  0  0  0
   -0.4068   -0.5554    3.8685 H   0  0  0  0  0  0  0  0  0  0  0  0
    0.2520    0.4789    5.1099 H   0  0  0  0  0  0  0  0  0  0  0  0
   -0.2585    1.2988    2.2104 H   0  0  0  0  0  0  0  0  0  0  0  0
   -1.1876    1.8033    3.5998 H   0  0  0  0  0  0  0  0  0  0  0  0
    0.4584    3.5487    2.8792 H   0  0  0  0  0  0  0  0  0  0  0  0
    0.7357    3.0328    4.5321 H   0  0  0  0  0  0  0  0  0  0  0  0
    2.2692    2.1154    2.0460 H   0  0  0  0  0  0  0  0  0  0  0  0
    2.8893    3.1390    3.3195 H   0  0  0  0  0  0  0  0  0  0  0  0
    2.7082    1.2791    4.9497 H   0  0  0  0  0  0  0  0  0  0  0  0
    3.7106    0.8089    3.6060 H   0  0  0  0  0  0  0  0  0  0  0  0
  2  1  1  6
  1 35  1  0
  1 36  1  0
  1 37  1  0
  2  7  1  0
  2 12  1  0
  2  3  1  0
  3  4  1  0
  3 38  1  0
  3 39  1  0
  4  5  1  0
  4 40  1  0
  4 41  1  0
  5 34  1  0
  5  6  1  0
  5 25  1  0
  6  7  1  0
  6 42  1  0
  6 43  1  0
  7  8  1  0
  7 44  1  1
  8 14  1  0
  8  9  1  0
  8 45  1  1
  9 23  1  0
  9 10  2  0
 10 11  1  0
 10 46  1  0
 11 12  1  0
 11 47  1  0
 11 48  1  0
 12 13  1  0
 12 49  1  6
 13 14  1  0
 13 50  1  0
 13 51  1  0
 14 15  1  0
 14 52  1  6
 15 23  1  0
 15 16  1  6
 15 17  1  0
 16 53  1  0
 17 18  1  0
 17 54  1  0
 17 55  1  0
 18 19  1  0
 18 20  1  0
 18 56  1  1
 19 57  1  0
 20 21  1  0
 20 58  1  0
 20 59  1  0
 21 22  1  0
 21 23  1  0
 21 60  1  1
 22 61  1  0
 23 24  1  6
 24 62  1  0
 24 63  1  0
 24 64  1  0
 25 26  1  0
 26 27  1  0
 27 32  1  0
 27 28  1  0
 27 33  1  0
 28 29  1  0
 28 65  1  0
 28 66  1  0
 29 30  1  0
 29 67  1  0
 29 68  1  0
 30 31  1  0
 30 69  1  0
 30 70  1  0
 31 32  1  0
 31 71  1  0
 31 72  1  0
 32 73  1  0
 32 74  1  0
 33 34  1  0
M  END
>  <i_m_ct_stereo_status>  (356) 
1

>  <s_m_source_file>  (356) 
/var/tmp/pbs.5076255.sched01/tmpgahbdy6u/1388ql836nh.sdf

>  <i_m_source_file_index>  (356) 
7

>  <i_lp_mmshare_version>  (356) 
48012

>  <i_f3d_flags>  (356) 
0

>  <s_epik_input>  (356) 
W0NIXTFbQ0gyXVtDQEhdMltDSDJdW0NASF0zW0NAQF0oW09IXSkoW0NIMl1bQ0BASF0oW09IXSlbQ0gyXVtDQEhdNFtPSF0pW0NAXTQoW0NIM10pQz0xW0NASF0zW0NASF0oW0NIMl01KVtDQEBdMihbQ0gzXSlbQ0gyXVtDSDJdQzU2T09DNyhPTzYpW0NIMl1bQ0gyXVtDSDJdW0NIMl1bQ0gyXTc=

>  <s_epik_cmdline>  (356) 
J2VwaWtfcHl0aG9uJywgJy1waHQnLCAnMi4wJywgJy1waCcsICc3LjAnLCAnLXRuJywgJzgnLCAnLW1hJywgJzIwMCcsICctaW1hZScsICc8aW5maWxlLm1hZT4nLCAnLW9tYWUnLCAnPG91dGZpbGUubWFlPic=

>  <r_lp_tautomer_probability>  (356) 
1

>  <r_epik_Ionization_Penalty>  (356) 
1.98134e-06

>  <r_epik_Ionization_Penalty_Charging>  (356) 
0

>  <r_epik_Ionization_Penalty_Neutral>  (356) 
1.98134e-06

>  <r_epik_State_Penalty>  (356) 
-0

>  <r_epik_Charging_Adjusted_Penalty>  (356) 
0

>  <i_epik_Tot_Q>  (356) 
0

>  <i_epik_Tot_abs_Q>  (356) 
0

>  <s_lp_Force_Field>  (356) 
OPLS3e

>  <r_lp_Energy>  (356) 
82.02

>  <b_lp_Chiralities_Consistent>  (356) 
1

>  <s_lp_Variant>  (356) 
90:0-1

>  <s_i_glide_gridfile>  (356) 
pfpi4k_grid

>  <i_i_glide_lignum>  (356) 
7

>  <i_i_glide_rotatable_bonds>  (356) 
3

>  <r_i_docking_score>  (356) 
-2.52689

>  <r_i_glide_ligand_efficiency>  (356) 
-0.0743202

>  <r_i_glide_ligand_efficiency_sa>  (356) 
-0.240769

>  <r_i_glide_ligand_efficiency_ln>  (356) 
-0.55826

>  <r_i_glide_gscore>  (356) 
-2.52689

>  <r_i_glide_lipo>  (356) 
-0.156093

>  <r_i_glide_hbond>  (356) 
0

>  <r_i_glide_metal>  (356) 
-0

>  <r_i_glide_rewards>  (356) 
-0.15953

>  <r_i_glide_evdw>  (356) 
-31.5957

>  <r_i_glide_ecoul>  (356) 
-4.17937

>  <r_i_glide_erotb>  (356) 
0

>  <r_i_glide_esite>  (356) 
-0.00457351

>  <r_i_glide_emodel>  (356) 
-40.8669

>  <r_i_glide_energy>  (356) 
-35.7751

>  <r_i_glide_einternal>  (356) 
1.03477

>  <r_i_glide_intrahb_reward>  (356) 
-0

>  <i_i_glide_confnum>  (356) 
1

>  <i_i_glide_posenum>  (356) 
35

>  <r_i_glide_eff_state_penalty>  (356) 
0

>  <ligand_id>  (356) 
90

>  <original_smiles>  (356) 
CC12CCC3(CC1C1C4=CCC2CC1C1(O)CC(O)CC(O)C41C)OOC1(CCCCC1)OO3

>  <smiles>  (356) 
[H]OC1([H])C([H])([H])C([H])(O[H])C2(C([H])([H])[H])C3=C([H])C([H])([H])C4([H])C([H])([H])C([H])(C3([H])C3([H])C([H])([H])C5(OOC6(OO5)C([H])([H])C([H])([H])C([H])([H])C([H])([H])C6([H])[H])C([H])([H])C([H])([H])C43C([H])([H])[H])C2(O[H])C1([H])[H]

$$$$
91:0:0
     RDKit          3D

 60 67  0  0  1  0  0  0  0  0999 V2000
    4.4493   -1.9051    1.3785 C   0  0  0  0  0  0  0  0  0  0  0  0
    3.6119   -2.8468    1.8511 C   0  0  0  0  0  0  0  0  0  0  0  0
    3.0745   -2.8355    3.2137 C   0  0  0  0  0  0  0  0  0  0  0  0
    3.2432   -1.9507    4.0526 O   0  0  0  0  0  0  0  0  0  0  0  0
    2.3436   -3.9489    3.4029 O   0  0  0  0  0  0  0  0  0  0  0  0
    2.3665   -4.8779    2.3232 C   0  0  1  0  0  0  0  0  0  0  0  0
    3.0373   -4.0471    1.1495 C   0  0  2  0  0  0  0  0  0  0  0  0
    4.0164   -4.9189    0.3810 C   0  0  0  0  0  0  0  0  0  0  0  0
    3.8866   -6.2270    0.6210 C   0  0  0  0  0  0  0  0  0  0  0  0
    5.0982   -6.9363    1.2863 C   0  0  2  0  0  0  0  0  0  0  0  0
    4.5941   -8.3184    1.3462 C   0  0  0  0  0  0  0  0  0  0  0  0
    3.3382   -8.0840    2.2367 C   0  0  2  0  0  0  0  0  0  0  0  0
    2.2163   -8.8480    1.5934 C   0  0  0  0  0  0  0  0  0  0  0  0
    1.4468   -7.6632    1.7372 C   0  0  2  0  0  0  0  0  0  0  0  0
    1.2826   -6.6492    0.7329 O   0  0  0  0  0  0  0  0  0  0  0  0
    2.5815   -6.5714    1.3795 C   0  0  2  0  0  0  0  0  0  0  0  0
    2.8723   -6.4264    2.7203 C   0  0  2  0  0  0  0  0  0  0  0  0
    4.0057   -6.2681    3.6245 C   0  0  1  0  0  0  0  0  0  0  0  0
    3.2269   -7.0817    4.8128 C   0  0  1  0  0  0  0  0  0  0  0  0
    3.0787   -6.1386    5.8571 O   0  0  0  0  0  0  0  0  0  0  0  0
    1.7520   -7.8614    4.5541 C   0  0  1  0  0  0  0  0  0  0  0  0
    2.1543   -9.2249    4.6320 O   0  0  0  0  0  0  0  0  0  0  0  0
    0.6790   -7.8721    5.6436 C   0  0  0  0  0  0  0  0  0  0  0  0
    0.8170   -7.5135    6.8127 O   0  0  0  0  0  0  0  0  0  0  0  0
   -0.6228   -8.4384    5.0720 C   0  0  0  0  0  0  0  0  0  0  0  0
   -0.3885   -8.6132    3.5460 C   0  0  1  0  0  0  0  0  0  0  0  0
   -1.6677   -8.4856    2.7051 C   0  0  0  0  0  0  0  0  0  0  0  0
    0.7620   -7.6169    3.2306 C   0  0  2  0  0  0  0  0  0  0  0  0
    0.0949   -6.3553    3.3364 O   0  0  0  0  0  0  0  0  0  0  0  0
    5.3685   -6.5244    2.8311 C   0  0  0  0  0  0  0  0  0  0  0  0
    6.2435   -7.5323    3.6211 C   0  0  0  0  0  0  0  0  0  0  0  0
    6.2063   -5.2286    2.8254 C   0  0  0  0  0  0  0  0  0  0  0  0
    4.8185   -1.9194    0.3639 H   0  0  0  0  0  0  0  0  0  0  0  0
    4.7636   -1.0817    2.0060 H   0  0  0  0  0  0  0  0  0  0  0  0
    1.3116   -4.8622    2.0563 H   0  0  0  0  0  0  0  0  0  0  0  0
    2.2955   -3.6772    0.4417 H   0  0  0  0  0  0  0  0  0  0  0  0
    4.9781   -4.4895    0.1367 H   0  0  0  0  0  0  0  0  0  0  0  0
    5.9954   -6.8561    0.6740 H   0  0  0  0  0  0  0  0  0  0  0  0
    4.3816   -8.6735    0.3356 H   0  0  0  0  0  0  0  0  0  0  0  0
    5.3019   -9.0374    1.7610 H   0  0  0  0  0  0  0  0  0  0  0  0
    3.6875   -8.6988    3.0539 H   0  0  0  0  0  0  0  0  0  0  0  0
    2.3205   -9.1110    0.5405 H   0  0  0  0  0  0  0  0  0  0  0  0
    1.8375   -9.7010    2.1528 H   0  0  0  0  0  0  0  0  0  0  0  0
    4.1248   -5.2629    4.0154 H   0  0  0  0  0  0  0  0  0  0  0  0
    3.9346   -7.8031    5.2249 H   0  0  0  0  0  0  0  0  0  0  0  0
    2.7872   -6.6090    6.6294 H   0  0  0  0  0  0  0  0  0  0  0  0
    1.3823   -9.7752    4.6080 H   0  0  0  0  0  0  0  0  0  0  0  0
   -0.8741   -9.3810    5.5572 H   0  0  0  0  0  0  0  0  0  0  0  0
   -1.4292   -7.7311    5.2645 H   0  0  0  0  0  0  0  0  0  0  0  0
   -0.0387   -9.6356    3.3875 H   0  0  0  0  0  0  0  0  0  0  0  0
   -2.1797   -7.5354    2.8628 H   0  0  0  0  0  0  0  0  0  0  0  0
   -2.3648   -9.2820    2.9714 H   0  0  0  0  0  0  0  0  0  0  0  0
   -1.4410   -8.5882    1.6431 H   0  0  0  0  0  0  0  0  0  0  0  0
    0.7635   -5.6981    3.4844 H   0  0  0  0  0  0  0  0  0  0  0  0
    6.5286   -7.1223    4.5919 H   0  0  0  0  0  0  0  0  0  0  0  0
    7.1583   -7.7758    3.0790 H   0  0  0  0  0  0  0  0  0  0  0  0
    5.7287   -8.4683    3.8383 H   0  0  0  0  0  0  0  0  0  0  0  0
    6.4344   -4.9158    3.8454 H   0  0  0  0  0  0  0  0  0  0  0  0
    5.6963   -4.3940    2.3545 H   0  0  0  0  0  0  0  0  0  0  0  0
    7.1520   -5.3646    2.2991 H   0  0  0  0  0  0  0  0  0  0  0  0
  1  2  2  0
  1 33  1  0
  1 34  1  0
  2  7  1  0
  2  3  1  0
  3  4  2  0
  3  5  1  0
  5  6  1  0
  6 17  1  0
  6  7  1  0
  6 35  1  6
  7  8  1  0
  7 36  1  6
  8  9  2  0
  8 37  1  0
  9 16  1  0
  9 10  1  0
 10 30  1  0
 10 11  1  0
 10 38  1  6
 11 12  1  0
 11 39  1  0
 11 40  1  0
 12 17  1  0
 12 13  1  0
 12 41  1  1
 13 14  1  0
 13 42  1  0
 13 43  1  0
 14 16  1  0
 14 28  1  0
 14 15  1  6
 16 15  1  6
 17 16  1  1
 17 18  1  0
 18 19  1  0
 18 30  1  0
 18 44  1  1
 19 20  1  0
 19 21  1  0
 19 45  1  1
 20 46  1  0
 21 28  1  0
 21 22  1  6
 21 23  1  0
 22 47  1  0
 23 24  2  0
 23 25  1  0
 25 26  1  0
 25 48  1  0
 25 49  1  0
 26 27  1  0
 26 28  1  0
 26 50  1  1
 27 51  1  0
 27 52  1  0
 27 53  1  0
 28 29  1  1
 29 54  1  0
 30 31  1  0
 30 32  1  0
 31 55  1  0
 31 56  1  0
 31 57  1  0
 32 58  1  0
 32 59  1  0
 32 60  1  0
M  END
>  <i_m_ct_stereo_status>  (357) 
1

>  <s_m_source_file>  (357) 
/var/tmp/pbs.5076255.sched01/tmpgahbdy6u/1388ql836nh.sdf

>  <i_m_source_file_index>  (357) 
8

>  <i_lp_mmshare_version>  (357) 
48012

>  <i_f3d_flags>  (357) 
2

>  <s_epik_input>  (357) 
W0NAQF0xMjNbQ0BdNChPMilDNTZbQ0BASF03W0NAQEhdKEMoPVtDSDJdKUMoPU8pTzcpW0NIXT1DNFtDQEhdKFtDSDJdW0NASF01W0NIMl0xKUMoW0NIM10pKFtDSDNdKVtDQEhdNltDQEBIXShbT0hdKVtDQF04KFtPSF0pW0NAXTMoW09IXSlbQ0BIXShbQ0gzXSlbQ0gyXUM4PU8=

>  <s_epik_cmdline>  (357) 
J2VwaWtfcHl0aG9uJywgJy1waHQnLCAnMi4wJywgJy1waCcsICc3LjAnLCAnLXRuJywgJzgnLCAnLW1hJywgJzIwMCcsICctaW1hZScsICc8aW5maWxlLm1hZT4nLCAnLW9tYWUnLCAnPG91dGZpbGUubWFlPic=

>  <r_lp_tautomer_probability>  (357) 
1

>  <r_epik_Ionization_Penalty>  (357) 
1.566e-07

>  <r_epik_Ionization_Penalty_Charging>  (357) 
0

>  <r_epik_Ionization_Penalty_Neutral>  (357) 
1.566e-07

>  <r_epik_State_Penalty>  (357) 
-0

>  <r_epik_Charging_Adjusted_Penalty>  (357) 
0

>  <i_epik_Tot_Q>  (357) 
0

>  <i_epik_Tot_abs_Q>  (357) 
0

>  <s_epik_Chemistry_Notes>  (357) 
This compound has an ester and may undergo hydrolysis at high or low pH.

>  <s_lp_Force_Field>  (357) 
OPLS3e

>  <r_lp_Energy>  (357) 
420.251

>  <b_lp_Chiralities_Consistent>  (357) 
0

>  <s_lp_Variant>  (357) 
91:0-1

>  <s_i_glide_gridfile>  (357) 
pfpi4k_grid

>  <i_i_glide_lignum>  (357) 
8

>  <i_i_glide_rotatable_bonds>  (357) 
3

>  <r_i_docking_score>  (357) 
-3.2132

>  <r_i_glide_ligand_efficiency>  (357) 
-0.100412

>  <r_i_glide_ligand_efficiency_sa>  (357) 
-0.318789

>  <r_i_glide_ligand_efficiency_ln>  (357) 
-0.719522

>  <r_i_glide_gscore>  (357) 
-3.2132

>  <r_i_glide_lipo>  (357) 
-0.27568

>  <r_i_glide_hbond>  (357) 
-0.00614207

>  <r_i_glide_metal>  (357) 
-0

>  <r_i_glide_rewards>  (357) 
-0.90578

>  <r_i_glide_evdw>  (357) 
-27.7776

>  <r_i_glide_ecoul>  (357) 
-4.11125

>  <r_i_glide_erotb>  (357) 
0

>  <r_i_glide_esite>  (357) 
-0.0200245

>  <r_i_glide_emodel>  (357) 
-42.7897

>  <r_i_glide_energy>  (357) 
-31.8889

>  <r_i_glide_einternal>  (357) 
2.26689

>  <r_i_glide_intrahb_reward>  (357) 
-0.5

>  <i_i_glide_confnum>  (357) 
1

>  <i_i_glide_posenum>  (357) 
23

>  <r_i_glide_eff_state_penalty>  (357) 
0

>  <ligand_id>  (357) 
91

>  <original_smiles>  (357) 
C=C1C(=O)OC2C1C=C1C3CC4CC56OC15C42C(C(O)C1(O)C(=O)CC(C)C16O)C3(C)C

>  <smiles>  (357) 
[H]OC1([H])C2(O[H])C(=O)C([H])([H])C([H])(C([H])([H])[H])C2(O[H])C23OC24C2=C([H])C5([H])C(=C([H])[H])C(=O)OC5([H])C45C([H])(C([H])([H])C2([H])C(C([H])([H])[H])(C([H])([H])[H])C15[H])C3([H])[H]

$$$$
91:0:1
     RDKit          3D

 60 67  0  0  1  0  0  0  0  0999 V2000
    4.4391   -1.8485    1.3036 C   0  0  0  0  0  0  0  0  0  0  0  0
    3.6068   -2.7900    1.7878 C   0  0  0  0  0  0  0  0  0  0  0  0
    3.0750   -2.7683    3.1520 C   0  0  0  0  0  0  0  0  0  0  0  0
    3.2431   -1.8761    3.9826 O   0  0  0  0  0  0  0  0  0  0  0  0
    2.3494   -3.8840    3.3534 O   0  0  0  0  0  0  0  0  0  0  0  0
    2.3729   -4.8229    2.2820 C   0  0  1  0  0  0  0  0  0  0  0  0
    3.0355   -3.9988    1.0985 C   0  0  2  0  0  0  0  0  0  0  0  0
    4.0147   -4.8735    0.3338 C   0  0  0  0  0  0  0  0  0  0  0  0
    3.8904   -6.1799    0.5861 C   0  0  0  0  0  0  0  0  0  0  0  0
    5.1064   -6.8786    1.2541 C   0  0  2  0  0  0  0  0  0  0  0  0
    4.6076   -8.2625    1.3273 C   0  0  0  0  0  0  0  0  0  0  0  0
    3.3549   -8.0272    2.2233 C   0  0  2  0  0  0  0  0  0  0  0  0
    2.2314   -8.8043    1.5920 C   0  0  0  0  0  0  0  0  0  0  0  0
    1.4630   -7.6177    1.7252 C   0  0  2  0  0  0  0  0  0  0  0  0
    1.2891   -6.6196    0.7072 O   0  0  0  0  0  0  0  0  0  0  0  0
    2.5896   -6.5235    1.3506 C   0  0  2  0  0  0  0  0  0  0  0  0
    2.8843   -6.3664    2.6909 C   0  0  2  0  0  0  0  0  0  0  0  0
    4.0201   -6.1938    3.5903 C   0  0  1  0  0  0  0  0  0  0  0  0
    3.2502   -6.9999    4.7890 C   0  0  1  0  0  0  0  0  0  0  0  0
    3.1020   -6.0482    5.8239 O   0  0  0  0  0  0  0  0  0  0  0  0
    1.7766   -7.7890    4.5424 C   0  0  1  0  0  0  0  0  0  0  0  0
    2.1643   -9.1563    4.6398 O   0  0  0  0  0  0  0  0  0  0  0  0
    0.7058   -7.7845    5.6326 C   0  0  0  0  0  0  0  0  0  0  0  0
    0.8501   -7.4159    6.7985 O   0  0  0  0  0  0  0  0  0  0  0  0
   -0.5952   -8.3652    5.0731 C   0  0  0  0  0  0  0  0  0  0  0  0
   -0.3649   -8.5543    3.5485 C   0  0  1  0  0  0  0  0  0  0  0  0
   -1.6471   -8.4414    2.7103 C   0  0  0  0  0  0  0  0  0  0  0  0
    0.7816   -7.5584    3.2192 C   0  0  2  0  0  0  0  0  0  0  0  0
    0.1110   -6.2959    3.3127 O   0  0  0  0  0  0  0  0  0  0  0  0
    5.3806   -6.4523    2.7933 C   0  0  0  0  0  0  0  0  0  0  0  0
    6.2630   -7.4491    3.5891 C   0  0  0  0  0  0  0  0  0  0  0  0
    6.2099   -5.1522    2.7727 C   0  0  0  0  0  0  0  0  0  0  0  0
    4.8046   -1.8703    0.2879 H   0  0  0  0  0  0  0  0  0  0  0  0
    4.7520   -1.0189    1.9231 H   0  0  0  0  0  0  0  0  0  0  0  0
    1.3179   -4.8149    2.0179 H   0  0  0  0  0  0  0  0  0  0  0  0
    2.2887   -3.6381    0.3909 H   0  0  0  0  0  0  0  0  0  0  0  0
    4.9736   -4.4416    0.0820 H   0  0  0  0  0  0  0  0  0  0  0  0
    6.0006   -6.7988    0.6373 H   0  0  0  0  0  0  0  0  0  0  0  0
    4.3929   -8.6253    0.3193 H   0  0  0  0  0  0  0  0  0  0  0  0
    5.3215   -8.9741    1.7440 H   0  0  0  0  0  0  0  0  0  0  0  0
    3.7117   -8.6260    3.0477 H   0  0  0  0  0  0  0  0  0  0  0  0
    2.3348   -9.0808    0.5426 H   0  0  0  0  0  0  0  0  0  0  0  0
    1.8527   -9.6503    2.1609 H   0  0  0  0  0  0  0  0  0  0  0  0
    4.1372   -5.1839    3.9711 H   0  0  0  0  0  0  0  0  0  0  0  0
    3.9631   -7.7123    5.2075 H   0  0  0  0  0  0  0  0  0  0  0  0
    2.7908   -6.5079    6.5949 H   0  0  0  0  0  0  0  0  0  0  0  0
    2.7964   -9.3562    3.9652 H   0  0  0  0  0  0  0  0  0  0  0  0
   -0.8360   -9.3080    5.5633 H   0  0  0  0  0  0  0  0  0  0  0  0
   -1.4035   -7.6621    5.2645 H   0  0  0  0  0  0  0  0  0  0  0  0
   -0.0076   -9.5767    3.4058 H   0  0  0  0  0  0  0  0  0  0  0  0
   -2.1624   -7.4924    2.8616 H   0  0  0  0  0  0  0  0  0  0  0  0
   -2.3389   -9.2383    2.9872 H   0  0  0  0  0  0  0  0  0  0  0  0
   -1.4237   -8.5529    1.6488 H   0  0  0  0  0  0  0  0  0  0  0  0
    0.7774   -5.6360    3.4575 H   0  0  0  0  0  0  0  0  0  0  0  0
    6.5502   -7.0287    4.5552 H   0  0  0  0  0  0  0  0  0  0  0  0
    7.1771   -7.6931    3.0459 H   0  0  0  0  0  0  0  0  0  0  0  0
    5.7553   -8.3858    3.8171 H   0  0  0  0  0  0  0  0  0  0  0  0
    6.4338   -4.8300    3.7911 H   0  0  0  0  0  0  0  0  0  0  0  0
    5.6948   -4.3246    2.2960 H   0  0  0  0  0  0  0  0  0  0  0  0
    7.1562   -5.2887    2.2456 H   0  0  0  0  0  0  0  0  0  0  0  0
  1  2  2  0
  1 33  1  0
  1 34  1  0
  2  7  1  0
  2  3  1  0
  3  4  2  0
  3  5  1  0
  5  6  1  0
  6 17  1  0
  6  7  1  0
  6 35  1  6
  7  8  1  0
  7 36  1  6
  8  9  2  0
  8 37  1  0
  9 16  1  0
  9 10  1  0
 10 30  1  0
 10 11  1  0
 10 38  1  6
 11 12  1  0
 11 39  1  0
 11 40  1  0
 12 17  1  0
 12 13  1  0
 12 41  1  1
 13 14  1  0
 13 42  1  0
 13 43  1  0
 14 16  1  0
 14 28  1  0
 14 15  1  6
 16 15  1  6
 17 16  1  1
 17 18  1  0
 18 19  1  0
 18 30  1  0
 18 44  1  1
 19 20  1  0
 19 21  1  0
 19 45  1  1
 20 46  1  0
 21 28  1  0
 21 22  1  6
 21 23  1  0
 22 47  1  0
 23 24  2  0
 23 25  1  0
 25 26  1  0
 25 48  1  0
 25 49  1  0
 26 27  1  0
 26 28  1  0
 26 50  1  1
 27 51  1  0
 27 52  1  0
 27 53  1  0
 28 29  1  1
 29 54  1  0
 30 31  1  0
 30 32  1  0
 31 55  1  0
 31 56  1  0
 31 57  1  0
 32 58  1  0
 32 59  1  0
 32 60  1  0
M  END
>  <i_m_ct_stereo_status>  (358) 
1

>  <s_m_source_file>  (358) 
/var/tmp/pbs.5076255.sched01/tmpgahbdy6u/1388ql836nh.sdf

>  <i_m_source_file_index>  (358) 
8

>  <i_lp_mmshare_version>  (358) 
48012

>  <i_f3d_flags>  (358) 
2

>  <s_epik_input>  (358) 
W0NAQF0xMjNbQ0BdNChPMilDNTZbQ0BASF03W0NAQEhdKEMoPVtDSDJdKUMoPU8pTzcpW0NIXT1DNFtDQEhdKFtDSDJdW0NASF01W0NIMl0xKUMoW0NIM10pKFtDSDNdKVtDQEhdNltDQEBIXShbT0hdKVtDQF04KFtPSF0pW0NAXTMoW09IXSlbQ0BIXShbQ0gzXSlbQ0gyXUM4PU8=

>  <s_epik_cmdline>  (358) 
J2VwaWtfcHl0aG9uJywgJy1waHQnLCAnMi4wJywgJy1waCcsICc3LjAnLCAnLXRuJywgJzgnLCAnLW1hJywgJzIwMCcsICctaW1hZScsICc8aW5maWxlLm1hZT4nLCAnLW9tYWUnLCAnPG91dGZpbGUubWFlPic=

>  <r_lp_tautomer_probability>  (358) 
1

>  <r_epik_Ionization_Penalty>  (358) 
1.566e-07

>  <r_epik_Ionization_Penalty_Charging>  (358) 
0

>  <r_epik_Ionization_Penalty_Neutral>  (358) 
1.566e-07

>  <r_epik_State_Penalty>  (358) 
-0

>  <r_epik_Charging_Adjusted_Penalty>  (358) 
0

>  <i_epik_Tot_Q>  (358) 
0

>  <i_epik_Tot_abs_Q>  (358) 
0

>  <s_epik_Chemistry_Notes>  (358) 
This compound has an ester and may undergo hydrolysis at high or low pH.

>  <s_lp_Force_Field>  (358) 
OPLS3e

>  <r_lp_Energy>  (358) 
420.251

>  <b_lp_Chiralities_Consistent>  (358) 
0

>  <s_lp_Variant>  (358) 
91:0-1

>  <s_i_glide_gridfile>  (358) 
pfpi4k_grid

>  <i_i_glide_lignum>  (358) 
8

>  <i_i_glide_rotatable_bonds>  (358) 
3

>  <r_i_docking_score>  (358) 
-3.12965

>  <r_i_glide_ligand_efficiency>  (358) 
-0.0978014

>  <r_i_glide_ligand_efficiency_sa>  (358) 
-0.3105

>  <r_i_glide_ligand_efficiency_ln>  (358) 
-0.700813

>  <r_i_glide_gscore>  (358) 
-3.12965

>  <r_i_glide_lipo>  (358) 
-0.247074

>  <r_i_glide_hbond>  (358) 
-0.0144628

>  <r_i_glide_metal>  (358) 
-0

>  <r_i_glide_rewards>  (358) 
-0.90578

>  <r_i_glide_evdw>  (358) 
-27.6738

>  <r_i_glide_ecoul>  (358) 
-3.73582

>  <r_i_glide_erotb>  (358) 
0

>  <r_i_glide_esite>  (358) 
-0.0182635

>  <r_i_glide_emodel>  (358) 
-43.105

>  <r_i_glide_energy>  (358) 
-31.4096

>  <r_i_glide_einternal>  (358) 
0.503178

>  <r_i_glide_intrahb_reward>  (358) 
-0.5

>  <i_i_glide_confnum>  (358) 
1

>  <i_i_glide_posenum>  (358) 
35

>  <r_i_glide_eff_state_penalty>  (358) 
0

>  <ligand_id>  (358) 
91

>  <original_smiles>  (358) 
C=C1C(=O)OC2C1C=C1C3CC4CC56OC15C42C(C(O)C1(O)C(=O)CC(C)C16O)C3(C)C

>  <smiles>  (358) 
[H]OC1([H])C2(O[H])C(=O)C([H])([H])C([H])(C([H])([H])[H])C2(O[H])C23OC24C2=C([H])C5([H])C(=C([H])[H])C(=O)OC5([H])C45C([H])(C([H])([H])C2([H])C(C([H])([H])[H])(C([H])([H])[H])C15[H])C3([H])[H]

$$$$
91:0:2
     RDKit          3D

 60 67  0  0  1  0  0  0  0  0999 V2000
    4.4278   -1.9103    1.3883 C   0  0  0  0  0  0  0  0  0  0  0  0
    3.5961   -2.8570    1.8614 C   0  0  0  0  0  0  0  0  0  0  0  0
    3.0631   -2.8495    3.2248 C   0  0  0  0  0  0  0  0  0  0  0  0
    3.2292   -1.9633    4.0626 O   0  0  0  0  0  0  0  0  0  0  0  0
    2.3424   -3.9669    3.4163 O   0  0  0  0  0  0  0  0  0  0  0  0
    2.3603   -4.8973    2.3357 C   0  0  1  0  0  0  0  0  0  0  0  0
    3.0265   -4.0599    1.1604 C   0  0  2  0  0  0  0  0  0  0  0  0
    4.0102   -4.9230    0.3890 C   0  0  0  0  0  0  0  0  0  0  0  0
    3.8895   -6.2327    0.6249 C   0  0  0  0  0  0  0  0  0  0  0  0
    5.1068   -6.9355    1.2858 C   0  0  2  0  0  0  0  0  0  0  0  0
    4.6112   -8.3214    1.3433 C   0  0  0  0  0  0  0  0  0  0  0  0
    3.3551   -8.0978    2.2395 C   0  0  2  0  0  0  0  0  0  0  0  0
    2.2335   -8.8677    1.5933 C   0  0  0  0  0  0  0  0  0  0  0  0
    1.4590   -7.6865    1.7356 C   0  0  1  0  0  0  0  0  0  0  0  0
    1.2900   -6.6692    0.7341 O   0  0  0  0  0  0  0  0  0  0  0  0
    2.5880   -6.5871    1.3831 C   0  0  2  0  0  0  0  0  0  0  0  0
    2.8796   -6.4433    2.7260 C   0  0  2  0  0  0  0  0  0  0  0  0
    4.0145   -6.2791    3.6279 C   0  0  1  0  0  0  0  0  0  0  0  0
    3.2418   -7.1005    4.8146 C   0  0  1  0  0  0  0  0  0  0  0  0
    3.0947   -6.1641    5.8637 O   0  0  0  0  0  0  0  0  0  0  0  0
    1.7707   -7.8896    4.5527 C   0  0  1  0  0  0  0  0  0  0  0  0
    2.1619   -9.2571    4.6345 O   0  0  0  0  0  0  0  0  0  0  0  0
    0.6997   -7.9048    5.6426 C   0  0  0  0  0  0  0  0  0  0  0  0
    0.8348   -7.5365    6.8096 O   0  0  0  0  0  0  0  0  0  0  0  0
   -0.5996   -8.4810    5.0740 C   0  0  0  0  0  0  0  0  0  0  0  0
   -0.3658   -8.6505    3.5462 C   0  0  1  0  0  0  0  0  0  0  0  0
   -1.6467   -8.5337    2.7056 C   0  0  0  0  0  0  0  0  0  0  0  0
    0.7770   -7.6473    3.2275 C   0  0  2  0  0  0  0  0  0  0  0  0
    0.0911   -6.3936    3.3146 O   0  0  0  0  0  0  0  0  0  0  0  0
    5.3778   -6.5258    2.8310 C   0  0  0  0  0  0  0  0  0  0  0  0
    6.2604   -7.5301    3.6178 C   0  0  0  0  0  0  0  0  0  0  0  0
    6.2067   -5.2248    2.8275 C   0  0  0  0  0  0  0  0  0  0  0  0
    4.7965   -1.9199    0.3733 H   0  0  0  0  0  0  0  0  0  0  0  0
    4.7377   -1.0869    2.0178 H   0  0  0  0  0  0  0  0  0  0  0  0
    1.3043   -4.8881    2.0735 H   0  0  0  0  0  0  0  0  0  0  0  0
    2.2824   -3.6941    0.4526 H   0  0  0  0  0  0  0  0  0  0  0  0
    4.9690   -4.4867    0.1439 H   0  0  0  0  0  0  0  0  0  0  0  0
    6.0035   -6.8472    0.6727 H   0  0  0  0  0  0  0  0  0  0  0  0
    4.4011   -8.6738    0.3303 H   0  0  0  0  0  0  0  0  0  0  0  0
    5.3262   -9.0355    1.7528 H   0  0  0  0  0  0  0  0  0  0  0  0
    3.7131   -8.7076    3.0572 H   0  0  0  0  0  0  0  0  0  0  0  0
    2.3424   -9.1261    0.5405 H   0  0  0  0  0  0  0  0  0  0  0  0
    1.8596   -9.7253    2.1487 H   0  0  0  0  0  0  0  0  0  0  0  0
    4.1279   -5.2728    4.0186 H   0  0  0  0  0  0  0  0  0  0  0  0
    3.9564   -7.8162    5.2239 H   0  0  0  0  0  0  0  0  0  0  0  0
    2.7946   -6.6353    6.6314 H   0  0  0  0  0  0  0  0  0  0  0  0
    2.7926   -9.4486    3.9558 H   0  0  0  0  0  0  0  0  0  0  0  0
   -0.8378   -9.4313    5.5529 H   0  0  0  0  0  0  0  0  0  0  0  0
   -1.4109   -7.7843    5.2742 H   0  0  0  0  0  0  0  0  0  0  0  0
   -0.0044   -9.6702    3.3936 H   0  0  0  0  0  0  0  0  0  0  0  0
   -2.1667   -7.5881    2.8637 H   0  0  0  0  0  0  0  0  0  0  0  0
   -2.3372   -9.3362    2.9705 H   0  0  0  0  0  0  0  0  0  0  0  0
   -1.4179   -8.6315    1.6439 H   0  0  0  0  0  0  0  0  0  0  0  0
   -0.1372   -6.2517    4.2224 H   0  0  0  0  0  0  0  0  0  0  0  0
    6.5436   -7.1196    4.5893 H   0  0  0  0  0  0  0  0  0  0  0  0
    7.1764   -7.7654    3.0741 H   0  0  0  0  0  0  0  0  0  0  0  0
    5.7534   -8.4707    3.8336 H   0  0  0  0  0  0  0  0  0  0  0  0
    6.4336   -4.9133    3.8487 H   0  0  0  0  0  0  0  0  0  0  0  0
    5.6916   -4.3930    2.3591 H   0  0  0  0  0  0  0  0  0  0  0  0
    7.1544   -5.3541    2.3000 H   0  0  0  0  0  0  0  0  0  0  0  0
  1  2  2  0
  1 33  1  0
  1 34  1  0
  2  7  1  0
  2  3  1  0
  3  4  2  0
  3  5  1  0
  5  6  1  0
  6 17  1  0
  6  7  1  0
  6 35  1  6
  7  8  1  0
  7 36  1  6
  8  9  2  0
  8 37  1  0
  9 16  1  0
  9 10  1  0
 10 30  1  0
 10 11  1  0
 10 38  1  6
 11 12  1  0
 11 39  1  0
 11 40  1  0
 12 17  1  0
 12 13  1  0
 12 41  1  1
 13 14  1  0
 13 42  1  0
 13 43  1  0
 14 16  1  0
 14 28  1  0
 14 15  1  6
 16 15  1  6
 17 16  1  1
 17 18  1  0
 18 19  1  0
 18 30  1  0
 18 44  1  1
 19 20  1  0
 19 21  1  0
 19 45  1  1
 20 46  1  0
 21 28  1  0
 21 22  1  6
 21 23  1  0
 22 47  1  0
 23 24  2  0
 23 25  1  0
 25 26  1  0
 25 48  1  0
 25 49  1  0
 26 27  1  0
 26 28  1  0
 26 50  1  1
 27 51  1  0
 27 52  1  0
 27 53  1  0
 28 29  1  1
 29 54  1  0
 30 31  1  0
 30 32  1  0
 31 55  1  0
 31 56  1  0
 31 57  1  0
 32 58  1  0
 32 59  1  0
 32 60  1  0
M  END
>  <i_m_ct_stereo_status>  (359) 
1

>  <s_m_source_file>  (359) 
/var/tmp/pbs.5076255.sched01/tmpgahbdy6u/1388ql836nh.sdf

>  <i_m_source_file_index>  (359) 
8

>  <i_lp_mmshare_version>  (359) 
48012

>  <i_f3d_flags>  (359) 
2

>  <s_epik_input>  (359) 
W0NAQF0xMjNbQ0BdNChPMilDNTZbQ0BASF03W0NAQEhdKEMoPVtDSDJdKUMoPU8pTzcpW0NIXT1DNFtDQEhdKFtDSDJdW0NASF01W0NIMl0xKUMoW0NIM10pKFtDSDNdKVtDQEhdNltDQEBIXShbT0hdKVtDQF04KFtPSF0pW0NAXTMoW09IXSlbQ0BIXShbQ0gzXSlbQ0gyXUM4PU8=

>  <s_epik_cmdline>  (359) 
J2VwaWtfcHl0aG9uJywgJy1waHQnLCAnMi4wJywgJy1waCcsICc3LjAnLCAnLXRuJywgJzgnLCAnLW1hJywgJzIwMCcsICctaW1hZScsICc8aW5maWxlLm1hZT4nLCAnLW9tYWUnLCAnPG91dGZpbGUubWFlPic=

>  <r_lp_tautomer_probability>  (359) 
1

>  <r_epik_Ionization_Penalty>  (359) 
1.566e-07

>  <r_epik_Ionization_Penalty_Charging>  (359) 
0

>  <r_epik_Ionization_Penalty_Neutral>  (359) 
1.566e-07

>  <r_epik_State_Penalty>  (359) 
-0

>  <r_epik_Charging_Adjusted_Penalty>  (359) 
0

>  <i_epik_Tot_Q>  (359) 
0

>  <i_epik_Tot_abs_Q>  (359) 
0

>  <s_epik_Chemistry_Notes>  (359) 
This compound has an ester and may undergo hydrolysis at high or low pH.

>  <s_lp_Force_Field>  (359) 
OPLS3e

>  <r_lp_Energy>  (359) 
420.251

>  <b_lp_Chiralities_Consistent>  (359) 
0

>  <s_lp_Variant>  (359) 
91:0-1

>  <s_i_glide_gridfile>  (359) 
pfpi4k_grid

>  <i_i_glide_lignum>  (359) 
8

>  <i_i_glide_rotatable_bonds>  (359) 
3

>  <r_i_docking_score>  (359) 
-3.06811

>  <r_i_glide_ligand_efficiency>  (359) 
-0.0958784

>  <r_i_glide_ligand_efficiency_sa>  (359) 
-0.304395

>  <r_i_glide_ligand_efficiency_ln>  (359) 
-0.687033

>  <r_i_glide_gscore>  (359) 
-3.06811

>  <r_i_glide_lipo>  (359) 
-0.276215

>  <r_i_glide_hbond>  (359) 
0

>  <r_i_glide_metal>  (359) 
-0

>  <r_i_glide_rewards>  (359) 
-0.90578

>  <r_i_glide_evdw>  (359) 
-27.9389

>  <r_i_glide_ecoul>  (359) 
-3.1263

>  <r_i_glide_erotb>  (359) 
0

>  <r_i_glide_esite>  (359) 
-0.0202256

>  <r_i_glide_emodel>  (359) 
-42.5667

>  <r_i_glide_energy>  (359) 
-31.0652

>  <r_i_glide_einternal>  (359) 
0.489964

>  <r_i_glide_intrahb_reward>  (359) 
-0.5

>  <i_i_glide_confnum>  (359) 
1

>  <i_i_glide_posenum>  (359) 
36

>  <r_i_glide_eff_state_penalty>  (359) 
0

>  <ligand_id>  (359) 
91

>  <original_smiles>  (359) 
C=C1C(=O)OC2C1C=C1C3CC4CC56OC15C42C(C(O)C1(O)C(=O)CC(C)C16O)C3(C)C

>  <smiles>  (359) 
[H]OC1([H])C2(O[H])C(=O)C([H])([H])C([H])(C([H])([H])[H])C2(O[H])C23OC24C2=C([H])C5([H])C(=C([H])[H])C(=O)OC5([H])C45C([H])(C([H])([H])C2([H])C(C([H])([H])[H])(C([H])([H])[H])C15[H])C3([H])[H]

$$$$
92:0:0
     RDKit          3D

 84 91  0  0  1  0  0  0  0  0999 V2000
    1.1082  -11.3497    3.6904 C   0  0  0  0  0  0  0  0  0  0  0  0
    1.8108  -10.0595    3.3145 C   0  0  0  0  0  0  0  0  0  0  0  0
    1.1350   -8.9329    3.0307 C   0  0  0  0  0  0  0  0  0  0  0  0
    1.8101   -7.6997    2.6774 C   0  0  0  0  0  0  0  0  0  0  0  0
    3.1532   -7.5702    2.6573 C   0  0  0  0  0  0  0  0  0  0  0  0
    3.9646   -8.7539    2.9798 C   0  0  0  0  0  0  0  0  0  0  0  0
    5.3094   -8.6597    3.0093 C   0  0  0  0  0  0  0  0  0  0  0  0
    6.0806   -7.3824    2.7702 C   0  0  0  0  0  0  0  0  0  0  0  0
    5.2048   -6.1205    2.9758 C   0  0  2  0  0  0  0  0  0  0  0  0
    4.9632   -5.7670    4.4619 C   0  0  1  0  0  0  0  0  0  0  0  0
    6.2155   -5.7573    5.1239 O   0  0  0  0  0  0  0  0  0  0  0  0
    4.2832   -4.3955    4.5769 C   0  0  1  0  0  0  0  0  0  0  0  0
    4.3378   -3.8109    5.8826 O   0  0  0  0  0  0  0  0  0  0  0  0
    5.0996   -3.1691    4.8436 C   0  0  2  0  0  0  0  0  0  0  0  0
    4.6554   -1.8655    4.2286 C   0  0  1  0  0  0  0  0  0  0  0  0
    5.1655   -2.0427    2.9243 O   0  0  0  0  0  0  0  0  0  0  0  0
    3.1102   -1.6163    4.3308 C   0  0  1  0  0  0  0  0  0  0  0  0
    2.7843   -1.4925    5.8568 C   0  0  0  0  0  0  0  0  0  0  0  0
    2.6115   -0.2324    3.7126 C   0  0  1  0  0  0  0  0  0  0  0  0
    2.9825    0.1887    2.2619 C   0  0  0  0  0  0  0  0  0  0  0  0
    3.7352   -0.4446    1.5389 O   0  0  0  0  0  0  0  0  0  0  0  0
    2.4050    1.3274    1.8181 O   0  0  0  0  0  0  0  0  0  0  0  0
    1.4543    2.0858    2.5579 C   0  0  2  0  0  0  0  0  0  0  0  0
    2.0623    3.2270    3.3763 C   0  0  0  0  0  0  0  0  0  0  0  0
    0.9341    3.5894    4.3481 C   0  0  1  0  0  0  0  0  0  0  0  0
    0.0235    4.4506    3.6808 O   0  0  0  0  0  0  0  0  0  0  0  0
    0.2980    2.2255    4.7538 C   0  0  0  0  0  0  0  0  0  0  0  0
    0.9835    1.7355    6.0521 C   0  0  0  0  0  0  0  0  0  0  0  0
   -1.2109    2.3466    5.0779 C   0  0  0  0  0  0  0  0  0  0  0  0
    0.5375    1.2974    3.5141 C   0  0  2  0  0  0  0  0  0  0  0  0
    1.0911   -0.1066    3.7654 C   0  0  0  0  0  0  0  0  0  0  0  0
    0.2988   -1.1907    3.8512 C   0  0  0  0  0  0  0  0  0  0  0  0
    0.7917   -2.6277    3.9716 C   0  0  0  0  0  0  0  0  0  0  0  0
    2.3185   -2.8170    3.7092 C   0  0  2  0  0  0  0  0  0  0  0  0
    2.8933   -4.3199    3.8915 C   0  0  2  0  0  0  0  0  0  0  0  0
    1.8928   -5.1707    4.7177 C   0  0  0  0  0  0  0  0  0  0  0  0
    3.0376   -4.9268    2.4542 C   0  0  0  0  0  0  0  0  0  0  0  0
    3.8485   -6.2520    2.2340 C   0  0  2  0  0  0  0  0  0  0  0  0
    4.0901   -6.3584    0.7081 C   0  0  0  0  0  0  0  0  0  0  0  0
    3.3298  -10.1090    3.2856 C   0  0  0  0  0  0  0  0  0  0  0  0
    1.3542  -12.1417    2.9810 H   0  0  0  0  0  0  0  0  0  0  0  0
    0.0263  -11.2142    3.6959 H   0  0  0  0  0  0  0  0  0  0  0  0
    1.4064  -11.6796    4.6873 H   0  0  0  0  0  0  0  0  0  0  0  0
    0.0540   -8.9466    3.0680 H   0  0  0  0  0  0  0  0  0  0  0  0
    1.1851   -6.8666    2.4056 H   0  0  0  0  0  0  0  0  0  0  0  0
    5.9066   -9.5374    3.2094 H   0  0  0  0  0  0  0  0  0  0  0  0
    6.9615   -7.3807    3.4101 H   0  0  0  0  0  0  0  0  0  0  0  0
    6.4728   -7.4139    1.7537 H   0  0  0  0  0  0  0  0  0  0  0  0
    5.7634   -5.2888    2.5462 H   0  0  0  0  0  0  0  0  0  0  0  0
    4.3566   -6.5325    4.9478 H   0  0  0  0  0  0  0  0  0  0  0  0
    6.5384   -6.6476    5.1521 H   0  0  0  0  0  0  0  0  0  0  0  0
    6.1735   -3.2716    4.9505 H   0  0  0  0  0  0  0  0  0  0  0  0
    5.2025   -1.0396    4.6871 H   0  0  0  0  0  0  0  0  0  0  0  0
    4.8105   -1.3567    2.3593 H   0  0  0  0  0  0  0  0  0  0  0  0
    1.8796   -0.9325    6.0626 H   0  0  0  0  0  0  0  0  0  0  0  0
    3.5902   -0.9949    6.3978 H   0  0  0  0  0  0  0  0  0  0  0  0
    2.5925   -2.4489    6.3393 H   0  0  0  0  0  0  0  0  0  0  0  0
    3.0315    0.5498    4.3349 H   0  0  0  0  0  0  0  0  0  0  0  0
    0.8022    2.5397    1.8138 H   0  0  0  0  0  0  0  0  0  0  0  0
    2.9299    2.8786    3.9385 H   0  0  0  0  0  0  0  0  0  0  0  0
    2.3901    4.0705    2.7632 H   0  0  0  0  0  0  0  0  0  0  0  0
    1.3124    4.1313    5.2194 H   0  0  0  0  0  0  0  0  0  0  0  0
    0.1077    4.3172    2.7332 H   0  0  0  0  0  0  0  0  0  0  0  0
    0.5565    0.7944    6.4003 H   0  0  0  0  0  0  0  0  0  0  0  0
    0.8418    2.4543    6.8621 H   0  0  0  0  0  0  0  0  0  0  0  0
    2.0593    1.6063    5.9346 H   0  0  0  0  0  0  0  0  0  0  0  0
   -1.6253    1.3869    5.3923 H   0  0  0  0  0  0  0  0  0  0  0  0
   -1.7911    2.6756    4.2144 H   0  0  0  0  0  0  0  0  0  0  0  0
   -1.3881    3.0622    5.8851 H   0  0  0  0  0  0  0  0  0  0  0  0
   -0.4064    1.1682    2.9844 H   0  0  0  0  0  0  0  0  0  0  0  0
   -0.7726   -1.0579    3.8407 H   0  0  0  0  0  0  0  0  0  0  0  0
    0.4945   -2.9586    4.9654 H   0  0  0  0  0  0  0  0  0  0  0  0
    0.2285   -3.2223    3.2587 H   0  0  0  0  0  0  0  0  0  0  0  0
    2.3996   -2.6148    2.6430 H   0  0  0  0  0  0  0  0  0  0  0  0
    0.9389   -5.2706    4.2001 H   0  0  0  0  0  0  0  0  0  0  0  0
    1.7014   -4.7317    5.6969 H   0  0  0  0  0  0  0  0  0  0  0  0
    2.2364   -6.1862    4.9047 H   0  0  0  0  0  0  0  0  0  0  0  0
    2.0644   -4.9828    1.9733 H   0  0  0  0  0  0  0  0  0  0  0  0
    3.5807   -4.1844    1.8658 H   0  0  0  0  0  0  0  0  0  0  0  0
    4.6920   -5.5294    0.3285 H   0  0  0  0  0  0  0  0  0  0  0  0
    3.1416   -6.3403    0.1698 H   0  0  0  0  0  0  0  0  0  0  0  0
    4.5926   -7.2874    0.4283 H   0  0  0  0  0  0  0  0  0  0  0  0
    3.6842  -10.4537    4.2584 H   0  0  0  0  0  0  0  0  0  0  0  0
    3.6476  -10.8393    2.5391 H   0  0  0  0  0  0  0  0  0  0  0  0
  1  2  1  0
  1 41  1  0
  1 42  1  0
  1 43  1  0
  2 40  1  0
  2  3  2  0
  3  4  1  0
  3 44  1  0
  4  5  2  0
  4 45  1  0
  5 38  1  0
  5  6  1  0
  6  7  2  0
  6 40  1  0
  7  8  1  0
  7 46  1  0
  8  9  1  0
  8 47  1  0
  8 48  1  0
  9 38  1  0
  9 10  1  0
  9 49  1  6
 10 11  1  0
 10 12  1  0
 10 50  1  1
 11 51  1  0
 12 14  1  0
 12 35  1  0
 12 13  1  1
 13 14  1  0
 14 15  1  0
 14 52  1  1
 15 16  1  0
 15 17  1  0
 15 53  1  1
 16 54  1  0
 17 34  1  0
 17 18  1  1
 17 19  1  0
 18 55  1  0
 18 56  1  0
 18 57  1  0
 19 31  1  0
 19 20  1  0
 19 58  1  1
 20 21  2  0
 20 22  1  0
 22 23  1  0
 23 30  1  0
 23 24  1  0
 23 59  1  6
 24 25  1  0
 24 60  1  0
 24 61  1  0
 25 26  1  0
 25 27  1  0
 25 62  1  1
 26 63  1  0
 27 28  1  0
 27 29  1  0
 27 30  1  0
 28 64  1  0
 28 65  1  0
 28 66  1  0
 29 67  1  0
 29 68  1  0
 29 69  1  0
 30 31  1  0
 30 70  1  6
 31 32  2  0
 32 33  1  0
 32 71  1  0
 33 34  1  0
 33 72  1  0
 33 73  1  0
 34 35  1  0
 34 74  1  6
 35 36  1  1
 35 37  1  0
 36 75  1  0
 36 76  1  0
 36 77  1  0
 37 38  1  0
 37 78  1  0
 37 79  1  0
 38 39  1  6
 39 80  1  0
 39 81  1  0
 39 82  1  0
 40 83  1  0
 40 84  1  0
M  END
>  <i_m_ct_stereo_status>  (360) 
1

>  <s_m_source_file>  (360) 
/var/tmp/pbs.5076255.sched01/tmpgahbdy6u/1388ql836nh.sdf

>  <i_m_source_file_index>  (360) 
9

>  <i_lp_mmshare_version>  (360) 
48012

>  <i_f3d_flags>  (360) 
0

>  <s_epik_input>  (360) 
W09IXVtDQEBIXTFbQ0BIXTJbQ0gyXVtDSF09QyhbQ0gyXUMoW0NIM10pPVtDSF1bQ0hdPTMpQzNbQ0BAXTIoW0NIM10pW0NIMl1bQ0BdNChbQ0gzXSlbQ0BIXTVbQ0gyXVtDSF09QyhbQ0BIXTZbQ0BdNShbQ0gzXSlbQ0BASF0oW0NASF0oW0NAXTE0NylPNylbT0hdKVtDQEBIXThbQ0BIXShPQzY9TylbQ0gyXVtDQEBIXShbT0hdKUM4KFtDSDNdKVtDSDNd

>  <s_epik_cmdline>  (360) 
J2VwaWtfcHl0aG9uJywgJy1waHQnLCAnMi4wJywgJy1waCcsICc3LjAnLCAnLXRuJywgJzgnLCAnLW1hJywgJzIwMCcsICctaW1hZScsICc8aW5maWxlLm1hZT4nLCAnLW9tYWUnLCAnPG91dGZpbGUubWFlPic=

>  <r_lp_tautomer_probability>  (360) 
1

>  <r_epik_Ionization_Penalty>  (360) 
2.00818e-07

>  <r_epik_Ionization_Penalty_Charging>  (360) 
0

>  <r_epik_Ionization_Penalty_Neutral>  (360) 
2.00818e-07

>  <r_epik_State_Penalty>  (360) 
-0

>  <r_epik_Charging_Adjusted_Penalty>  (360) 
0

>  <i_epik_Tot_Q>  (360) 
0

>  <i_epik_Tot_abs_Q>  (360) 
0

>  <s_epik_Chemistry_Notes>  (360) 
This compound has an ester and may undergo hydrolysis at high or low pH.

>  <s_lp_Force_Field>  (360) 
OPLS3e

>  <r_lp_Energy>  (360) 
84.8971

>  <b_lp_Chiralities_Consistent>  (360) 
1

>  <s_lp_Variant>  (360) 
92:0-1

>  <s_i_glide_gridfile>  (360) 
pfpi4k_grid

>  <i_i_glide_lignum>  (360) 
9

>  <i_i_glide_rotatable_bonds>  (360) 
3

>  <r_i_docking_score>  (360) 
-3.64043

>  <r_i_glide_ligand_efficiency>  (360) 
-0.0910108

>  <r_i_glide_ligand_efficiency_sa>  (360) 
-0.311252

>  <r_i_glide_ligand_efficiency_ln>  (360) 
-0.776397

>  <r_i_glide_gscore>  (360) 
-3.64043

>  <r_i_glide_lipo>  (360) 
-0.523572

>  <r_i_glide_hbond>  (360) 
-0.16

>  <r_i_glide_metal>  (360) 
-0

>  <r_i_glide_rewards>  (360) 
-0.537937

>  <r_i_glide_evdw>  (360) 
-34.1257

>  <r_i_glide_ecoul>  (360) 
-4.75091

>  <r_i_glide_erotb>  (360) 
0

>  <r_i_glide_esite>  (360) 
0

>  <r_i_glide_emodel>  (360) 
-51.3337

>  <r_i_glide_energy>  (360) 
-38.8766

>  <r_i_glide_einternal>  (360) 
1.52971

>  <r_i_glide_intrahb_reward>  (360) 
-0.5

>  <i_i_glide_confnum>  (360) 
2

>  <i_i_glide_posenum>  (360) 
12

>  <r_i_glide_eff_state_penalty>  (360) 
0

>  <ligand_id>  (360) 
92

>  <original_smiles>  (360) 
CC1=CC=C2C(=CCC3C(O)C45OC4C(O)C4(C)C6C(=O)OC7CC(O)C(C)(C)C7C6=CCC4C5(C)CC23C)C1

>  <smiles>  (360) 
[H]OC1([H])C2([H])C([H])([H])C([H])=C3C(=C([H])C([H])=C(C([H])([H])[H])C3([H])[H])C2(C([H])([H])[H])C([H])([H])C2(C([H])([H])[H])C3([H])C([H])([H])C([H])=C4C([H])(C(=O)OC5([H])C([H])([H])C([H])(O[H])C(C([H])([H])[H])(C([H])([H])[H])C45[H])C3(C([H])([H])[H])C([H])(O[H])C3([H])OC312

$$$$
92:0:1
     RDKit          3D

 84 91  0  0  1  0  0  0  0  0999 V2000
    1.0320  -11.3456    3.6795 C   0  0  0  0  0  0  0  0  0  0  0  0
    1.7417  -10.0610    3.3006 C   0  0  0  0  0  0  0  0  0  0  0  0
    1.0699   -8.9292    3.0213 C   0  0  0  0  0  0  0  0  0  0  0  0
    1.7525   -7.6999    2.6638 C   0  0  0  0  0  0  0  0  0  0  0  0
    3.0945   -7.5798    2.6335 C   0  0  0  0  0  0  0  0  0  0  0  0
    3.9017   -8.7710    2.9506 C   0  0  0  0  0  0  0  0  0  0  0  0
    5.2424   -8.6856    2.9728 C   0  0  0  0  0  0  0  0  0  0  0  0
    6.0246   -7.4139    2.7309 C   0  0  0  0  0  0  0  0  0  0  0  0
    5.1639   -6.1434    2.9419 C   0  0  2  0  0  0  0  0  0  0  0  0
    4.9380   -5.7898    4.4329 C   0  0  1  0  0  0  0  0  0  0  0  0
    6.1738   -5.8232    5.1300 O   0  0  0  0  0  0  0  0  0  0  0  0
    4.2663   -4.4139    4.5506 C   0  0  1  0  0  0  0  0  0  0  0  0
    4.3291   -3.8270    5.8524 O   0  0  0  0  0  0  0  0  0  0  0  0
    5.0859   -3.1916    4.8076 C   0  0  2  0  0  0  0  0  0  0  0  0
    4.6512   -1.8823    4.2014 C   0  0  1  0  0  0  0  0  0  0  0  0
    5.1621   -2.0654    2.8993 O   0  0  0  0  0  0  0  0  0  0  0  0
    3.1089   -1.6240    4.3112 C   0  0  1  0  0  0  0  0  0  0  0  0
    2.7915   -1.5032    5.8402 C   0  0  0  0  0  0  0  0  0  0  0  0
    2.6170   -0.2395    3.6958 C   0  0  1  0  0  0  0  0  0  0  0  0
    2.9774    0.1767    2.2464 C   0  0  0  0  0  0  0  0  0  0  0  0
    3.7261   -0.4665    1.5235 O   0  0  0  0  0  0  0  0  0  0  0  0
    2.4058    1.3176    1.8041 O   0  0  0  0  0  0  0  0  0  0  0  0
    1.4641    2.0837    2.5500 C   0  0  2  0  0  0  0  0  0  0  0  0
    2.0845    3.2222    3.3647 C   0  0  0  0  0  0  0  0  0  0  0  0
    0.9643    3.5913    4.3422 C   0  0  1  0  0  0  0  0  0  0  0  0
    0.0518    4.4540    3.6776 O   0  0  0  0  0  0  0  0  0  0  0  0
    0.3234    2.2305    4.7529 C   0  0  0  0  0  0  0  0  0  0  0  0
    1.0128    1.7352    6.0471 C   0  0  0  0  0  0  0  0  0  0  0  0
   -1.1829    2.3619    5.0864 C   0  0  0  0  0  0  0  0  0  0  0  0
    0.5495    1.3019    3.5114 C   0  0  2  0  0  0  0  0  0  0  0  0
    1.0984   -0.1054    3.7610 C   0  0  0  0  0  0  0  0  0  0  0  0
    0.2988   -1.1840    3.8498 C   0  0  0  0  0  0  0  0  0  0  0  0
    0.7868   -2.6252    3.9673 C   0  0  0  0  0  0  0  0  0  0  0  0
    2.3098   -2.8215    3.6961 C   0  0  2  0  0  0  0  0  0  0  0  0
    2.8737   -4.3306    3.8738 C   0  0  2  0  0  0  0  0  0  0  0  0
    1.8694   -5.1737    4.7056 C   0  0  0  0  0  0  0  0  0  0  0  0
    3.0000   -4.9362    2.4344 C   0  0  0  0  0  0  0  0  0  0  0  0
    3.8006   -6.2673    2.2105 C   0  0  2  0  0  0  0  0  0  0  0  0
    4.0309   -6.3740    0.6828 C   0  0  0  0  0  0  0  0  0  0  0  0
    3.2578  -10.1215    3.2611 C   0  0  0  0  0  0  0  0  0  0  0  0
    1.2658  -12.1400    2.9677 H   0  0  0  0  0  0  0  0  0  0  0  0
   -0.0488  -11.1989    3.6899 H   0  0  0  0  0  0  0  0  0  0  0  0
    1.3339  -11.6786    4.6750 H   0  0  0  0  0  0  0  0  0  0  0  0
   -0.0107   -8.9370    3.0642 H   0  0  0  0  0  0  0  0  0  0  0  0
    1.1320   -6.8632    2.3955 H   0  0  0  0  0  0  0  0  0  0  0  0
    5.8406   -9.5653    3.1696 H   0  0  0  0  0  0  0  0  0  0  0  0
    6.9031   -7.4179    3.3746 H   0  0  0  0  0  0  0  0  0  0  0  0
    6.4100   -7.4497    1.7112 H   0  0  0  0  0  0  0  0  0  0  0  0
    5.7246   -5.3175    2.5020 H   0  0  0  0  0  0  0  0  0  0  0  0
    4.3162   -6.5468    4.9090 H   0  0  0  0  0  0  0  0  0  0  0  0
    6.7815   -5.2308    4.7155 H   0  0  0  0  0  0  0  0  0  0  0  0
    6.1600   -3.2988    4.9110 H   0  0  0  0  0  0  0  0  0  0  0  0
    5.2062   -1.0632    4.6609 H   0  0  0  0  0  0  0  0  0  0  0  0
    4.8190   -1.3733    2.3343 H   0  0  0  0  0  0  0  0  0  0  0  0
    1.8914   -0.9383    6.0490 H   0  0  0  0  0  0  0  0  0  0  0  0
    3.6031   -1.0111    6.3758 H   0  0  0  0  0  0  0  0  0  0  0  0
    2.5952   -2.4607    6.3201 H   0  0  0  0  0  0  0  0  0  0  0  0
    3.0441    0.5386    4.3177 H   0  0  0  0  0  0  0  0  0  0  0  0
    0.8051    2.5370    1.8122 H   0  0  0  0  0  0  0  0  0  0  0  0
    2.9517    2.8668    3.9228 H   0  0  0  0  0  0  0  0  0  0  0  0
    2.4168    4.0631    2.7504 H   0  0  0  0  0  0  0  0  0  0  0  0
    1.3474    4.1311    5.2129 H   0  0  0  0  0  0  0  0  0  0  0  0
    0.1192    4.3083    2.7323 H   0  0  0  0  0  0  0  0  0  0  0  0
    0.5793    0.7978    6.3988 H   0  0  0  0  0  0  0  0  0  0  0  0
    0.8820    2.4570    6.8566 H   0  0  0  0  0  0  0  0  0  0  0  0
    2.0865    1.5987    5.9227 H   0  0  0  0  0  0  0  0  0  0  0  0
   -1.6020    1.4062    5.4046 H   0  0  0  0  0  0  0  0  0  0  0  0
   -1.7651    2.6981    4.2279 H   0  0  0  0  0  0  0  0  0  0  0  0
   -1.3480    3.0789    5.8945 H   0  0  0  0  0  0  0  0  0  0  0  0
   -0.3990    1.1781    2.9894 H   0  0  0  0  0  0  0  0  0  0  0  0
   -0.7724   -1.0471    3.8437 H   0  0  0  0  0  0  0  0  0  0  0  0
    0.4887   -2.9528    4.9626 H   0  0  0  0  0  0  0  0  0  0  0  0
    0.2314   -3.2164    3.2505 H   0  0  0  0  0  0  0  0  0  0  0  0
    2.3858   -2.6189    2.6289 H   0  0  0  0  0  0  0  0  0  0  0  0
    0.9110   -5.2676    4.1933 H   0  0  0  0  0  0  0  0  0  0  0  0
    1.6862   -4.7324    5.6858 H   0  0  0  0  0  0  0  0  0  0  0  0
    2.2068   -6.1930    4.8907 H   0  0  0  0  0  0  0  0  0  0  0  0
    2.0217   -4.9871    1.9601 H   0  0  0  0  0  0  0  0  0  0  0  0
    3.5445   -4.1985    1.8426 H   0  0  0  0  0  0  0  0  0  0  0  0
    4.6383   -5.5510    0.2981 H   0  0  0  0  0  0  0  0  0  0  0  0
    3.0777   -6.3469    0.1507 H   0  0  0  0  0  0  0  0  0  0  0  0
    4.5224   -7.3084    0.3968 H   0  0  0  0  0  0  0  0  0  0  0  0
    3.6154  -10.4682    4.2312 H   0  0  0  0  0  0  0  0  0  0  0  0
    3.5657  -10.8531    2.5126 H   0  0  0  0  0  0  0  0  0  0  0  0
  1  2  1  0
  1 41  1  0
  1 42  1  0
  1 43  1  0
  2 40  1  0
  2  3  2  0
  3  4  1  0
  3 44  1  0
  4  5  2  0
  4 45  1  0
  5 38  1  0
  5  6  1  0
  6  7  2  0
  6 40  1  0
  7  8  1  0
  7 46  1  0
  8  9  1  0
  8 47  1  0
  8 48  1  0
  9 38  1  0
  9 10  1  0
  9 49  1  6
 10 11  1  0
 10 12  1  0
 10 50  1  1
 11 51  1  0
 12 14  1  0
 12 35  1  0
 12 13  1  1
 13 14  1  0
 14 15  1  0
 14 52  1  1
 15 16  1  0
 15 17  1  0
 15 53  1  1
 16 54  1  0
 17 34  1  0
 17 18  1  1
 17 19  1  0
 18 55  1  0
 18 56  1  0
 18 57  1  0
 19 31  1  0
 19 20  1  0
 19 58  1  1
 20 21  2  0
 20 22  1  0
 22 23  1  0
 23 30  1  0
 23 24  1  0
 23 59  1  6
 24 25  1  0
 24 60  1  0
 24 61  1  0
 25 26  1  0
 25 27  1  0
 25 62  1  1
 26 63  1  0
 27 28  1  0
 27 29  1  0
 27 30  1  0
 28 64  1  0
 28 65  1  0
 28 66  1  0
 29 67  1  0
 29 68  1  0
 29 69  1  0
 30 31  1  0
 30 70  1  6
 31 32  2  0
 32 33  1  0
 32 71  1  0
 33 34  1  0
 33 72  1  0
 33 73  1  0
 34 35  1  0
 34 74  1  6
 35 36  1  1
 35 37  1  0
 36 75  1  0
 36 76  1  0
 36 77  1  0
 37 38  1  0
 37 78  1  0
 37 79  1  0
 38 39  1  6
 39 80  1  0
 39 81  1  0
 39 82  1  0
 40 83  1  0
 40 84  1  0
M  END
>  <i_m_ct_stereo_status>  (361) 
1

>  <s_m_source_file>  (361) 
/var/tmp/pbs.5076255.sched01/tmpgahbdy6u/1388ql836nh.sdf

>  <i_m_source_file_index>  (361) 
9

>  <i_lp_mmshare_version>  (361) 
48012

>  <i_f3d_flags>  (361) 
0

>  <s_epik_input>  (361) 
W09IXVtDQEBIXTFbQ0BIXTJbQ0gyXVtDSF09QyhbQ0gyXUMoW0NIM10pPVtDSF1bQ0hdPTMpQzNbQ0BAXTIoW0NIM10pW0NIMl1bQ0BdNChbQ0gzXSlbQ0BIXTVbQ0gyXVtDSF09QyhbQ0BIXTZbQ0BdNShbQ0gzXSlbQ0BASF0oW0NASF0oW0NAXTE0NylPNylbT0hdKVtDQEBIXThbQ0BIXShPQzY9TylbQ0gyXVtDQEBIXShbT0hdKUM4KFtDSDNdKVtDSDNd

>  <s_epik_cmdline>  (361) 
J2VwaWtfcHl0aG9uJywgJy1waHQnLCAnMi4wJywgJy1waCcsICc3LjAnLCAnLXRuJywgJzgnLCAnLW1hJywgJzIwMCcsICctaW1hZScsICc8aW5maWxlLm1hZT4nLCAnLW9tYWUnLCAnPG91dGZpbGUubWFlPic=

>  <r_lp_tautomer_probability>  (361) 
1

>  <r_epik_Ionization_Penalty>  (361) 
2.00818e-07

>  <r_epik_Ionization_Penalty_Charging>  (361) 
0

>  <r_epik_Ionization_Penalty_Neutral>  (361) 
2.00818e-07

>  <r_epik_State_Penalty>  (361) 
-0

>  <r_epik_Charging_Adjusted_Penalty>  (361) 
0

>  <i_epik_Tot_Q>  (361) 
0

>  <i_epik_Tot_abs_Q>  (361) 
0

>  <s_epik_Chemistry_Notes>  (361) 
This compound has an ester and may undergo hydrolysis at high or low pH.

>  <s_lp_Force_Field>  (361) 
OPLS3e

>  <r_lp_Energy>  (361) 
84.8971

>  <b_lp_Chiralities_Consistent>  (361) 
1

>  <s_lp_Variant>  (361) 
92:0-1

>  <s_i_glide_gridfile>  (361) 
pfpi4k_grid

>  <i_i_glide_lignum>  (361) 
9

>  <i_i_glide_rotatable_bonds>  (361) 
3

>  <r_i_docking_score>  (361) 
-3.57477

>  <r_i_glide_ligand_efficiency>  (361) 
-0.0893692

>  <r_i_glide_ligand_efficiency_sa>  (361) 
-0.305639

>  <r_i_glide_ligand_efficiency_ln>  (361) 
-0.762393

>  <r_i_glide_gscore>  (361) 
-3.57477

>  <r_i_glide_lipo>  (361) 
-0.498381

>  <r_i_glide_hbond>  (361) 
-0.16

>  <r_i_glide_metal>  (361) 
-0

>  <r_i_glide_rewards>  (361) 
-0.534501

>  <r_i_glide_evdw>  (361) 
-34.2612

>  <r_i_glide_ecoul>  (361) 
-4.45885

>  <r_i_glide_erotb>  (361) 
0

>  <r_i_glide_esite>  (361) 
0

>  <r_i_glide_emodel>  (361) 
-51.2089

>  <r_i_glide_energy>  (361) 
-38.7201

>  <r_i_glide_einternal>  (361) 
1.14367

>  <r_i_glide_intrahb_reward>  (361) 
-0.5

>  <i_i_glide_confnum>  (361) 
1

>  <i_i_glide_posenum>  (361) 
26

>  <r_i_glide_eff_state_penalty>  (361) 
0

>  <ligand_id>  (361) 
92

>  <original_smiles>  (361) 
CC1=CC=C2C(=CCC3C(O)C45OC4C(O)C4(C)C6C(=O)OC7CC(O)C(C)(C)C7C6=CCC4C5(C)CC23C)C1

>  <smiles>  (361) 
[H]OC1([H])C2([H])C([H])([H])C([H])=C3C(=C([H])C([H])=C(C([H])([H])[H])C3([H])[H])C2(C([H])([H])[H])C([H])([H])C2(C([H])([H])[H])C3([H])C([H])([H])C([H])=C4C([H])(C(=O)OC5([H])C([H])([H])C([H])(O[H])C(C([H])([H])[H])(C([H])([H])[H])C45[H])C3(C([H])([H])[H])C([H])(O[H])C3([H])OC312

$$$$
92:0:2
     RDKit          3D

 84 91  0  0  1  0  0  0  0  0999 V2000
    1.2941  -10.0689    3.4154 C   0  0  0  0  0  0  0  0  0  0  0  0
    1.9442   -8.7407    3.7620 C   0  0  0  0  0  0  0  0  0  0  0  0
    1.6409   -7.6039    3.1139 C   0  0  0  0  0  0  0  0  0  0  0  0
    2.2643   -6.3371    3.4484 C   0  0  0  0  0  0  0  0  0  0  0  0
    3.1465   -6.1903    4.4588 C   0  0  0  0  0  0  0  0  0  0  0  0
    3.5131   -7.3858    5.2333 C   0  0  0  0  0  0  0  0  0  0  0  0
    4.3623   -7.2773    6.2724 C   0  0  0  0  0  0  0  0  0  0  0  0
    4.9599   -5.9756    6.7561 C   0  0  0  0  0  0  0  0  0  0  0  0
    4.1524   -4.7429    6.2838 C   0  0  2  0  0  0  0  0  0  0  0  0
    2.8491   -4.5123    7.0899 C   0  0  1  0  0  0  0  0  0  0  0  0
    3.1192   -4.5791    8.4812 O   0  0  0  0  0  0  0  0  0  0  0  0
    2.2247   -3.1611    6.7061 C   0  0  1  0  0  0  0  0  0  0  0  0
    1.2384   -2.6772    7.6236 O   0  0  0  0  0  0  0  0  0  0  0  0
    2.4764   -1.9486    7.5434 C   0  0  2  0  0  0  0  0  0  0  0  0
    2.5579   -0.6054    6.8657 C   0  0  1  0  0  0  0  0  0  0  0  0
    3.8882   -0.6768    6.4038 O   0  0  0  0  0  0  0  0  0  0  0  0
    1.4555   -0.3873    5.7690 C   0  0  1  0  0  0  0  0  0  0  0  0
    0.0811   -0.3943    6.5186 C   0  0  0  0  0  0  0  0  0  0  0  0
    1.5021    1.0355    5.0496 C   0  0  1  0  0  0  0  0  0  0  0  0
    2.8068    1.5782    4.4072 C   0  0  0  0  0  0  0  0  0  0  0  0
    3.8823    1.0005    4.4686 O   0  0  0  0  0  0  0  0  0  0  0  0
    2.6892    2.7481    3.7387 O   0  0  0  0  0  0  0  0  0  0  0  0
    1.4576    3.4295    3.5107 C   0  0  2  0  0  0  0  0  0  0  0  0
    1.1524    4.5005    4.5537 C   0  0  0  0  0  0  0  0  0  0  0  0
   -0.3449    4.7513    4.3641 C   0  0  1  0  0  0  0  0  0  0  0  0
   -0.5478    5.6441    3.2818 O   0  0  0  0  0  0  0  0  0  0  0  0
   -0.9676    3.3567    4.0859 C   0  0  0  0  0  0  0  0  0  0  0  0
   -1.4671    2.7802    5.4290 C   0  0  0  0  0  0  0  0  0  0  0  0
   -2.2029    3.4373    3.1586 C   0  0  0  0  0  0  0  0  0  0  0  0
    0.1942    2.5475    3.4150 C   0  0  2  0  0  0  0  0  0  0  0  0
    0.4689    1.1380    3.9332 C   0  0  0  0  0  0  0  0  0  0  0  0
   -0.0257    0.0428    3.3305 C   0  0  0  0  0  0  0  0  0  0  0  0
    0.3066   -1.3937    3.7252 C   0  0  0  0  0  0  0  0  0  0  0  0
    1.4983   -1.5442    4.7146 C   0  0  2  0  0  0  0  0  0  0  0  0
    1.8328   -3.0517    5.2078 C   0  0  2  0  0  0  0  0  0  0  0  0
    0.6142   -3.9776    4.9515 C   0  0  0  0  0  0  0  0  0  0  0  0
    3.0488   -3.5409    4.3518 C   0  0  0  0  0  0  0  0  0  0  0  0
    3.8331   -4.8352    4.7666 C   0  0  2  0  0  0  0  0  0  0  0  0
    5.1471   -4.8201    3.9466 C   0  0  0  0  0  0  0  0  0  0  0  0
    2.9598   -8.7690    4.8932 C   0  0  0  0  0  0  0  0  0  0  0  0
    2.0476  -10.7974    3.1112 H   0  0  0  0  0  0  0  0  0  0  0  0
    0.5785   -9.9578    2.5987 H   0  0  0  0  0  0  0  0  0  0  0  0
    0.7596  -10.4721    4.2773 H   0  0  0  0  0  0  0  0  0  0  0  0
    0.9118   -7.6346    2.3148 H   0  0  0  0  0  0  0  0  0  0  0  0
    2.0104   -5.4916    2.8318 H   0  0  0  0  0  0  0  0  0  0  0  0
    4.6634   -8.1588    6.8210 H   0  0  0  0  0  0  0  0  0  0  0  0
    5.0399   -6.0152    7.8407 H   0  0  0  0  0  0  0  0  0  0  0  0
    5.9857   -5.9240    6.3915 H   0  0  0  0  0  0  0  0  0  0  0  0
    4.7897   -3.8756    6.4557 H   0  0  0  0  0  0  0  0  0  0  0  0
    2.1419   -5.3173    6.8948 H   0  0  0  0  0  0  0  0  0  0  0  0
    3.7509   -3.9122    8.7058 H   0  0  0  0  0  0  0  0  0  0  0  0
    3.1094   -2.0419    8.4199 H   0  0  0  0  0  0  0  0  0  0  0  0
    2.5091    0.1852    7.6160 H   0  0  0  0  0  0  0  0  0  0  0  0
    4.0457    0.0543    5.8059 H   0  0  0  0  0  0  0  0  0  0  0  0
   -0.7004    0.1362    5.9887 H   0  0  0  0  0  0  0  0  0  0  0  0
    0.1662    0.0689    7.5016 H   0  0  0  0  0  0  0  0  0  0  0  0
   -0.3393   -1.3895    6.6447 H   0  0  0  0  0  0  0  0  0  0  0  0
    1.2486    1.7679    5.8068 H   0  0  0  0  0  0  0  0  0  0  0  0
    1.5538    3.9532    2.5581 H   0  0  0  0  0  0  0  0  0  0  0  0
    1.3209    4.1172    5.5595 H   0  0  0  0  0  0  0  0  0  0  0  0
    1.7637    5.4006    4.4407 H   0  0  0  0  0  0  0  0  0  0  0  0
   -0.7759    5.2310    5.2450 H   0  0  0  0  0  0  0  0  0  0  0  0
   -0.1931    5.2498    2.4890 H   0  0  0  0  0  0  0  0  0  0  0  0
   -1.9449    1.8110    5.2867 H   0  0  0  0  0  0  0  0  0  0  0  0
   -2.2201    3.4344    5.8751 H   0  0  0  0  0  0  0  0  0  0  0  0
   -0.6657    2.6766    6.1607 H   0  0  0  0  0  0  0  0  0  0  0  0
   -2.6476    2.4531    3.0069 H   0  0  0  0  0  0  0  0  0  0  0  0
   -1.9453    3.8211    2.1709 H   0  0  0  0  0  0  0  0  0  0  0  0
   -2.9715    4.0919    3.5766 H   0  0  0  0  0  0  0  0  0  0  0  0
   -0.0199    2.4460    2.3518 H   0  0  0  0  0  0  0  0  0  0  0  0
   -0.7273    0.1646    2.5176 H   0  0  0  0  0  0  0  0  0  0  0  0
   -0.6202   -1.8024    4.1272 H   0  0  0  0  0  0  0  0  0  0  0  0
    0.5331   -1.9350    2.8101 H   0  0  0  0  0  0  0  0  0  0  0  0
    2.3441   -1.2600    4.0925 H   0  0  0  0  0  0  0  0  0  0  0  0
    0.3936   -4.0459    3.8868 H   0  0  0  0  0  0  0  0  0  0  0  0
   -0.2794   -3.6207    5.4594 H   0  0  0  0  0  0  0  0  0  0  0  0
    0.7667   -5.0027    5.2882 H   0  0  0  0  0  0  0  0  0  0  0  0
    2.7797   -3.5720    3.2977 H   0  0  0  0  0  0  0  0  0  0  0  0
    3.7989   -2.7496    4.4084 H   0  0  0  0  0  0  0  0  0  0  0  0
    5.7686   -3.9544    4.1894 H   0  0  0  0  0  0  0  0  0  0  0  0
    4.9335   -4.7802    2.8765 H   0  0  0  0  0  0  0  0  0  0  0  0
    5.7517   -5.7159    4.1102 H   0  0  0  0  0  0  0  0  0  0  0  0
    2.4837   -9.1869    5.7817 H   0  0  0  0  0  0  0  0  0  0  0  0
    3.7813   -9.4319    4.6171 H   0  0  0  0  0  0  0  0  0  0  0  0
  1  2  1  0
  1 41  1  0
  1 42  1  0
  1 43  1  0
  2 40  1  0
  2  3  2  0
  3  4  1  0
  3 44  1  0
  4  5  2  0
  4 45  1  0
  5 38  1  0
  5  6  1  0
  6  7  2  0
  6 40  1  0
  7  8  1  0
  7 46  1  0
  8  9  1  0
  8 47  1  0
  8 48  1  0
  9 38  1  0
  9 10  1  0
  9 49  1  6
 10 11  1  0
 10 12  1  0
 10 50  1  6
 11 51  1  0
 12 14  1  0
 12 35  1  0
 12 13  1  1
 13 14  1  0
 14 15  1  0
 14 52  1  1
 15 16  1  0
 15 17  1  0
 15 53  1  1
 16 54  1  0
 17 34  1  0
 17 18  1  1
 17 19  1  0
 18 55  1  0
 18 56  1  0
 18 57  1  0
 19 31  1  0
 19 20  1  0
 19 58  1  1
 20 21  2  0
 20 22  1  0
 22 23  1  0
 23 30  1  0
 23 24  1  0
 23 59  1  6
 24 25  1  0
 24 60  1  0
 24 61  1  0
 25 26  1  0
 25 27  1  0
 25 62  1  1
 26 63  1  0
 27 28  1  0
 27 29  1  0
 27 30  1  0
 28 64  1  0
 28 65  1  0
 28 66  1  0
 29 67  1  0
 29 68  1  0
 29 69  1  0
 30 31  1  0
 30 70  1  6
 31 32  2  0
 32 33  1  0
 32 71  1  0
 33 34  1  0
 33 72  1  0
 33 73  1  0
 34 35  1  0
 34 74  1  6
 35 36  1  1
 35 37  1  0
 36 75  1  0
 36 76  1  0
 36 77  1  0
 37 38  1  0
 37 78  1  0
 37 79  1  0
 38 39  1  6
 39 80  1  0
 39 81  1  0
 39 82  1  0
 40 83  1  0
 40 84  1  0
M  END
>  <i_m_ct_stereo_status>  (362) 
1

>  <s_m_source_file>  (362) 
/var/tmp/pbs.5076255.sched01/tmpgahbdy6u/1388ql836nh.sdf

>  <i_m_source_file_index>  (362) 
9

>  <i_lp_mmshare_version>  (362) 
48012

>  <i_f3d_flags>  (362) 
0

>  <s_epik_input>  (362) 
W09IXVtDQEBIXTFbQ0BIXTJbQ0gyXVtDSF09QyhbQ0gyXUMoW0NIM10pPVtDSF1bQ0hdPTMpQzNbQ0BAXTIoW0NIM10pW0NIMl1bQ0BdNChbQ0gzXSlbQ0BIXTVbQ0gyXVtDSF09QyhbQ0BIXTZbQ0BdNShbQ0gzXSlbQ0BASF0oW0NASF0oW0NAXTE0NylPNylbT0hdKVtDQEBIXThbQ0BIXShPQzY9TylbQ0gyXVtDQEBIXShbT0hdKUM4KFtDSDNdKVtDSDNd

>  <s_epik_cmdline>  (362) 
J2VwaWtfcHl0aG9uJywgJy1waHQnLCAnMi4wJywgJy1waCcsICc3LjAnLCAnLXRuJywgJzgnLCAnLW1hJywgJzIwMCcsICctaW1hZScsICc8aW5maWxlLm1hZT4nLCAnLW9tYWUnLCAnPG91dGZpbGUubWFlPic=

>  <r_lp_tautomer_probability>  (362) 
1

>  <r_epik_Ionization_Penalty>  (362) 
2.00818e-07

>  <r_epik_Ionization_Penalty_Charging>  (362) 
0

>  <r_epik_Ionization_Penalty_Neutral>  (362) 
2.00818e-07

>  <r_epik_State_Penalty>  (362) 
-0

>  <r_epik_Charging_Adjusted_Penalty>  (362) 
0

>  <i_epik_Tot_Q>  (362) 
0

>  <i_epik_Tot_abs_Q>  (362) 
0

>  <s_epik_Chemistry_Notes>  (362) 
This compound has an ester and may undergo hydrolysis at high or low pH.

>  <s_lp_Force_Field>  (362) 
OPLS3e

>  <r_lp_Energy>  (362) 
84.8971

>  <b_lp_Chiralities_Consistent>  (362) 
1

>  <s_lp_Variant>  (362) 
92:0-1

>  <s_i_glide_gridfile>  (362) 
pfpi4k_grid

>  <i_i_glide_lignum>  (362) 
9

>  <i_i_glide_rotatable_bonds>  (362) 
3

>  <r_i_docking_score>  (362) 
-3.0458

>  <r_i_glide_ligand_efficiency>  (362) 
-0.076145

>  <r_i_glide_ligand_efficiency_sa>  (362) 
-0.260412

>  <r_i_glide_ligand_efficiency_ln>  (362) 
-0.64958

>  <r_i_glide_gscore>  (362) 
-3.0458

>  <r_i_glide_lipo>  (362) 
-0.0905633

>  <r_i_glide_hbond>  (362) 
-0.252899

>  <r_i_glide_metal>  (362) 
-0

>  <r_i_glide_rewards>  (362) 
-0.5

>  <r_i_glide_evdw>  (362) 
-26.9138

>  <r_i_glide_ecoul>  (362) 
-5.69804

>  <r_i_glide_erotb>  (362) 
0

>  <r_i_glide_esite>  (362) 
-0.00194583

>  <r_i_glide_emodel>  (362) 
-44.4364

>  <r_i_glide_energy>  (362) 
-32.6118

>  <r_i_glide_einternal>  (362) 
0.365007

>  <r_i_glide_intrahb_reward>  (362) 
-0.5

>  <i_i_glide_confnum>  (362) 
2

>  <i_i_glide_posenum>  (362) 
9

>  <r_i_glide_eff_state_penalty>  (362) 
0

>  <ligand_id>  (362) 
92

>  <original_smiles>  (362) 
CC1=CC=C2C(=CCC3C(O)C45OC4C(O)C4(C)C6C(=O)OC7CC(O)C(C)(C)C7C6=CCC4C5(C)CC23C)C1

>  <smiles>  (362) 
[H]OC1([H])C2([H])C([H])([H])C([H])=C3C(=C([H])C([H])=C(C([H])([H])[H])C3([H])[H])C2(C([H])([H])[H])C([H])([H])C2(C([H])([H])[H])C3([H])C([H])([H])C([H])=C4C([H])(C(=O)OC5([H])C([H])([H])C([H])(O[H])C(C([H])([H])[H])(C([H])([H])[H])C45[H])C3(C([H])([H])[H])C([H])(O[H])C3([H])OC312

$$$$
93:0:0
     RDKit          3D

 63 68  0  0  1  0  0  0  0  0999 V2000
    5.9711   -5.3816    2.7393 C   0  0  0  0  0  0  0  0  0  0  0  0
    4.8701   -5.0162    1.7375 C   0  0  2  0  0  0  0  0  0  0  0  0
    5.4458   -5.0039    0.4141 O   0  0  0  0  0  0  0  0  0  0  0  0
    5.0525   -3.8663   -0.3152 C   0  0  1  0  0  0  0  0  0  0  0  0
    6.2888   -2.9718   -0.5009 C   0  0  0  0  0  0  0  0  0  0  0  0
    6.1257   -2.4361   -1.9021 C   0  0  0  0  0  0  0  0  0  0  0  0
    5.1884   -3.4427   -2.5337 C   0  0  0  0  0  0  0  0  0  0  0  0
    5.0011   -3.5213   -3.7425 O   0  0  0  0  0  0  0  0  0  0  0  0
    4.6106   -4.1959   -1.5930 O   0  0  0  0  0  0  0  0  0  0  0  0
    3.8661   -3.3462    0.5030 C   0  0  2  0  0  0  0  0  0  0  0  0
    3.4458   -1.8845    0.5699 C   0  0  0  0  0  0  0  0  0  0  0  0
    2.7409   -1.8120    1.9699 C   0  0  2  0  0  0  0  0  0  0  0  0
    2.9783   -0.4506    2.6983 C   0  0  1  0  0  0  0  0  0  0  0  0
    2.3715    0.7359    1.9121 C   0  0  0  0  0  0  0  0  0  0  0  0
    2.1784    1.9964    2.7653 C   0  0  0  0  0  0  0  0  0  0  0  0
    1.3116    1.7660    3.9935 C   0  0  0  0  0  0  0  0  0  0  0  0
    0.7219    2.8245    4.5926 C   0  0  0  0  0  0  0  0  0  0  0  0
   -0.0516    2.6922    5.8351 C   0  0  0  0  0  0  0  0  0  0  0  0
   -0.6422    3.6381    6.3551 O   0  0  0  0  0  0  0  0  0  0  0  0
   -0.1315    1.3213    6.5010 C   0  0  0  0  0  0  0  0  0  0  0  0
    1.0489    0.4145    6.0957 C   0  0  0  0  0  0  0  0  0  0  0  0
    1.2573    0.3318    4.5572 C   0  0  1  0  0  0  0  0  0  0  0  0
    0.0370   -0.4037    3.9520 C   0  0  0  0  0  0  0  0  0  0  0  0
    2.5947   -0.4153    4.2165 C   0  0  1  0  0  0  0  0  0  0  0  0
    2.7721   -1.7855    4.9170 C   0  0  0  0  0  0  0  0  0  0  0  0
    3.7427   -2.7106    4.1734 C   0  0  0  0  0  0  0  0  0  0  0  0
    3.2165   -3.0802    2.7731 C   0  0  1  0  0  0  0  0  0  0  0  0
    2.0756   -4.1216    2.9001 C   0  0  0  0  0  0  0  0  0  0  0  0
    4.3643   -3.5841    1.8786 C   0  0  1  0  0  0  0  0  0  0  0  0
    5.6028   -5.3686    3.7681 H   0  0  0  0  0  0  0  0  0  0  0  0
    6.7931   -4.6683    2.6616 H   0  0  0  0  0  0  0  0  0  0  0  0
    6.3776   -6.3733    2.5324 H   0  0  0  0  0  0  0  0  0  0  0  0
    4.0577   -5.7411    1.7657 H   0  0  0  0  0  0  0  0  0  0  0  0
    6.3703   -2.2074    0.2663 H   0  0  0  0  0  0  0  0  0  0  0  0
    7.1819   -3.5972   -0.4617 H   0  0  0  0  0  0  0  0  0  0  0  0
    5.6425   -1.4597   -1.9045 H   0  0  0  0  0  0  0  0  0  0  0  0
    7.0755   -2.3803   -2.4369 H   0  0  0  0  0  0  0  0  0  0  0  0
    3.0038   -3.9731    0.2674 H   0  0  0  0  0  0  0  0  0  0  0  0
    4.3032   -1.2159    0.5184 H   0  0  0  0  0  0  0  0  0  0  0  0
    2.7744   -1.6204   -0.2458 H   0  0  0  0  0  0  0  0  0  0  0  0
    1.6701   -1.9047    1.8007 H   0  0  0  0  0  0  0  0  0  0  0  0
    4.0589   -0.3031    2.6822 H   0  0  0  0  0  0  0  0  0  0  0  0
    3.0293    0.9710    1.0774 H   0  0  0  0  0  0  0  0  0  0  0  0
    1.4204    0.4637    1.4553 H   0  0  0  0  0  0  0  0  0  0  0  0
    3.1467    2.3665    3.1002 H   0  0  0  0  0  0  0  0  0  0  0  0
    1.7367    2.7879    2.1562 H   0  0  0  0  0  0  0  0  0  0  0  0
    0.8192    3.8142    4.1697 H   0  0  0  0  0  0  0  0  0  0  0  0
   -0.1478    1.4508    7.5829 H   0  0  0  0  0  0  0  0  0  0  0  0
   -1.0843    0.8652    6.2293 H   0  0  0  0  0  0  0  0  0  0  0  0
    1.9551    0.7920    6.5726 H   0  0  0  0  0  0  0  0  0  0  0  0
    0.8843   -0.5771    6.5197 H   0  0  0  0  0  0  0  0  0  0  0  0
   -0.1189   -1.3835    4.3994 H   0  0  0  0  0  0  0  0  0  0  0  0
    0.1310   -0.5547    2.8801 H   0  0  0  0  0  0  0  0  0  0  0  0
   -0.8846    0.1608    4.0962 H   0  0  0  0  0  0  0  0  0  0  0  0
    3.3665    0.2136    4.6653 H   0  0  0  0  0  0  0  0  0  0  0  0
    3.1595   -1.6203    5.9216 H   0  0  0  0  0  0  0  0  0  0  0  0
    1.8210   -2.2894    5.0625 H   0  0  0  0  0  0  0  0  0  0  0  0
    4.7145   -2.2238    4.1105 H   0  0  0  0  0  0  0  0  0  0  0  0
    3.9108   -3.6150    4.7554 H   0  0  0  0  0  0  0  0  0  0  0  0
    2.4012   -5.0087    3.4433 H   0  0  0  0  0  0  0  0  0  0  0  0
    1.7169   -4.4586    1.9321 H   0  0  0  0  0  0  0  0  0  0  0  0
    1.2103   -3.7173    3.4246 H   0  0  0  0  0  0  0  0  0  0  0  0
    5.2280   -2.9406    2.0509 H   0  0  0  0  0  0  0  0  0  0  0  0
  1  2  1  0
  1 30  1  0
  1 31  1  0
  1 32  1  0
  2 29  1  0
  2  3  1  0
  2 33  1  6
  4  3  1  1
  4  9  1  0
  4  5  1  0
  4 10  1  0
  5  6  1  0
  5 34  1  0
  5 35  1  0
  6  7  1  0
  6 36  1  0
  6 37  1  0
  7  8  2  0
  7  9  1  0
 10 29  1  0
 10 11  1  0
 10 38  1  6
 11 12  1  0
 11 39  1  0
 11 40  1  0
 12 27  1  0
 12 13  1  0
 12 41  1  6
 13 24  1  0
 13 14  1  0
 13 42  1  1
 14 15  1  0
 14 43  1  0
 14 44  1  0
 15 16  1  0
 15 45  1  0
 15 46  1  0
 16 22  1  0
 16 17  2  0
 17 18  1  0
 17 47  1  0
 18 19  2  0
 18 20  1  0
 20 21  1  0
 20 48  1  0
 20 49  1  0
 21 22  1  0
 21 50  1  0
 21 51  1  0
 22 23  1  6
 22 24  1  0
 23 52  1  0
 23 53  1  0
 23 54  1  0
 24 25  1  0
 24 55  1  1
 25 26  1  0
 25 56  1  0
 25 57  1  0
 26 27  1  0
 26 58  1  0
 26 59  1  0
 27 28  1  1
 27 29  1  0
 28 60  1  0
 28 61  1  0
 28 62  1  0
 29 63  1  1
M  END
>  <i_m_ct_stereo_status>  (363) 
1

>  <s_m_source_file>  (363) 
/var/tmp/pbs.5076255.sched01/tmpgahbdy6u/1388ql836nh.sdf

>  <i_m_source_file_index>  (363) 
10

>  <i_lp_mmshare_version>  (363) 
48012

>  <i_f3d_flags>  (363) 
0

>  <s_epik_input>  (363) 
Tz1DKE8xKVtDSDJdW0NIMl1bQ0BAXTEyW0NASF0zW0NASF0oW0NAQEhdKE8yKVtDSDNdKVtDQF00KFtDSDNdKVtDQEhdKFtDSDJdMylbQ0BASF01W0NASF0oW0NIMl1bQ0gyXTQpW0NAXTYoW0NIM10pQyhbQ0gyXVtDSDJdNSk9W0NIXUMoPU8pW0NIMl1bQ0gyXTY=

>  <s_epik_cmdline>  (363) 
J2VwaWtfcHl0aG9uJywgJy1waHQnLCAnMi4wJywgJy1waCcsICc3LjAnLCAnLXRuJywgJzgnLCAnLW1hJywgJzIwMCcsICctaW1hZScsICc8aW5maWxlLm1hZT4nLCAnLW9tYWUnLCAnPG91dGZpbGUubWFlPic=

>  <r_lp_tautomer_probability>  (363) 
1

>  <r_epik_Ionization_Penalty>  (363) 
1.7142e-13

>  <r_epik_Ionization_Penalty_Charging>  (363) 
0

>  <r_epik_Ionization_Penalty_Neutral>  (363) 
1.7142e-13

>  <r_epik_State_Penalty>  (363) 
-0

>  <r_epik_Charging_Adjusted_Penalty>  (363) 
0

>  <i_epik_Tot_Q>  (363) 
0

>  <i_epik_Tot_abs_Q>  (363) 
0

>  <s_epik_Chemistry_Notes>  (363) 
This compound has an ester and may undergo hydrolysis at high or low pH.

>  <s_lp_Force_Field>  (363) 
OPLS3e

>  <r_lp_Energy>  (363) 
45.5792

>  <b_lp_Chiralities_Consistent>  (363) 
1

>  <s_lp_Variant>  (363) 
93:0-1

>  <s_i_glide_gridfile>  (363) 
pfpi4k_grid

>  <i_i_glide_lignum>  (363) 
10

>  <i_i_glide_rotatable_bonds>  (363) 
0

>  <r_i_docking_score>  (363) 
-2.72196

>  <r_i_glide_ligand_efficiency>  (363) 
-0.0938605

>  <r_i_glide_ligand_efficiency_sa>  (363) 
-0.288369

>  <r_i_glide_ligand_efficiency_ln>  (363) 
-0.623259

>  <r_i_glide_gscore>  (363) 
-2.72196

>  <r_i_glide_lipo>  (363) 
-0.102116

>  <r_i_glide_hbond>  (363) 
0

>  <r_i_glide_metal>  (363) 
-0

>  <r_i_glide_rewards>  (363) 
-1.00793

>  <r_i_glide_evdw>  (363) 
-27.7356

>  <r_i_glide_ecoul>  (363) 
-1.49177

>  <r_i_glide_erotb>  (363) 
0

>  <r_i_glide_esite>  (363) 
-0.00135855

>  <r_i_glide_emodel>  (363) 
-33.8806

>  <r_i_glide_energy>  (363) 
-29.2274

>  <r_i_glide_einternal>  (363) 
0

>  <r_i_glide_intrahb_reward>  (363) 
-0

>  <i_i_glide_confnum>  (363) 
3

>  <i_i_glide_posenum>  (363) 
22

>  <r_i_glide_eff_state_penalty>  (363) 
0

>  <ligand_id>  (363) 
93

>  <original_smiles>  (363) 
CC1OC2(CCC(=O)O2)C2CC3C4CCC5=CC(=O)CCC5(C)C4CCC3(C)C12

>  <smiles>  (363) 
[H]C1=C2C([H])([H])C([H])([H])C3([H])C([H])(C([H])([H])C([H])([H])C4(C([H])([H])[H])C3([H])C([H])([H])C3([H])C5(OC(=O)C([H])([H])C5([H])[H])OC([H])(C([H])([H])[H])C34[H])C2(C([H])([H])[H])C([H])([H])C([H])([H])C1=O

$$$$
93:0:1
     RDKit          3D

 63 68  0  0  1  0  0  0  0  0999 V2000
    5.3940   -5.1961    3.9615 C   0  0  0  0  0  0  0  0  0  0  0  0
    4.4602   -4.8668    2.7874 C   0  0  2  0  0  0  0  0  0  0  0  0
    5.2408   -4.8621    1.5661 O   0  0  0  0  0  0  0  0  0  0  0  0
    4.9259   -3.7537    0.7598 C   0  0  1  0  0  0  0  0  0  0  0  0
    6.1617   -2.8244    0.7572 C   0  0  0  0  0  0  0  0  0  0  0  0
    6.2108   -2.3044   -0.6523 C   0  0  0  0  0  0  0  0  0  0  0  0
    5.4043   -3.3505   -1.4170 C   0  0  0  0  0  0  0  0  0  0  0  0
    5.4298   -3.4395   -2.6346 O   0  0  0  0  0  0  0  0  0  0  0  0
    4.6747   -4.1049   -0.5699 O   0  0  0  0  0  0  0  0  0  0  0  0
    3.6211   -3.2415    1.3842 C   0  0  2  0  0  0  0  0  0  0  0  0
    3.1684   -1.7830    1.3605 C   0  0  0  0  0  0  0  0  0  0  0  0
    2.2518   -1.7089    2.6343 C   0  0  2  0  0  0  0  0  0  0  0  0
    2.3476   -0.3342    3.3726 C   0  0  1  0  0  0  0  0  0  0  0  0
    1.8420    0.8294    2.4807 C   0  0  0  0  0  0  0  0  0  0  0  0
    1.4932    2.0889    3.2813 C   0  0  0  0  0  0  0  0  0  0  0  0
    0.4494    1.8537    4.3547 C   0  0  0  0  0  0  0  0  0  0  0  0
   -0.2449    2.9025    4.8432 C   0  0  0  0  0  0  0  0  0  0  0  0
   -1.2050    2.7613    5.9452 C   0  0  0  0  0  0  0  0  0  0  0  0
   -1.8945    3.6837    6.3643 O   0  0  0  0  0  0  0  0  0  0  0  0
   -1.3622    1.3979    6.6148 C   0  0  0  0  0  0  0  0  0  0  0  0
   -0.1114    0.5199    6.4176 C   0  0  0  0  0  0  0  0  0  0  0  0
    0.3394    0.4263    4.9342 C   0  0  1  0  0  0  0  0  0  0  0  0
   -0.7561   -0.3372    4.1588 C   0  0  0  0  0  0  0  0  0  0  0  0
    1.7285   -0.2940    4.8129 C   0  0  1  0  0  0  0  0  0  0  0  0
    1.8163   -1.6570    5.5470 C   0  0  0  0  0  0  0  0  0  0  0  0
    2.9174   -2.5596    4.9807 C   0  0  0  0  0  0  0  0  0  0  0  0
    2.6203   -2.9563    3.5238 C   0  0  1  0  0  0  0  0  0  0  0  0
    1.4951   -4.0236    3.4892 C   0  0  0  0  0  0  0  0  0  0  0  0
    3.9026   -3.4468    2.8276 C   0  0  1  0  0  0  0  0  0  0  0  0
    4.8633   -5.1877    4.9164 H   0  0  0  0  0  0  0  0  0  0  0  0
    6.2064   -4.4708    4.0229 H   0  0  0  0  0  0  0  0  0  0  0  0
    5.8476   -6.1808    3.8314 H   0  0  0  0  0  0  0  0  0  0  0  0
    3.6664   -5.6092    2.7013 H   0  0  0  0  0  0  0  0  0  0  0  0
    6.1066   -2.0470    1.5228 H   0  0  0  0  0  0  0  0  0  0  0  0
    7.0505   -3.4282    0.9523 H   0  0  0  0  0  0  0  0  0  0  0  0
    5.7087   -1.3435   -0.7439 H   0  0  0  0  0  0  0  0  0  0  0  0
    7.2283   -2.2357   -1.0351 H   0  0  0  0  0  0  0  0  0  0  0  0
    2.8148   -3.8876    1.0319 H   0  0  0  0  0  0  0  0  0  0  0  0
    4.0158   -1.0998    1.4427 H   0  0  0  0  0  0  0  0  0  0  0  0
    2.6253   -1.5304    0.4479 H   0  0  0  0  0  0  0  0  0  0  0  0
    1.2213   -1.8347    2.3020 H   0  0  0  0  0  0  0  0  0  0  0  0
    3.4150   -0.1662    3.5234 H   0  0  0  0  0  0  0  0  0  0  0  0
    2.6163    1.0838    1.7580 H   0  0  0  0  0  0  0  0  0  0  0  0
    0.9828    0.5285    1.8813 H   0  0  0  0  0  0  0  0  0  0  0  0
    2.3931    2.4868    3.7554 H   0  0  0  0  0  0  0  0  0  0  0  0
    1.1343    2.8647    2.5997 H   0  0  0  0  0  0  0  0  0  0  0  0
   -0.1085    3.8927    4.4296 H   0  0  0  0  0  0  0  0  0  0  0  0
   -1.5466    1.5433    7.6803 H   0  0  0  0  0  0  0  0  0  0  0  0
   -2.2514    0.9184    6.2064 H   0  0  0  0  0  0  0  0  0  0  0  0
    0.7016    0.9265    7.0235 H   0  0  0  0  0  0  0  0  0  0  0  0
   -0.3127   -0.4738    6.8238 H   0  0  0  0  0  0  0  0  0  0  0  0
   -0.9586   -1.3202    4.5829 H   0  0  0  0  0  0  0  0  0  0  0  0
   -0.4854   -0.4868    3.1198 H   0  0  0  0  0  0  0  0  0  0  0  0
   -1.7024    0.2049    4.1451 H   0  0  0  0  0  0  0  0  0  0  0  0
    2.4056    0.3568    5.3684 H   0  0  0  0  0  0  0  0  0  0  0  0
    2.0436   -1.4697    6.5954 H   0  0  0  0  0  0  0  0  0  0  0  0
    0.8629   -2.1776    5.5578 H   0  0  0  0  0  0  0  0  0  0  0  0
    3.8774   -2.0529    5.0646 H   0  0  0  0  0  0  0  0  0  0  0  0
    3.0066   -3.4541    5.5948 H   0  0  0  0  0  0  0  0  0  0  0  0
    1.7502   -4.8965    4.0909 H   0  0  0  0  0  0  0  0  0  0  0  0
    1.2925   -4.3810    2.4828 H   0  0  0  0  0  0  0  0  0  0  0  0
    0.5519   -3.6299    3.8684 H   0  0  0  0  0  0  0  0  0  0  0  0
    4.7163   -2.7838    3.1201 H   0  0  0  0  0  0  0  0  0  0  0  0
  1  2  1  0
  1 30  1  0
  1 31  1  0
  1 32  1  0
  2 29  1  0
  2  3  1  0
  2 33  1  6
  4  3  1  1
  4  9  1  0
  4  5  1  0
  4 10  1  0
  5  6  1  0
  5 34  1  0
  5 35  1  0
  6  7  1  0
  6 36  1  0
  6 37  1  0
  7  8  2  0
  7  9  1  0
 10 29  1  0
 10 11  1  0
 10 38  1  6
 11 12  1  0
 11 39  1  0
 11 40  1  0
 12 27  1  0
 12 13  1  0
 12 41  1  6
 13 24  1  0
 13 14  1  0
 13 42  1  1
 14 15  1  0
 14 43  1  0
 14 44  1  0
 15 16  1  0
 15 45  1  0
 15 46  1  0
 16 22  1  0
 16 17  2  0
 17 18  1  0
 17 47  1  0
 18 19  2  0
 18 20  1  0
 20 21  1  0
 20 48  1  0
 20 49  1  0
 21 22  1  0
 21 50  1  0
 21 51  1  0
 22 23  1  6
 22 24  1  0
 23 52  1  0
 23 53  1  0
 23 54  1  0
 24 25  1  0
 24 55  1  1
 25 26  1  0
 25 56  1  0
 25 57  1  0
 26 27  1  0
 26 58  1  0
 26 59  1  0
 27 28  1  1
 27 29  1  0
 28 60  1  0
 28 61  1  0
 28 62  1  0
 29 63  1  1
M  END
>  <i_m_ct_stereo_status>  (364) 
1

>  <s_m_source_file>  (364) 
/var/tmp/pbs.5076255.sched01/tmpgahbdy6u/1388ql836nh.sdf

>  <i_m_source_file_index>  (364) 
10

>  <i_lp_mmshare_version>  (364) 
48012

>  <i_f3d_flags>  (364) 
0

>  <s_epik_input>  (364) 
Tz1DKE8xKVtDSDJdW0NIMl1bQ0BAXTEyW0NASF0zW0NASF0oW0NAQEhdKE8yKVtDSDNdKVtDQF00KFtDSDNdKVtDQEhdKFtDSDJdMylbQ0BASF01W0NASF0oW0NIMl1bQ0gyXTQpW0NAXTYoW0NIM10pQyhbQ0gyXVtDSDJdNSk9W0NIXUMoPU8pW0NIMl1bQ0gyXTY=

>  <s_epik_cmdline>  (364) 
J2VwaWtfcHl0aG9uJywgJy1waHQnLCAnMi4wJywgJy1waCcsICc3LjAnLCAnLXRuJywgJzgnLCAnLW1hJywgJzIwMCcsICctaW1hZScsICc8aW5maWxlLm1hZT4nLCAnLW9tYWUnLCAnPG91dGZpbGUubWFlPic=

>  <r_lp_tautomer_probability>  (364) 
1

>  <r_epik_Ionization_Penalty>  (364) 
1.7142e-13

>  <r_epik_Ionization_Penalty_Charging>  (364) 
0

>  <r_epik_Ionization_Penalty_Neutral>  (364) 
1.7142e-13

>  <r_epik_State_Penalty>  (364) 
-0

>  <r_epik_Charging_Adjusted_Penalty>  (364) 
0

>  <i_epik_Tot_Q>  (364) 
0

>  <i_epik_Tot_abs_Q>  (364) 
0

>  <s_epik_Chemistry_Notes>  (364) 
This compound has an ester and may undergo hydrolysis at high or low pH.

>  <s_lp_Force_Field>  (364) 
OPLS3e

>  <r_lp_Energy>  (364) 
45.5792

>  <b_lp_Chiralities_Consistent>  (364) 
1

>  <s_lp_Variant>  (364) 
93:0-1

>  <s_i_glide_gridfile>  (364) 
pfpi4k_grid

>  <i_i_glide_lignum>  (364) 
10

>  <i_i_glide_rotatable_bonds>  (364) 
0

>  <r_i_docking_score>  (364) 
-2.48757

>  <r_i_glide_ligand_efficiency>  (364) 
-0.0857783

>  <r_i_glide_ligand_efficiency_sa>  (364) 
-0.263538

>  <r_i_glide_ligand_efficiency_ln>  (364) 
-0.569591

>  <r_i_glide_gscore>  (364) 
-2.48757

>  <r_i_glide_lipo>  (364) 
-0.0912805

>  <r_i_glide_hbond>  (364) 
0

>  <r_i_glide_metal>  (364) 
-0

>  <r_i_glide_rewards>  (364) 
-0.901753

>  <r_i_glide_evdw>  (364) 
-27.7607

>  <r_i_glide_ecoul>  (364) 
-0.710005

>  <r_i_glide_erotb>  (364) 
0

>  <r_i_glide_esite>  (364) 
0

>  <r_i_glide_emodel>  (364) 
-32.6692

>  <r_i_glide_energy>  (364) 
-28.4708

>  <r_i_glide_einternal>  (364) 
0

>  <r_i_glide_intrahb_reward>  (364) 
-0

>  <i_i_glide_confnum>  (364) 
1

>  <i_i_glide_posenum>  (364) 
1

>  <r_i_glide_eff_state_penalty>  (364) 
0

>  <ligand_id>  (364) 
93

>  <original_smiles>  (364) 
CC1OC2(CCC(=O)O2)C2CC3C4CCC5=CC(=O)CCC5(C)C4CCC3(C)C12

>  <smiles>  (364) 
[H]C1=C2C([H])([H])C([H])([H])C3([H])C([H])(C([H])([H])C([H])([H])C4(C([H])([H])[H])C3([H])C([H])([H])C3([H])C5(OC(=O)C([H])([H])C5([H])[H])OC([H])(C([H])([H])[H])C34[H])C2(C([H])([H])[H])C([H])([H])C([H])([H])C1=O

$$$$
93:0:2
     RDKit          3D

 63 68  0  0  1  0  0  0  0  0999 V2000
    3.0797   -4.5706    7.0858 C   0  0  0  0  0  0  0  0  0  0  0  0
    1.9696   -4.4389    6.0346 C   0  0  2  0  0  0  0  0  0  0  0  0
    2.2645   -5.3327    4.9412 O   0  0  0  0  0  0  0  0  0  0  0  0
    2.0978   -4.7083    3.6906 C   0  0  1  0  0  0  0  0  0  0  0  0
    3.4927   -4.5446    3.0544 C   0  0  0  0  0  0  0  0  0  0  0  0
    3.2464   -4.8221    1.5892 C   0  0  0  0  0  0  0  0  0  0  0  0
    1.9553   -5.6203    1.6271 C   0  0  0  0  0  0  0  0  0  0  0  0
    1.5076   -6.2347    0.6606 O   0  0  0  0  0  0  0  0  0  0  0  0
    1.3429   -5.4874    2.8115 O   0  0  0  0  0  0  0  0  0  0  0  0
    1.2929   -3.4545    4.0575 C   0  0  2  0  0  0  0  0  0  0  0  0
    1.3453   -2.1379    3.2893 C   0  0  0  0  0  0  0  0  0  0  0  0
    0.9624   -1.0972    4.3984 C   0  0  2  0  0  0  0  0  0  0  0  0
    1.7216    0.2581    4.2426 C   0  0  1  0  0  0  0  0  0  0  0  0
    1.3671    0.9746    2.9153 C   0  0  0  0  0  0  0  0  0  0  0  0
    1.7173    2.4666    2.9218 C   0  0  0  0  0  0  0  0  0  0  0  0
    1.0543    3.2389    4.0556 C   0  0  0  0  0  0  0  0  0  0  0  0
    0.9244    4.5794    3.9515 C   0  0  0  0  0  0  0  0  0  0  0  0
    0.3898    5.4000    5.0473 C   0  0  0  0  0  0  0  0  0  0  0  0
    0.2140    6.6127    4.9504 O   0  0  0  0  0  0  0  0  0  0  0  0
    0.0218    4.7175    6.3583 C   0  0  0  0  0  0  0  0  0  0  0  0
    0.7859    3.3927    6.5490 C   0  0  0  0  0  0  0  0  0  0  0  0
    0.6765    2.4419    5.3211 C   0  0  1  0  0  0  0  0  0  0  0  0
   -0.7981    1.9761    5.2085 C   0  0  0  0  0  0  0  0  0  0  0  0
    1.6463    1.2198    5.4784 C   0  0  1  0  0  0  0  0  0  0  0  0
    1.5354    0.4682    6.8284 C   0  0  0  0  0  0  0  0  0  0  0  0
    2.0330   -0.9783    6.7452 C   0  0  0  0  0  0  0  0  0  0  0  0
    1.1755   -1.8213    5.7792 C   0  0  1  0  0  0  0  0  0  0  0  0
   -0.1842   -2.1635    6.4425 C   0  0  0  0  0  0  0  0  0  0  0  0
    1.9409   -3.0823    5.3378 C   0  0  1  0  0  0  0  0  0  0  0  0
    2.9163   -3.8951    7.9282 H   0  0  0  0  0  0  0  0  0  0  0  0
    4.0548   -4.3383    6.6513 H   0  0  0  0  0  0  0  0  0  0  0  0
    3.1273   -5.5908    7.4724 H   0  0  0  0  0  0  0  0  0  0  0  0
    0.9983   -4.7025    6.4534 H   0  0  0  0  0  0  0  0  0  0  0  0
    3.9353   -3.5723    3.2605 H   0  0  0  0  0  0  0  0  0  0  0  0
    4.1537   -5.3136    3.4572 H   0  0  0  0  0  0  0  0  0  0  0  0
    3.0707   -3.8990    1.0395 H   0  0  0  0  0  0  0  0  0  0  0  0
    4.0661   -5.3694    1.1200 H   0  0  0  0  0  0  0  0  0  0  0  0
    0.2546   -3.7610    4.2025 H   0  0  0  0  0  0  0  0  0  0  0  0
    2.3396   -1.9465    2.8871 H   0  0  0  0  0  0  0  0  0  0  0  0
    0.6387   -2.1163    2.4611 H   0  0  0  0  0  0  0  0  0  0  0  0
   -0.1003   -0.8879    4.2950 H   0  0  0  0  0  0  0  0  0  0  0  0
    2.7756   -0.0112    4.1681 H   0  0  0  0  0  0  0  0  0  0  0  0
    1.8971    0.4936    2.0929 H   0  0  0  0  0  0  0  0  0  0  0  0
    0.3109    0.8585    2.6778 H   0  0  0  0  0  0  0  0  0  0  0  0
    2.7960    2.5936    3.0068 H   0  0  0  0  0  0  0  0  0  0  0  0
    1.4226    2.9157    1.9739 H   0  0  0  0  0  0  0  0  0  0  0  0
    1.2247    5.0890    3.0477 H   0  0  0  0  0  0  0  0  0  0  0  0
    0.2390    5.3945    7.1853 H   0  0  0  0  0  0  0  0  0  0  0  0
   -1.0552    4.5491    6.3724 H   0  0  0  0  0  0  0  0  0  0  0  0
    1.8346    3.6245    6.7453 H   0  0  0  0  0  0  0  0  0  0  0  0
    0.4144    2.9085    7.4531 H   0  0  0  0  0  0  0  0  0  0  0  0
   -1.1519    1.5103    6.1263 H   0  0  0  0  0  0  0  0  0  0  0  0
   -0.9566    1.2622    4.4052 H   0  0  0  0  0  0  0  0  0  0  0  0
   -1.4671    2.8117    5.0019 H   0  0  0  0  0  0  0  0  0  0  0  0
    2.6371    1.6768    5.5120 H   0  0  0  0  0  0  0  0  0  0  0  0
    2.1298    0.9944    7.5755 H   0  0  0  0  0  0  0  0  0  0  0  0
    0.5213    0.4880    7.2159 H   0  0  0  0  0  0  0  0  0  0  0  0
    3.0756   -0.9707    6.4342 H   0  0  0  0  0  0  0  0  0  0  0  0
    2.0319   -1.4301    7.7355 H   0  0  0  0  0  0  0  0  0  0  0  0
   -0.0419   -2.6789    7.3924 H   0  0  0  0  0  0  0  0  0  0  0  0
   -0.8070   -2.8017    5.8199 H   0  0  0  0  0  0  0  0  0  0  0  0
   -0.7684   -1.2662    6.6375 H   0  0  0  0  0  0  0  0  0  0  0  0
    2.9733   -2.7924    5.1364 H   0  0  0  0  0  0  0  0  0  0  0  0
  1  2  1  0
  1 30  1  0
  1 31  1  0
  1 32  1  0
  2 29  1  0
  2  3  1  0
  2 33  1  1
  4  3  1  1
  4  9  1  0
  4  5  1  0
  4 10  1  0
  5  6  1  0
  5 34  1  0
  5 35  1  0
  6  7  1  0
  6 36  1  0
  6 37  1  0
  7  8  2  0
  7  9  1  0
 10 29  1  0
 10 11  1  0
 10 38  1  1
 11 12  1  0
 11 39  1  0
 11 40  1  0
 12 27  1  0
 12 13  1  0
 12 41  1  6
 13 24  1  0
 13 14  1  0
 13 42  1  6
 14 15  1  0
 14 43  1  0
 14 44  1  0
 15 16  1  0
 15 45  1  0
 15 46  1  0
 16 22  1  0
 16 17  2  0
 17 18  1  0
 17 47  1  0
 18 19  2  0
 18 20  1  0
 20 21  1  0
 20 48  1  0
 20 49  1  0
 21 22  1  0
 21 50  1  0
 21 51  1  0
 22 23  1  6
 22 24  1  0
 23 52  1  0
 23 53  1  0
 23 54  1  0
 24 25  1  0
 24 55  1  1
 25 26  1  0
 25 56  1  0
 25 57  1  0
 26 27  1  0
 26 58  1  0
 26 59  1  0
 27 28  1  1
 27 29  1  0
 28 60  1  0
 28 61  1  0
 28 62  1  0
 29 63  1  6
M  END
>  <i_m_ct_stereo_status>  (365) 
1

>  <s_m_source_file>  (365) 
/var/tmp/pbs.5076255.sched01/tmpgahbdy6u/1388ql836nh.sdf

>  <i_m_source_file_index>  (365) 
10

>  <i_lp_mmshare_version>  (365) 
48012

>  <i_f3d_flags>  (365) 
0

>  <s_epik_input>  (365) 
Tz1DKE8xKVtDSDJdW0NIMl1bQ0BAXTEyW0NASF0zW0NASF0oW0NAQEhdKE8yKVtDSDNdKVtDQF00KFtDSDNdKVtDQEhdKFtDSDJdMylbQ0BASF01W0NASF0oW0NIMl1bQ0gyXTQpW0NAXTYoW0NIM10pQyhbQ0gyXVtDSDJdNSk9W0NIXUMoPU8pW0NIMl1bQ0gyXTY=

>  <s_epik_cmdline>  (365) 
J2VwaWtfcHl0aG9uJywgJy1waHQnLCAnMi4wJywgJy1waCcsICc3LjAnLCAnLXRuJywgJzgnLCAnLW1hJywgJzIwMCcsICctaW1hZScsICc8aW5maWxlLm1hZT4nLCAnLW9tYWUnLCAnPG91dGZpbGUubWFlPic=

>  <r_lp_tautomer_probability>  (365) 
1

>  <r_epik_Ionization_Penalty>  (365) 
1.7142e-13

>  <r_epik_Ionization_Penalty_Charging>  (365) 
0

>  <r_epik_Ionization_Penalty_Neutral>  (365) 
1.7142e-13

>  <r_epik_State_Penalty>  (365) 
-0

>  <r_epik_Charging_Adjusted_Penalty>  (365) 
0

>  <i_epik_Tot_Q>  (365) 
0

>  <i_epik_Tot_abs_Q>  (365) 
0

>  <s_epik_Chemistry_Notes>  (365) 
This compound has an ester and may undergo hydrolysis at high or low pH.

>  <s_lp_Force_Field>  (365) 
OPLS3e

>  <r_lp_Energy>  (365) 
45.5792

>  <b_lp_Chiralities_Consistent>  (365) 
1

>  <s_lp_Variant>  (365) 
93:0-1

>  <s_i_glide_gridfile>  (365) 
pfpi4k_grid

>  <i_i_glide_lignum>  (365) 
10

>  <i_i_glide_rotatable_bonds>  (365) 
0

>  <r_i_docking_score>  (365) 
-2.42709

>  <r_i_glide_ligand_efficiency>  (365) 
-0.0836928

>  <r_i_glide_ligand_efficiency_sa>  (365) 
-0.257131

>  <r_i_glide_ligand_efficiency_ln>  (365) 
-0.555743

>  <r_i_glide_gscore>  (365) 
-2.42709

>  <r_i_glide_lipo>  (365) 
-0.0605316

>  <r_i_glide_hbond>  (365) 
-0.08608

>  <r_i_glide_metal>  (365) 
-0

>  <r_i_glide_rewards>  (365) 
-0.691806

>  <r_i_glide_evdw>  (365) 
-21.6689

>  <r_i_glide_ecoul>  (365) 
-2.84599

>  <r_i_glide_erotb>  (365) 
0

>  <r_i_glide_esite>  (365) 
-0.0783312

>  <r_i_glide_emodel>  (365) 
-28.6399

>  <r_i_glide_energy>  (365) 
-24.5149

>  <r_i_glide_einternal>  (365) 
0

>  <r_i_glide_intrahb_reward>  (365) 
-0

>  <i_i_glide_confnum>  (365) 
1

>  <i_i_glide_posenum>  (365) 
28

>  <r_i_glide_eff_state_penalty>  (365) 
0

>  <ligand_id>  (365) 
93

>  <original_smiles>  (365) 
CC1OC2(CCC(=O)O2)C2CC3C4CCC5=CC(=O)CCC5(C)C4CCC3(C)C12

>  <smiles>  (365) 
[H]C1=C2C([H])([H])C([H])([H])C3([H])C([H])(C([H])([H])C([H])([H])C4(C([H])([H])[H])C3([H])C([H])([H])C3([H])C5(OC(=O)C([H])([H])C5([H])[H])OC([H])(C([H])([H])[H])C34[H])C2(C([H])([H])[H])C([H])([H])C([H])([H])C1=O

$$$$
94:0:0
     RDKit          3D

 65 69  0  0  1  0  0  0  0  0999 V2000
    0.5069   -3.3677    5.2967 C   0  0  0  0  0  0  0  0  0  0  0  0
    1.0170   -2.1182    4.8458 O   0  0  0  0  0  0  0  0  0  0  0  0
    2.4415   -2.0134    4.7570 C   0  0  2  0  0  0  0  0  0  0  0  0
    2.9245   -0.8919    5.6696 C   0  0  2  0  0  0  0  0  0  0  0  0
    2.1791   -0.6487    6.9780 C   0  0  1  0  0  0  0  0  0  0  0  0
    2.9907   -0.5506    8.2574 C   0  0  0  0  0  0  0  0  0  0  0  0
    2.1870    0.4058    5.8957 C   0  0  1  0  0  0  0  0  0  0  0  0
    3.0838    1.4729    6.2139 O   0  0  0  0  0  0  0  0  0  0  0  0
    2.5623    2.5409    6.9978 C   0  0  0  0  0  0  0  0  0  0  0  0
    0.9704    0.8224    5.1123 C   0  0  0  0  0  0  0  0  0  0  0  0
   -0.0910    1.3082    5.7899 C   0  0  0  0  0  0  0  0  0  0  0  0
   -1.1602    2.0119    5.1110 C   0  0  0  0  0  0  0  0  0  0  0  0
   -0.9344    2.5166    3.8853 C   0  0  0  0  0  0  0  0  0  0  0  0
   -1.9989    3.2139    3.1417 C   0  0  0  0  0  0  0  0  0  0  0  0
   -3.1514    3.3471    3.5547 O   0  0  0  0  0  0  0  0  0  0  0  0
    0.4088    2.2846    3.1866 C   0  0  0  0  0  0  0  0  0  0  0  0
    0.9834    0.8796    3.5508 C   0  0  2  0  0  0  0  0  0  0  0  0
   -0.0403   -0.1156    2.9302 C   0  0  0  0  0  0  0  0  0  0  0  0
    2.3796    0.6833    2.8456 C   0  0  1  0  0  0  0  0  0  0  0  0
    3.4096    1.4121    3.4815 O   0  0  0  0  0  0  0  0  0  0  0  0
    2.8727   -0.7284    2.3375 C   0  0  1  0  0  0  0  0  0  0  0  0
    4.2287   -0.5605    1.6308 C   0  0  1  0  0  0  0  0  0  0  0  0
    5.2332   -1.4429    2.3008 C   0  0  1  0  0  0  0  0  0  0  0  0
    4.5288   -2.3068    3.3188 C   0  0  0  0  0  0  0  0  0  0  0  0
    2.9964   -2.0041    3.2781 C   0  0  1  0  0  0  0  0  0  0  0  0
    2.2720   -3.1916    2.5695 C   0  0  0  0  0  0  0  0  0  0  0  0
    5.0579   -1.5452    0.8058 C   0  0  0  0  0  0  0  0  0  0  0  0
    4.4969   -2.7923    0.1558 C   0  0  0  0  0  0  0  0  0  0  0  0
    6.1371   -0.9658   -0.0925 C   0  0  0  0  0  0  0  0  0  0  0  0
   -0.5806   -3.3081    5.3187 H   0  0  0  0  0  0  0  0  0  0  0  0
    0.8603   -3.6078    6.2986 H   0  0  0  0  0  0  0  0  0  0  0  0
    0.7747   -4.1897    4.6344 H   0  0  0  0  0  0  0  0  0  0  0  0
    2.8523   -2.9160    5.2183 H   0  0  0  0  0  0  0  0  0  0  0  0
    4.0049   -0.8070    5.7312 H   0  0  0  0  0  0  0  0  0  0  0  0
    1.2260   -1.1519    7.1218 H   0  0  0  0  0  0  0  0  0  0  0  0
    3.9490   -0.0573    8.0926 H   0  0  0  0  0  0  0  0  0  0  0  0
    3.1865   -1.5526    8.6388 H   0  0  0  0  0  0  0  0  0  0  0  0
    2.4385    0.0013    9.0171 H   0  0  0  0  0  0  0  0  0  0  0  0
    3.3754    3.2243    7.2457 H   0  0  0  0  0  0  0  0  0  0  0  0
    2.1267    2.1861    7.9340 H   0  0  0  0  0  0  0  0  0  0  0  0
    1.8138    3.1215    6.4561 H   0  0  0  0  0  0  0  0  0  0  0  0
   -0.0678    1.3215    6.8701 H   0  0  0  0  0  0  0  0  0  0  0  0
   -2.1213    2.1291    5.5941 H   0  0  0  0  0  0  0  0  0  0  0  0
   -1.7046    3.6263    2.1761 H   0  0  0  0  0  0  0  0  0  0  0  0
    0.3027    2.4071    2.1048 H   0  0  0  0  0  0  0  0  0  0  0  0
    1.0954    3.0635    3.5204 H   0  0  0  0  0  0  0  0  0  0  0  0
   -0.3083    0.1759    1.9129 H   0  0  0  0  0  0  0  0  0  0  0  0
   -0.9672   -0.1715    3.5021 H   0  0  0  0  0  0  0  0  0  0  0  0
    0.3215   -1.1319    2.8580 H   0  0  0  0  0  0  0  0  0  0  0  0
    2.2620    1.2243    1.9056 H   0  0  0  0  0  0  0  0  0  0  0  0
    3.9517    1.8473    2.8323 H   0  0  0  0  0  0  0  0  0  0  0  0
    2.1769   -0.9757    1.5333 H   0  0  0  0  0  0  0  0  0  0  0  0
    4.5018    0.4684    1.4180 H   0  0  0  0  0  0  0  0  0  0  0  0
    6.1588   -0.9900    2.6447 H   0  0  0  0  0  0  0  0  0  0  0  0
    4.7661   -3.3544    3.1363 H   0  0  0  0  0  0  0  0  0  0  0  0
    4.9644   -2.0882    4.2925 H   0  0  0  0  0  0  0  0  0  0  0  0
    2.3766   -3.1950    1.4905 H   0  0  0  0  0  0  0  0  0  0  0  0
    1.1936   -3.1504    2.6988 H   0  0  0  0  0  0  0  0  0  0  0  0
    2.6101   -4.1598    2.9447 H   0  0  0  0  0  0  0  0  0  0  0  0
    5.1765   -3.1938   -0.5971 H   0  0  0  0  0  0  0  0  0  0  0  0
    3.5421   -2.5613   -0.3226 H   0  0  0  0  0  0  0  0  0  0  0  0
    4.3703   -3.5809    0.8974 H   0  0  0  0  0  0  0  0  0  0  0  0
    6.9364   -1.6909   -0.2485 H   0  0  0  0  0  0  0  0  0  0  0  0
    6.5708   -0.0749    0.3604 H   0  0  0  0  0  0  0  0  0  0  0  0
    5.7095   -0.6879   -1.0559 H   0  0  0  0  0  0  0  0  0  0  0  0
  1  2  1  0
  1 30  1  0
  1 31  1  0
  1 32  1  0
  2  3  1  0
  3 25  1  0
  3  4  1  0
  3 33  1  1
  4  7  1  0
  4  5  1  0
  4 34  1  1
  5  6  1  0
  5  7  1  0
  5 35  1  1
  6 36  1  0
  6 37  1  0
  6 38  1  0
  7  8  1  1
  7 10  1  0
  8  9  1  0
  9 39  1  0
  9 40  1  0
  9 41  1  0
 10 17  1  0
 10 11  2  0
 11 12  1  0
 11 42  1  0
 12 13  2  0
 12 43  1  0
 13 14  1  0
 13 16  1  0
 14 15  2  0
 14 44  1  0
 16 17  1  0
 16 45  1  0
 16 46  1  0
 17 18  1  6
 17 19  1  0
 18 47  1  0
 18 48  1  0
 18 49  1  0
 19 20  1  0
 19 21  1  0
 19 50  1  6
 20 51  1  0
 21 25  1  0
 21 22  1  0
 21 52  1  6
 22 27  1  0
 22 23  1  0
 22 53  1  6
 23 24  1  0
 23 27  1  0
 23 54  1  6
 24 25  1  0
 24 55  1  0
 24 56  1  0
 25 26  1  6
 26 57  1  0
 26 58  1  0
 26 59  1  0
 27 28  1  0
 27 29  1  0
 28 60  1  0
 28 61  1  0
 28 62  1  0
 29 63  1  0
 29 64  1  0
 29 65  1  0
M  END
>  <i_m_ct_stereo_status>  (366) 
1

>  <s_m_source_file>  (366) 
/var/tmp/pbs.5076255.sched01/tmpgahbdy6u/1388ql836nh.sdf

>  <i_m_source_file_index>  (366) 
11

>  <i_lp_mmshare_version>  (366) 
48012

>  <i_f3d_flags>  (366) 
0

>  <s_epik_input>  (366) 
W0NIM11PW0NAQF0xMltDQEBIXShbQ0BIXTFbQ0gzXSlbQ0BASF0oT1tDSDNdKVtDQEBdMyhbQ0gzXSlbQ0BIXShbQ0BIXTRbQ0BASF0oW0NIMl0zKUM0KFtDSDNdKVtDSDNdKVtDQEhdKFtPSF0pW0NAQF01KFtDSDNdKUMyPVtDSF1bQ0hdPUMoW0NIXT1PKVtDSDJdNQ==

>  <s_epik_cmdline>  (366) 
J2VwaWtfcHl0aG9uJywgJy1waHQnLCAnMi4wJywgJy1waCcsICc3LjAnLCAnLXRuJywgJzgnLCAnLW1hJywgJzIwMCcsICctaW1hZScsICc8aW5maWxlLm1hZT4nLCAnLW9tYWUnLCAnPG91dGZpbGUubWFlPic=

>  <r_lp_tautomer_probability>  (366) 
1

>  <r_epik_Ionization_Penalty>  (366) 
4.49139e-08

>  <r_epik_Ionization_Penalty_Charging>  (366) 
0

>  <r_epik_Ionization_Penalty_Neutral>  (366) 
4.49139e-08

>  <r_epik_State_Penalty>  (366) 
-0

>  <r_epik_Charging_Adjusted_Penalty>  (366) 
0

>  <i_epik_Tot_Q>  (366) 
0

>  <i_epik_Tot_abs_Q>  (366) 
0

>  <s_lp_Force_Field>  (366) 
OPLS3e

>  <r_lp_Energy>  (366) 
71.9956

>  <b_lp_Chiralities_Consistent>  (366) 
1

>  <s_lp_Variant>  (366) 
94:0-1

>  <s_i_glide_gridfile>  (366) 
pfpi4k_grid

>  <i_i_glide_lignum>  (366) 
11

>  <i_i_glide_rotatable_bonds>  (366) 
4

>  <r_i_docking_score>  (366) 
-2.57272

>  <r_i_glide_ligand_efficiency>  (366) 
-0.0887145

>  <r_i_glide_ligand_efficiency_sa>  (366) 
-0.272559

>  <r_i_glide_ligand_efficiency_ln>  (366) 
-0.589088

>  <r_i_glide_gscore>  (366) 
-2.57272

>  <r_i_glide_lipo>  (366) 
-0.276228

>  <r_i_glide_hbond>  (366) 
0

>  <r_i_glide_metal>  (366) 
-0

>  <r_i_glide_rewards>  (366) 
-0.678062

>  <r_i_glide_evdw>  (366) 
-20.0679

>  <r_i_glide_ecoul>  (366) 
-3.68879

>  <r_i_glide_erotb>  (366) 
0

>  <r_i_glide_esite>  (366) 
-0.0617164

>  <r_i_glide_emodel>  (366) 
-24.8971

>  <r_i_glide_energy>  (366) 
-23.7567

>  <r_i_glide_einternal>  (366) 
4.75768

>  <r_i_glide_intrahb_reward>  (366) 
-0

>  <i_i_glide_confnum>  (366) 
1

>  <i_i_glide_posenum>  (366) 
23

>  <r_i_glide_eff_state_penalty>  (366) 
0

>  <ligand_id>  (366) 
94

>  <original_smiles>  (366) 
COC1C2C(C)C2(OC)C2=CC=C(C=O)CC2(C)C(O)C2C3C(CC12C)C3(C)C

>  <smiles>  (366) 
[H]OC1([H])C2([H])C3([H])C([H])(C([H])([H])C2(C([H])([H])[H])C([H])(OC([H])([H])[H])C2([H])C(OC([H])([H])[H])(C4=C([H])C([H])=C(C([H])=O)C([H])([H])C41C([H])([H])[H])C2([H])C([H])([H])[H])C3(C([H])([H])[H])C([H])([H])[H]

$$$$
94:0:1
     RDKit          3D

 65 69  0  0  1  0  0  0  0  0999 V2000
    3.3155    3.7768    5.9911 C   0  0  0  0  0  0  0  0  0  0  0  0
    2.5298    2.7722    5.3553 O   0  0  0  0  0  0  0  0  0  0  0  0
    1.1538    2.7206    5.7311 C   0  0  2  0  0  0  0  0  0  0  0  0
    0.8363    1.3433    6.2969 C   0  0  2  0  0  0  0  0  0  0  0  0
    1.9114    0.6293    7.1042 C   0  0  1  0  0  0  0  0  0  0  0  0
    1.5393    0.0656    8.4672 C   0  0  0  0  0  0  0  0  0  0  0  0
    1.4279    0.0507    5.8016 C   0  0  1  0  0  0  0  0  0  0  0  0
    0.5369   -1.0497    6.0186 O   0  0  0  0  0  0  0  0  0  0  0  0
    1.1409   -2.3348    6.1466 C   0  0  0  0  0  0  0  0  0  0  0  0
    2.2730   -0.0664    4.5553 C   0  0  0  0  0  0  0  0  0  0  0  0
    3.4197   -0.7723    4.6259 C   0  0  0  0  0  0  0  0  0  0  0  0
    4.1217   -1.1792    3.4255 C   0  0  0  0  0  0  0  0  0  0  0  0
    3.4656   -1.1994    2.2514 C   0  0  0  0  0  0  0  0  0  0  0  0
    4.1259   -1.5798    0.9907 C   0  0  0  0  0  0  0  0  0  0  0  0
    5.3343   -1.8412    0.8943 O   0  0  0  0  0  0  0  0  0  0  0  0
    2.0119   -0.7136    2.1877 C   0  0  0  0  0  0  0  0  0  0  0  0
    1.7590    0.4558    3.1864 C   0  0  2  0  0  0  0  0  0  0  0  0
    2.6468    1.6071    2.6363 C   0  0  0  0  0  0  0  0  0  0  0  0
    0.2513    0.9165    3.1005 C   0  0  1  0  0  0  0  0  0  0  0  0
   -0.6265    0.0208    3.7370 O   0  0  0  0  0  0  0  0  0  0  0  0
   -0.1822    2.4240    3.3239 C   0  0  1  0  0  0  0  0  0  0  0  0
   -1.6956    2.5402    3.0939 C   0  0  1  0  0  0  0  0  0  0  0  0
   -2.3159    3.1165    4.3319 C   0  0  1  0  0  0  0  0  0  0  0  0
   -1.2233    3.5340    5.2864 C   0  0  0  0  0  0  0  0  0  0  0  0
    0.1650    3.2574    4.6236 C   0  0  1  0  0  0  0  0  0  0  0  0
    0.7788    4.6155    4.1543 C   0  0  0  0  0  0  0  0  0  0  0  0
   -2.6255    3.7577    2.9935 C   0  0  0  0  0  0  0  0  0  0  0  0
   -2.2019    5.1490    2.6752 C   0  0  0  0  0  0  0  0  0  0  0  0
   -3.9959    3.5353    2.3648 C   0  0  0  0  0  0  0  0  0  0  0  0
    4.3346    3.7025    5.6140 H   0  0  0  0  0  0  0  0  0  0  0  0
    3.3335    3.6503    7.0723 H   0  0  0  0  0  0  0  0  0  0  0  0
    2.9696    4.7866    5.7775 H   0  0  0  0  0  0  0  0  0  0  0  0
    1.0330    3.3908    6.5840 H   0  0  0  0  0  0  0  0  0  0  0  0
   -0.1711    1.2453    6.6884 H   0  0  0  0  0  0  0  0  0  0  0  0
    2.9157    1.0377    7.0804 H   0  0  0  0  0  0  0  0  0  0  0  0
    0.5248   -0.3213    8.4806 H   0  0  0  0  0  0  0  0  0  0  0  0
    1.6136    0.8624    9.2078 H   0  0  0  0  0  0  0  0  0  0  0  0
    2.2313   -0.7260    8.7496 H   0  0  0  0  0  0  0  0  0  0  0  0
    0.3704   -3.0557    6.4046 H   0  0  0  0  0  0  0  0  0  0  0  0
    1.8980   -2.3590    6.9314 H   0  0  0  0  0  0  0  0  0  0  0  0
    1.5902   -2.6753    5.2142 H   0  0  0  0  0  0  0  0  0  0  0  0
    3.7443   -1.1744    5.5764 H   0  0  0  0  0  0  0  0  0  0  0  0
    5.1693   -1.4713    3.4789 H   0  0  0  0  0  0  0  0  0  0  0  0
    3.4775   -1.6269    0.1183 H   0  0  0  0  0  0  0  0  0  0  0  0
    1.7883   -0.3964    1.1688 H   0  0  0  0  0  0  0  0  0  0  0  0
    1.3666   -1.5623    2.4226 H   0  0  0  0  0  0  0  0  0  0  0  0
    2.5538    1.7048    1.5568 H   0  0  0  0  0  0  0  0  0  0  0  0
    3.6958    1.4238    2.8583 H   0  0  0  0  0  0  0  0  0  0  0  0
    2.4289    2.5871    3.0369 H   0  0  0  0  0  0  0  0  0  0  0  0
    0.0029    0.7762    2.0477 H   0  0  0  0  0  0  0  0  0  0  0  0
   -0.4684   -0.8452    3.3708 H   0  0  0  0  0  0  0  0  0  0  0  0
    0.2643    2.9424    2.4805 H   0  0  0  0  0  0  0  0  0  0  0  0
   -2.1596    1.6603    2.6708 H   0  0  0  0  0  0  0  0  0  0  0  0
   -3.1292    2.5670    4.7835 H   0  0  0  0  0  0  0  0  0  0  0  0
   -1.3691    4.5743    5.5631 H   0  0  0  0  0  0  0  0  0  0  0  0
   -1.3557    2.9737    6.2144 H   0  0  0  0  0  0  0  0  0  0  0  0
    0.3591    5.0055    3.2345 H   0  0  0  0  0  0  0  0  0  0  0  0
    1.8160    4.5169    3.8602 H   0  0  0  0  0  0  0  0  0  0  0  0
    0.7103    5.3797    4.9278 H   0  0  0  0  0  0  0  0  0  0  0  0
   -3.0530    5.8081    2.5009 H   0  0  0  0  0  0  0  0  0  0  0  0
   -1.6093    5.1791    1.7693 H   0  0  0  0  0  0  0  0  0  0  0  0
   -1.5510    5.4950    3.4741 H   0  0  0  0  0  0  0  0  0  0  0  0
   -4.7279    4.2496    2.7349 H   0  0  0  0  0  0  0  0  0  0  0  0
   -4.3526    2.5456    2.5825 H   0  0  0  0  0  0  0  0  0  0  0  0
   -3.9415    3.6294    1.2834 H   0  0  0  0  0  0  0  0  0  0  0  0
  1  2  1  0
  1 30  1  0
  1 31  1  0
  1 32  1  0
  2  3  1  0
  3 25  1  0
  3  4  1  0
  3 33  1  1
  4  7  1  0
  4  5  1  0
  4 34  1  1
  5  6  1  0
  5  7  1  0
  5 35  1  6
  6 36  1  0
  6 37  1  0
  6 38  1  0
  7  8  1  1
  7 10  1  0
  8  9  1  0
  9 39  1  0
  9 40  1  0
  9 41  1  0
 10 17  1  0
 10 11  2  0
 11 12  1  0
 11 42  1  0
 12 13  2  0
 12 43  1  0
 13 14  1  0
 13 16  1  0
 14 15  2  0
 14 44  1  0
 16 17  1  0
 16 45  1  0
 16 46  1  0
 17 18  1  6
 17 19  1  0
 18 47  1  0
 18 48  1  0
 18 49  1  0
 19 20  1  0
 19 21  1  0
 19 50  1  6
 20 51  1  0
 21 25  1  0
 21 22  1  0
 21 52  1  6
 22 27  1  0
 22 23  1  0
 22 53  1  6
 23 24  1  0
 23 27  1  0
 23 54  1  1
 24 25  1  0
 24 55  1  0
 24 56  1  0
 25 26  1  6
 26 57  1  0
 26 58  1  0
 26 59  1  0
 27 28  1  0
 27 29  1  0
 28 60  1  0
 28 61  1  0
 28 62  1  0
 29 63  1  0
 29 64  1  0
 29 65  1  0
M  END
>  <i_m_ct_stereo_status>  (367) 
1

>  <s_m_source_file>  (367) 
/var/tmp/pbs.5076255.sched01/tmpgahbdy6u/1388ql836nh.sdf

>  <i_m_source_file_index>  (367) 
11

>  <i_lp_mmshare_version>  (367) 
48012

>  <i_f3d_flags>  (367) 
0

>  <s_epik_input>  (367) 
W0NIM11PW0NAQF0xMltDQEBIXShbQ0BIXTFbQ0gzXSlbQ0BASF0oT1tDSDNdKVtDQEBdMyhbQ0gzXSlbQ0BIXShbQ0BIXTRbQ0BASF0oW0NIMl0zKUM0KFtDSDNdKVtDSDNdKVtDQEhdKFtPSF0pW0NAQF01KFtDSDNdKUMyPVtDSF1bQ0hdPUMoW0NIXT1PKVtDSDJdNQ==

>  <s_epik_cmdline>  (367) 
J2VwaWtfcHl0aG9uJywgJy1waHQnLCAnMi4wJywgJy1waCcsICc3LjAnLCAnLXRuJywgJzgnLCAnLW1hJywgJzIwMCcsICctaW1hZScsICc8aW5maWxlLm1hZT4nLCAnLW9tYWUnLCAnPG91dGZpbGUubWFlPic=

>  <r_lp_tautomer_probability>  (367) 
1

>  <r_epik_Ionization_Penalty>  (367) 
4.49139e-08

>  <r_epik_Ionization_Penalty_Charging>  (367) 
0

>  <r_epik_Ionization_Penalty_Neutral>  (367) 
4.49139e-08

>  <r_epik_State_Penalty>  (367) 
-0

>  <r_epik_Charging_Adjusted_Penalty>  (367) 
0

>  <i_epik_Tot_Q>  (367) 
0

>  <i_epik_Tot_abs_Q>  (367) 
0

>  <s_lp_Force_Field>  (367) 
OPLS3e

>  <r_lp_Energy>  (367) 
71.9956

>  <b_lp_Chiralities_Consistent>  (367) 
1

>  <s_lp_Variant>  (367) 
94:0-1

>  <s_i_glide_gridfile>  (367) 
pfpi4k_grid

>  <i_i_glide_lignum>  (367) 
11

>  <i_i_glide_rotatable_bonds>  (367) 
4

>  <r_i_docking_score>  (367) 
-2.33083

>  <r_i_glide_ligand_efficiency>  (367) 
-0.0803735

>  <r_i_glide_ligand_efficiency_sa>  (367) 
-0.246933

>  <r_i_glide_ligand_efficiency_ln>  (367) 
-0.533701

>  <r_i_glide_gscore>  (367) 
-2.33083

>  <r_i_glide_lipo>  (367) 
-0.294759

>  <r_i_glide_hbond>  (367) 
0

>  <r_i_glide_metal>  (367) 
-0

>  <r_i_glide_rewards>  (367) 
-0.678062

>  <r_i_glide_evdw>  (367) 
-17.6227

>  <r_i_glide_ecoul>  (367) 
-3.10307

>  <r_i_glide_erotb>  (367) 
0

>  <r_i_glide_esite>  (367) 
-0.0114147

>  <r_i_glide_emodel>  (367) 
-21.3179

>  <r_i_glide_energy>  (367) 
-20.7258

>  <r_i_glide_einternal>  (367) 
4.33993

>  <r_i_glide_intrahb_reward>  (367) 
-0

>  <i_i_glide_confnum>  (367) 
1

>  <i_i_glide_posenum>  (367) 
3

>  <r_i_glide_eff_state_penalty>  (367) 
0

>  <ligand_id>  (367) 
94

>  <original_smiles>  (367) 
COC1C2C(C)C2(OC)C2=CC=C(C=O)CC2(C)C(O)C2C3C(CC12C)C3(C)C

>  <smiles>  (367) 
[H]OC1([H])C2([H])C3([H])C([H])(C([H])([H])C2(C([H])([H])[H])C([H])(OC([H])([H])[H])C2([H])C(OC([H])([H])[H])(C4=C([H])C([H])=C(C([H])=O)C([H])([H])C41C([H])([H])[H])C2([H])C([H])([H])[H])C3(C([H])([H])[H])C([H])([H])[H]

$$$$
96:0:0
     RDKit          3D

 48 54  0  0  1  0  0  0  0  0999 V2000
    2.2159   -0.7348    4.6859 C   0  0  0  0  0  0  0  0  0  0  0  0
    3.6683   -0.7893    4.1643 C   0  0  2  0  0  0  0  0  0  0  0  0
    3.8835   -0.1929    2.7257 C   0  0  0  0  0  0  0  0  0  0  0  0
    2.9643   -0.5831    1.5114 C   0  0  0  0  0  0  0  0  0  0  0  0
    3.1114   -2.0016    0.8584 C   0  0  2  0  0  0  0  0  0  0  0  0
    3.3239   -2.9488    1.9804 C   0  0  0  0  0  0  0  0  0  0  0  0
    4.8265   -3.2780    2.3550 C   0  0  1  0  0  0  0  0  0  0  0  0
    5.2929   -2.5478    3.4962 O   0  0  0  0  0  0  0  0  0  0  0  0
    4.4074   -2.1536    4.5016 C   0  0  2  0  0  0  0  0  0  0  0  0
    3.5020   -3.1452    4.8992 O   0  0  0  0  0  0  0  0  0  0  0  0
    4.0127   -4.4478    4.8548 C   0  0  0  0  0  0  0  0  0  0  0  0
    3.7876   -5.0832    3.6221 O   0  0  0  0  0  0  0  0  0  0  0  0
    4.7394   -4.8133    2.6234 C   0  0  1  0  0  0  0  0  0  0  0  0
    4.4139   -5.5569    1.4232 O   0  0  0  0  0  0  0  0  0  0  0  0
    3.9646   -5.0108    0.1263 C   0  0  0  0  0  0  0  0  0  0  0  0
    4.7439   -3.7620   -0.3070 C   0  0  2  0  0  0  0  0  0  0  0  0
    5.8341   -3.8583   -1.1844 O   0  0  0  0  0  0  0  0  0  0  0  0
    6.1391   -3.9993    0.2296 C   0  0  1  0  0  0  0  0  0  0  0  0
    6.0978   -3.0313    1.3892 C   0  0  1  0  0  0  0  0  0  0  0  0
    6.2490   -1.6245    0.8535 C   0  0  1  0  0  0  0  0  0  0  0  0
    6.5725   -1.4844   -0.5483 O   0  0  0  0  0  0  0  0  0  0  0  0
    5.2196   -1.2465   -0.1400 C   0  0  1  0  0  0  0  0  0  0  0  0
    4.1104   -2.2938   -0.3223 C   0  0  2  0  0  0  0  0  0  0  0  0
    3.4265   -2.0594   -1.6825 C   0  0  0  0  0  0  0  0  0  0  0  0
    1.5449   -1.4006    4.1459 H   0  0  0  0  0  0  0  0  0  0  0  0
    1.8113    0.2731    4.5934 H   0  0  0  0  0  0  0  0  0  0  0  0
    2.1656   -1.0042    5.7409 H   0  0  0  0  0  0  0  0  0  0  0  0
    4.1967   -0.0779    4.8000 H   0  0  0  0  0  0  0  0  0  0  0  0
    3.6996    0.8752    2.8531 H   0  0  0  0  0  0  0  0  0  0  0  0
    4.9354   -0.2144    2.4776 H   0  0  0  0  0  0  0  0  0  0  0  0
    1.9331   -0.4864    1.8507 H   0  0  0  0  0  0  0  0  0  0  0  0
    3.0425    0.1803    0.7412 H   0  0  0  0  0  0  0  0  0  0  0  0
    2.1189   -2.2441    0.4792 H   0  0  0  0  0  0  0  0  0  0  0  0
    2.6945   -2.6464    2.8003 H   0  0  0  0  0  0  0  0  0  0  0  0
    2.7231   -3.8282    1.7855 H   0  0  0  0  0  0  0  0  0  0  0  0
    5.0534   -2.0000    5.3673 H   0  0  0  0  0  0  0  0  0  0  0  0
    5.0467   -4.5173    5.2017 H   0  0  0  0  0  0  0  0  0  0  0  0
    3.4070   -5.0013    5.5712 H   0  0  0  0  0  0  0  0  0  0  0  0
    5.6969   -5.2023    2.9767 H   0  0  0  0  0  0  0  0  0  0  0  0
    4.1995   -5.7877   -0.5996 H   0  0  0  0  0  0  0  0  0  0  0  0
    2.8903   -4.8664    0.0303 H   0  0  0  0  0  0  0  0  0  0  0  0
    6.5079   -4.9999    0.4591 H   0  0  0  0  0  0  0  0  0  0  0  0
    6.9992   -3.2444    1.9591 H   0  0  0  0  0  0  0  0  0  0  0  0
    6.7097   -0.8745    1.4931 H   0  0  0  0  0  0  0  0  0  0  0  0
    4.9375   -0.2029   -0.2535 H   0  0  0  0  0  0  0  0  0  0  0  0
    4.1305   -2.1556   -2.5134 H   0  0  0  0  0  0  0  0  0  0  0  0
    2.9995   -1.0573   -1.7387 H   0  0  0  0  0  0  0  0  0  0  0  0
    2.6194   -2.7753   -1.8519 H   0  0  0  0  0  0  0  0  0  0  0  0
  1  2  1  0
  1 25  1  0
  1 26  1  0
  1 27  1  0
  2  9  1  0
  2  3  1  0
  2 28  1  1
  3  4  1  0
  3 29  1  0
  3 30  1  0
  4  5  1  0
  4 31  1  0
  4 32  1  0
  5 23  1  0
  5  6  1  0
  5 33  1  6
  6  7  1  0
  6 34  1  0
  6 35  1  0
  7 13  1  0
  7 19  1  0
  7  8  1  1
  8  9  1  0
  9 10  1  0
  9 36  1  1
 10 11  1  0
 11 12  1  0
 11 37  1  0
 11 38  1  0
 12 13  1  0
 13 14  1  0
 13 39  1  1
 14 15  1  0
 15 16  1  0
 15 40  1  0
 15 41  1  0
 16 18  1  0
 16 23  1  0
 16 17  1  6
 17 18  1  0
 18 19  1  0
 18 42  1  6
 19 20  1  0
 19 43  1  1
 20 22  1  0
 20 21  1  0
 20 44  1  1
 21 22  1  0
 22 23  1  0
 22 45  1  1
 23 24  1  6
 24 46  1  0
 24 47  1  0
 24 48  1  0
M  END
>  <i_m_ct_stereo_status>  (368) 
1

>  <s_m_source_file>  (368) 
/var/tmp/pbs.5076255.sched01/tmpgahbdy6u/1388ql836nh.sdf

>  <i_m_source_file_index>  (368) 
14

>  <i_lp_mmshare_version>  (368) 
48012

>  <i_f3d_flags>  (368) 
0

>  <s_epik_input>  (368) 
W0NAXTEyM1tDQEhdNE9bQ0gyXU9bQ0BASF0oTzIpW0NASF0oW0NIM10pW0NIMl1bQ0gyXVtDQEhdKFtDSDJdMSlbQ0BdNShbQ0gzXSlbQ0BdNihbQ0gyXU80KVtDQEBIXShPNilbQ0BIXTNbQ0BASF03W0NASF01Tzc=

>  <s_epik_cmdline>  (368) 
J2VwaWtfcHl0aG9uJywgJy1waHQnLCAnMi4wJywgJy1waCcsICc3LjAnLCAnLXRuJywgJzgnLCAnLW1hJywgJzIwMCcsICctaW1hZScsICc8aW5maWxlLm1hZT4nLCAnLW9tYWUnLCAnPG91dGZpbGUubWFlPic=

>  <r_lp_tautomer_probability>  (368) 
1

>  <r_epik_Ionization_Penalty>  (368) 
2.70576e-12

>  <r_epik_Ionization_Penalty_Charging>  (368) 
0

>  <r_epik_Ionization_Penalty_Neutral>  (368) 
2.70576e-12

>  <r_epik_State_Penalty>  (368) 
-0

>  <r_epik_Charging_Adjusted_Penalty>  (368) 
0

>  <i_epik_Tot_Q>  (368) 
0

>  <i_epik_Tot_abs_Q>  (368) 
0

>  <s_epik_Chemistry_Notes>  (368) 
This compound contains an acetal/aminal-like group ( X-CH(R)-Y where X, Y are N, S, or O) that may be acid/base labile, releasing an aldehyde.

>  <s_lp_Force_Field>  (368) 
OPLS3e

>  <r_lp_Energy>  (368) 
125.836

>  <b_lp_Chiralities_Consistent>  (368) 
1

>  <s_lp_Variant>  (368) 
96:0-1

>  <s_i_glide_gridfile>  (368) 
pfpi4k_grid

>  <i_i_glide_lignum>  (368) 
14

>  <i_i_glide_rotatable_bonds>  (368) 
0

>  <r_i_docking_score>  (368) 
-3.12037

>  <r_i_glide_ligand_efficiency>  (368) 
-0.130016

>  <r_i_glide_ligand_efficiency_sa>  (368) 
-0.37503

>  <r_i_glide_ligand_efficiency_ln>  (368) 
-0.746849

>  <r_i_glide_gscore>  (368) 
-3.12037

>  <r_i_glide_lipo>  (368) 
-0.39629

>  <r_i_glide_hbond>  (368) 
-0.123663

>  <r_i_glide_metal>  (368) 
-0

>  <r_i_glide_rewards>  (368) 
-1.14472

>  <r_i_glide_evdw>  (368) 
-19.858

>  <r_i_glide_ecoul>  (368) 
-3.08533

>  <r_i_glide_erotb>  (368) 
0

>  <r_i_glide_esite>  (368) 
0

>  <r_i_glide_emodel>  (368) 
-27.9014

>  <r_i_glide_energy>  (368) 
-22.9434

>  <r_i_glide_einternal>  (368) 
0

>  <r_i_glide_intrahb_reward>  (368) 
-0

>  <i_i_glide_confnum>  (368) 
1

>  <i_i_glide_posenum>  (368) 
25

>  <r_i_glide_eff_state_penalty>  (368) 
0

>  <ligand_id>  (368) 
96

>  <original_smiles>  (368) 
CC1CCC2CC34OC1OCOC3OCC13OC1C4C1OC1C23C

>  <smiles>  (368) 
[H]C1([H])OC2([H])OC34C([H])(O1)OC([H])([H])C15OC1([H])C3([H])C1([H])OC1([H])C5(C([H])([H])[H])C([H])(C([H])([H])C([H])([H])C2([H])C([H])([H])[H])C4([H])[H]

$$$$
96:0:1
     RDKit          3D

 48 54  0  0  1  0  0  0  0  0999 V2000
    1.1110   -1.6698    3.6947 C   0  0  0  0  0  0  0  0  0  0  0  0
    2.6545   -1.6870    3.7509 C   0  0  2  0  0  0  0  0  0  0  0  0
    3.3738   -0.6788    2.7815 C   0  0  0  0  0  0  0  0  0  0  0  0
    2.9933   -0.5671    1.2633 C   0  0  0  0  0  0  0  0  0  0  0  0
    3.4176   -1.7075    0.2688 C   0  0  2  0  0  0  0  0  0  0  0  0
    3.2233   -2.9839    1.0020 C   0  0  0  0  0  0  0  0  0  0  0  0
    4.4856   -3.5547    1.7648 C   0  0  1  0  0  0  0  0  0  0  0  0
    4.4711   -3.2765    3.1700 O   0  0  0  0  0  0  0  0  0  0  0  0
    3.2623   -3.1493    3.8569 C   0  0  2  0  0  0  0  0  0  0  0  0
    2.3107   -4.1285    3.5424 O   0  0  0  0  0  0  0  0  0  0  0  0
    2.8500   -5.3884    3.2552 C   0  0  0  0  0  0  0  0  0  0  0  0
    3.1237   -5.5692    1.8886 O   0  0  0  0  0  0  0  0  0  0  0  0
    4.3697   -5.0793    1.4592 C   0  0  1  0  0  0  0  0  0  0  0  0
    4.5593   -5.3615    0.0533 O   0  0  0  0  0  0  0  0  0  0  0  0
    4.6029   -4.3829   -1.0541 C   0  0  0  0  0  0  0  0  0  0  0  0
    5.4393   -3.1437   -0.7390 C   0  0  2  0  0  0  0  0  0  0  0  0
    6.7810   -3.0588   -1.1414 O   0  0  0  0  0  0  0  0  0  0  0  0
    6.5383   -3.6683    0.1585 C   0  0  1  0  0  0  0  0  0  0  0  0
    6.0097   -3.1270    1.4702 C   0  0  1  0  0  0  0  0  0  0  0  0
    6.2935   -1.6409    1.5218 C   0  0  1  0  0  0  0  0  0  0  0  0
    7.1214   -1.0966    0.4695 O   0  0  0  0  0  0  0  0  0  0  0  0
    5.7088   -0.8689    0.4076 C   0  0  1  0  0  0  0  0  0  0  0  0
    4.7920   -1.6991   -0.4958 C   0  0  2  0  0  0  0  0  0  0  0  0
    4.6430   -0.9915   -1.8502 C   0  0  0  0  0  0  0  0  0  0  0  0
    0.7152   -2.0619    2.7600 H   0  0  0  0  0  0  0  0  0  0  0  0
    0.7325   -0.6536    3.8016 H   0  0  0  0  0  0  0  0  0  0  0  0
    0.6808   -2.2596    4.5040 H   0  0  0  0  0  0  0  0  0  0  0  0
    2.8807   -1.2712    4.7330 H   0  0  0  0  0  0  0  0  0  0  0  0
    3.1124    0.3031    3.1785 H   0  0  0  0  0  0  0  0  0  0  0  0
    4.4415   -0.7137    2.9433 H   0  0  0  0  0  0  0  0  0  0  0  0
    1.9063   -0.4951    1.2306 H   0  0  0  0  0  0  0  0  0  0  0  0
    3.3176    0.3989    0.8799 H   0  0  0  0  0  0  0  0  0  0  0  0
    2.6565   -1.7154   -0.5114 H   0  0  0  0  0  0  0  0  0  0  0  0
    2.3240   -2.9021    1.5878 H   0  0  0  0  0  0  0  0  0  0  0  0
    2.7731   -3.6946    0.3214 H   0  0  0  0  0  0  0  0  0  0  0  0
    3.5342   -3.3438    4.8957 H   0  0  0  0  0  0  0  0  0  0  0  0
    3.6847   -5.6579    3.9082 H   0  0  0  0  0  0  0  0  0  0  0  0
    2.0455   -6.0871    3.4784 H   0  0  0  0  0  0  0  0  0  0  0  0
    5.1391   -5.6450    1.9916 H   0  0  0  0  0  0  0  0  0  0  0  0
    5.0920   -4.9000   -1.8760 H   0  0  0  0  0  0  0  0  0  0  0  0
    3.6350   -4.1073   -1.4656 H   0  0  0  0  0  0  0  0  0  0  0  0
    6.8281   -4.7191    0.1619 H   0  0  0  0  0  0  0  0  0  0  0  0
    6.6139   -3.6014    2.2352 H   0  0  0  0  0  0  0  0  0  0  0  0
    6.4646   -1.1809    2.4917 H   0  0  0  0  0  0  0  0  0  0  0  0
    5.4553    0.1773    0.5553 H   0  0  0  0  0  0  0  0  0  0  0  0
    5.6159   -0.8693   -2.3208 H   0  0  0  0  0  0  0  0  0  0  0  0
    4.2141    0.0057   -1.7361 H   0  0  0  0  0  0  0  0  0  0  0  0
    3.9951   -1.5473   -2.5334 H   0  0  0  0  0  0  0  0  0  0  0  0
  1  2  1  0
  1 25  1  0
  1 26  1  0
  1 27  1  0
  2  9  1  0
  2  3  1  0
  2 28  1  1
  3  4  1  0
  3 29  1  0
  3 30  1  0
  4  5  1  0
  4 31  1  0
  4 32  1  0
  5 23  1  0
  5  6  1  0
  5 33  1  6
  6  7  1  0
  6 34  1  0
  6 35  1  0
  7 13  1  0
  7 19  1  0
  7  8  1  1
  8  9  1  0
  9 10  1  0
  9 36  1  1
 10 11  1  0
 11 12  1  0
 11 37  1  0
 11 38  1  0
 12 13  1  0
 13 14  1  0
 13 39  1  1
 14 15  1  0
 15 16  1  0
 15 40  1  0
 15 41  1  0
 16 18  1  0
 16 23  1  0
 16 17  1  6
 17 18  1  0
 18 19  1  0
 18 42  1  1
 19 20  1  0
 19 43  1  1
 20 22  1  0
 20 21  1  0
 20 44  1  1
 21 22  1  0
 22 23  1  0
 22 45  1  1
 23 24  1  6
 24 46  1  0
 24 47  1  0
 24 48  1  0
M  END
>  <i_m_ct_stereo_status>  (369) 
1

>  <s_m_source_file>  (369) 
/var/tmp/pbs.5076255.sched01/tmpgahbdy6u/1388ql836nh.sdf

>  <i_m_source_file_index>  (369) 
14

>  <i_lp_mmshare_version>  (369) 
48012

>  <i_f3d_flags>  (369) 
0

>  <s_epik_input>  (369) 
W0NAXTEyM1tDQEhdNE9bQ0gyXU9bQ0BASF0oTzIpW0NASF0oW0NIM10pW0NIMl1bQ0gyXVtDQEhdKFtDSDJdMSlbQ0BdNShbQ0gzXSlbQ0BdNihbQ0gyXU80KVtDQEBIXShPNilbQ0BIXTNbQ0BASF03W0NASF01Tzc=

>  <s_epik_cmdline>  (369) 
J2VwaWtfcHl0aG9uJywgJy1waHQnLCAnMi4wJywgJy1waCcsICc3LjAnLCAnLXRuJywgJzgnLCAnLW1hJywgJzIwMCcsICctaW1hZScsICc8aW5maWxlLm1hZT4nLCAnLW9tYWUnLCAnPG91dGZpbGUubWFlPic=

>  <r_lp_tautomer_probability>  (369) 
1

>  <r_epik_Ionization_Penalty>  (369) 
2.70576e-12

>  <r_epik_Ionization_Penalty_Charging>  (369) 
0

>  <r_epik_Ionization_Penalty_Neutral>  (369) 
2.70576e-12

>  <r_epik_State_Penalty>  (369) 
-0

>  <r_epik_Charging_Adjusted_Penalty>  (369) 
0

>  <i_epik_Tot_Q>  (369) 
0

>  <i_epik_Tot_abs_Q>  (369) 
0

>  <s_epik_Chemistry_Notes>  (369) 
This compound contains an acetal/aminal-like group ( X-CH(R)-Y where X, Y are N, S, or O) that may be acid/base labile, releasing an aldehyde.

>  <s_lp_Force_Field>  (369) 
OPLS3e

>  <r_lp_Energy>  (369) 
125.836

>  <b_lp_Chiralities_Consistent>  (369) 
1

>  <s_lp_Variant>  (369) 
96:0-1

>  <s_i_glide_gridfile>  (369) 
pfpi4k_grid

>  <i_i_glide_lignum>  (369) 
14

>  <i_i_glide_rotatable_bonds>  (369) 
0

>  <r_i_docking_score>  (369) 
-3.0106

>  <r_i_glide_ligand_efficiency>  (369) 
-0.125442

>  <r_i_glide_ligand_efficiency_sa>  (369) 
-0.361836

>  <r_i_glide_ligand_efficiency_ln>  (369) 
-0.720575

>  <r_i_glide_gscore>  (369) 
-3.0106

>  <r_i_glide_lipo>  (369) 
-0.519609

>  <r_i_glide_hbond>  (369) 
-0.0242435

>  <r_i_glide_metal>  (369) 
-0

>  <r_i_glide_rewards>  (369) 
-1.15125

>  <r_i_glide_evdw>  (369) 
-21.6642

>  <r_i_glide_ecoul>  (369) 
-1.54497

>  <r_i_glide_erotb>  (369) 
0

>  <r_i_glide_esite>  (369) 
-0.000536447

>  <r_i_glide_emodel>  (369) 
-27.9798

>  <r_i_glide_energy>  (369) 
-23.2092

>  <r_i_glide_einternal>  (369) 
0

>  <r_i_glide_intrahb_reward>  (369) 
-0

>  <i_i_glide_confnum>  (369) 
1

>  <i_i_glide_posenum>  (369) 
22

>  <r_i_glide_eff_state_penalty>  (369) 
0

>  <ligand_id>  (369) 
96

>  <original_smiles>  (369) 
CC1CCC2CC34OC1OCOC3OCC13OC1C4C1OC1C23C

>  <smiles>  (369) 
[H]C1([H])OC2([H])OC34C([H])(O1)OC([H])([H])C15OC1([H])C3([H])C1([H])OC1([H])C5(C([H])([H])[H])C([H])(C([H])([H])C([H])([H])C2([H])C([H])([H])[H])C4([H])[H]

$$$$
96:0:2
     RDKit          3D

 48 54  0  0  1  0  0  0  0  0999 V2000
    3.6014   -0.5628    4.6207 C   0  0  0  0  0  0  0  0  0  0  0  0
    4.6717   -1.4830    3.9976 C   0  0  2  0  0  0  0  0  0  0  0  0
    5.4069   -0.8969    2.7347 C   0  0  0  0  0  0  0  0  0  0  0  0
    4.6226   -0.2570    1.5290 C   0  0  0  0  0  0  0  0  0  0  0  0
    3.8370   -1.1827    0.5401 C   0  0  2  0  0  0  0  0  0  0  0  0
    3.2147   -2.2386    1.3841 C   0  0  0  0  0  0  0  0  0  0  0  0
    4.0306   -3.5883    1.5651 C   0  0  1  0  0  0  0  0  0  0  0  0
    4.7283   -3.6647    2.8136 O   0  0  0  0  0  0  0  0  0  0  0  0
    4.2341   -3.0091    3.9416 C   0  0  2  0  0  0  0  0  0  0  0  0
    2.8557   -3.1567    4.1418 O   0  0  0  0  0  0  0  0  0  0  0  0
    2.3451   -4.4007    3.7533 C   0  0  0  0  0  0  0  0  0  0  0  0
    1.8959   -4.4193    2.4239 O   0  0  0  0  0  0  0  0  0  0  0  0
    2.8889   -4.6530    1.4548 C   0  0  1  0  0  0  0  0  0  0  0  0
    2.2843   -4.6713    0.1377 O   0  0  0  0  0  0  0  0  0  0  0  0
    2.4949   -3.6930   -0.9481 C   0  0  0  0  0  0  0  0  0  0  0  0
    3.9620   -3.2732   -1.1156 C   0  0  2  0  0  0  0  0  0  0  0  0
    4.7922   -3.8928   -2.0614 O   0  0  0  0  0  0  0  0  0  0  0  0
    4.7450   -4.5149   -0.7461 C   0  0  1  0  0  0  0  0  0  0  0  0
    5.2389   -4.0789    0.6106 C   0  0  1  0  0  0  0  0  0  0  0  0
    6.3710   -3.0935    0.4156 C   0  0  1  0  0  0  0  0  0  0  0  0
    6.8618   -2.8899   -0.9317 O   0  0  0  0  0  0  0  0  0  0  0  0
    5.9960   -1.8988   -0.3720 C   0  0  1  0  0  0  0  0  0  0  0  0
    4.5042   -1.8182   -0.7348 C   0  0  2  0  0  0  0  0  0  0  0  0
    4.3268   -0.8945   -1.9537 C   0  0  0  0  0  0  0  0  0  0  0  0
    2.7268   -0.4369    3.9846 H   0  0  0  0  0  0  0  0  0  0  0  0
    4.0091    0.4309    4.8071 H   0  0  0  0  0  0  0  0  0  0  0  0
    3.2561   -0.9511    5.5786 H   0  0  0  0  0  0  0  0  0  0  0  0
    5.4592   -1.5019    4.7513 H   0  0  0  0  0  0  0  0  0  0  0  0
    5.9903   -0.0662    3.1364 H   0  0  0  0  0  0  0  0  0  0  0  0
    6.1825   -1.5823    2.4192 H   0  0  0  0  0  0  0  0  0  0  0  0
    3.9046    0.4422    1.9598 H   0  0  0  0  0  0  0  0  0  0  0  0
    5.2915    0.3868    0.9588 H   0  0  0  0  0  0  0  0  0  0  0  0
    3.0099   -0.5704    0.1708 H   0  0  0  0  0  0  0  0  0  0  0  0
    2.8666   -1.7806    2.2942 H   0  0  0  0  0  0  0  0  0  0  0  0
    2.2045   -2.3888    1.0259 H   0  0  0  0  0  0  0  0  0  0  0  0
    4.6971   -3.5421    4.7733 H   0  0  0  0  0  0  0  0  0  0  0  0
    3.0064   -5.2350    3.9996 H   0  0  0  0  0  0  0  0  0  0  0  0
    1.4457   -4.5230    4.3555 H   0  0  0  0  0  0  0  0  0  0  0  0
    3.2749   -5.6599    1.6340 H   0  0  0  0  0  0  0  0  0  0  0  0
    2.1985   -4.2033   -1.8635 H   0  0  0  0  0  0  0  0  0  0  0  0
    1.8351   -2.8350   -0.9218 H   0  0  0  0  0  0  0  0  0  0  0  0
    4.3004   -5.5084   -0.7835 H   0  0  0  0  0  0  0  0  0  0  0  0
    5.6754   -4.9747    1.0521 H   0  0  0  0  0  0  0  0  0  0  0  0
    7.1402   -3.0376    1.1835 H   0  0  0  0  0  0  0  0  0  0  0  0
    6.5153   -0.9598   -0.1956 H   0  0  0  0  0  0  0  0  0  0  0  0
    4.8780   -1.2535   -2.8241 H   0  0  0  0  0  0  0  0  0  0  0  0
    4.6740    0.1159   -1.7402 H   0  0  0  0  0  0  0  0  0  0  0  0
    3.2732   -0.8098   -2.2380 H   0  0  0  0  0  0  0  0  0  0  0  0
  1  2  1  0
  1 25  1  0
  1 26  1  0
  1 27  1  0
  2  9  1  0
  2  3  1  0
  2 28  1  1
  3  4  1  0
  3 29  1  0
  3 30  1  0
  4  5  1  0
  4 31  1  0
  4 32  1  0
  5 23  1  0
  5  6  1  0
  5 33  1  6
  6  7  1  0
  6 34  1  0
  6 35  1  0
  7 13  1  0
  7 19  1  0
  7  8  1  1
  8  9  1  0
  9 10  1  0
  9 36  1  1
 10 11  1  0
 11 12  1  0
 11 37  1  0
 11 38  1  0
 12 13  1  0
 13 14  1  0
 13 39  1  1
 14 15  1  0
 15 16  1  0
 15 40  1  0
 15 41  1  0
 16 18  1  0
 16 23  1  0
 16 17  1  6
 17 18  1  0
 18 19  1  0
 18 42  1  6
 19 20  1  0
 19 43  1  1
 20 22  1  0
 20 21  1  0
 20 44  1  1
 21 22  1  0
 22 23  1  0
 22 45  1  1
 23 24  1  6
 24 46  1  0
 24 47  1  0
 24 48  1  0
M  END
>  <i_m_ct_stereo_status>  (370) 
1

>  <s_m_source_file>  (370) 
/var/tmp/pbs.5076255.sched01/tmpgahbdy6u/1388ql836nh.sdf

>  <i_m_source_file_index>  (370) 
14

>  <i_lp_mmshare_version>  (370) 
48012

>  <i_f3d_flags>  (370) 
0

>  <s_epik_input>  (370) 
W0NAXTEyM1tDQEhdNE9bQ0gyXU9bQ0BASF0oTzIpW0NASF0oW0NIM10pW0NIMl1bQ0gyXVtDQEhdKFtDSDJdMSlbQ0BdNShbQ0gzXSlbQ0BdNihbQ0gyXU80KVtDQEBIXShPNilbQ0BIXTNbQ0BASF03W0NASF01Tzc=

>  <s_epik_cmdline>  (370) 
J2VwaWtfcHl0aG9uJywgJy1waHQnLCAnMi4wJywgJy1waCcsICc3LjAnLCAnLXRuJywgJzgnLCAnLW1hJywgJzIwMCcsICctaW1hZScsICc8aW5maWxlLm1hZT4nLCAnLW9tYWUnLCAnPG91dGZpbGUubWFlPic=

>  <r_lp_tautomer_probability>  (370) 
1

>  <r_epik_Ionization_Penalty>  (370) 
2.70576e-12

>  <r_epik_Ionization_Penalty_Charging>  (370) 
0

>  <r_epik_Ionization_Penalty_Neutral>  (370) 
2.70576e-12

>  <r_epik_State_Penalty>  (370) 
-0

>  <r_epik_Charging_Adjusted_Penalty>  (370) 
0

>  <i_epik_Tot_Q>  (370) 
0

>  <i_epik_Tot_abs_Q>  (370) 
0

>  <s_epik_Chemistry_Notes>  (370) 
This compound contains an acetal/aminal-like group ( X-CH(R)-Y where X, Y are N, S, or O) that may be acid/base labile, releasing an aldehyde.

>  <s_lp_Force_Field>  (370) 
OPLS3e

>  <r_lp_Energy>  (370) 
125.836

>  <b_lp_Chiralities_Consistent>  (370) 
1

>  <s_lp_Variant>  (370) 
96:0-1

>  <s_i_glide_gridfile>  (370) 
pfpi4k_grid

>  <i_i_glide_lignum>  (370) 
14

>  <i_i_glide_rotatable_bonds>  (370) 
0

>  <r_i_docking_score>  (370) 
-2.82128

>  <r_i_glide_ligand_efficiency>  (370) 
-0.117553

>  <r_i_glide_ligand_efficiency_sa>  (370) 
-0.339082

>  <r_i_glide_ligand_efficiency_ln>  (370) 
-0.675262

>  <r_i_glide_gscore>  (370) 
-2.82128

>  <r_i_glide_lipo>  (370) 
-0.410459

>  <r_i_glide_hbond>  (370) 
-0.00291515

>  <r_i_glide_metal>  (370) 
-0

>  <r_i_glide_rewards>  (370) 
-1.12324

>  <r_i_glide_evdw>  (370) 
-22.5877

>  <r_i_glide_ecoul>  (370) 
-0.984459

>  <r_i_glide_erotb>  (370) 
0

>  <r_i_glide_esite>  (370) 
-0.00761008

>  <r_i_glide_emodel>  (370) 
-28.0589

>  <r_i_glide_energy>  (370) 
-23.5722

>  <r_i_glide_einternal>  (370) 
0

>  <r_i_glide_intrahb_reward>  (370) 
-0

>  <i_i_glide_confnum>  (370) 
1

>  <i_i_glide_posenum>  (370) 
1

>  <r_i_glide_eff_state_penalty>  (370) 
0

>  <ligand_id>  (370) 
96

>  <original_smiles>  (370) 
CC1CCC2CC34OC1OCOC3OCC13OC1C4C1OC1C23C

>  <smiles>  (370) 
[H]C1([H])OC2([H])OC34C([H])(O1)OC([H])([H])C15OC1([H])C3([H])C1([H])OC1([H])C5(C([H])([H])[H])C([H])(C([H])([H])C([H])([H])C2([H])C([H])([H])[H])C4([H])[H]

$$$$
97:0:0
     RDKit          3D

 28 30  0  0  1  0  0  0  0  0999 V2000
    2.8542   -3.1267   -3.0467 C   0  0  0  0  0  0  0  0  0  0  0  0
    3.1947   -3.2691   -1.5549 C   0  0  0  0  0  0  0  0  0  0  0  0
    4.6219   -3.0954   -1.3072 N   0  0  0  0  0  0  0  0  0  0  0  0
    5.3932   -2.1164   -1.8143 C   0  0  0  0  0  0  0  0  0  0  0  0
    6.6740   -2.1418   -1.4590 N   0  0  0  0  0  0  0  0  0  0  0  0
    6.7371   -3.2333   -0.6015 C   0  0  0  0  0  0  0  0  0  0  0  0
    5.5045   -3.8171   -0.4968 C   0  0  0  0  0  0  0  0  0  0  0  0
    5.3055   -4.9915    0.3469 C   0  0  0  0  0  0  0  0  0  0  0  0
    4.1866   -5.5979    0.5525 N   0  0  0  0  0  0  0  0  0  0  0  0
    4.4721   -6.7229    1.4260 C   0  0  0  0  0  0  0  0  0  0  0  0
    5.9909   -6.6988    1.6939 C   0  0  0  0  0  0  0  0  0  0  0  0
    6.4169   -5.5218    0.9816 N   0  0  0  0  0  0  0  0  0  0  0  0
    7.6845   -5.0325    0.8949 C   0  0  0  0  0  0  0  0  0  0  0  0
    8.6356   -5.6206    1.4035 O   0  0  0  0  0  0  0  0  0  0  0  0
    7.9584   -3.6895    0.1568 C   0  0  1  0  0  0  0  0  0  0  0  0
    9.0097   -3.8613   -0.7742 O   0  0  0  0  0  0  0  0  0  0  0  0
    1.7934   -3.2944   -3.2268 H   0  0  0  0  0  0  0  0  0  0  0  0
    3.4128   -3.8560   -3.6345 H   0  0  0  0  0  0  0  0  0  0  0  0
    3.0883   -2.1340   -3.4321 H   0  0  0  0  0  0  0  0  0  0  0  0
    2.6489   -2.5282   -0.9700 H   0  0  0  0  0  0  0  0  0  0  0  0
    2.8685   -4.2499   -1.2150 H   0  0  0  0  0  0  0  0  0  0  0  0
    5.0120   -1.3541   -2.4729 H   0  0  0  0  0  0  0  0  0  0  0  0
    3.9103   -6.6321    2.3578 H   0  0  0  0  0  0  0  0  0  0  0  0
    4.1727   -7.6648    0.9599 H   0  0  0  0  0  0  0  0  0  0  0  0
    6.2120   -6.6096    2.7591 H   0  0  0  0  0  0  0  0  0  0  0  0
    6.4856   -7.5854    1.2942 H   0  0  0  0  0  0  0  0  0  0  0  0
    8.2504   -2.9464    0.8988 H   0  0  0  0  0  0  0  0  0  0  0  0
    9.2373   -3.0408   -1.2008 H   0  0  0  0  0  0  0  0  0  0  0  0
  1  2  1  0
  1 17  1  0
  1 18  1  0
  1 19  1  0
  2  3  1  0
  2 20  1  0
  2 21  1  0
  3  7  1  0
  3  4  1  0
  4  5  2  0
  4 22  1  0
  5  6  1  0
  6 15  1  0
  6  7  2  0
  7  8  1  0
  8 12  1  0
  8  9  2  0
  9 10  1  0
 10 11  1  0
 10 23  1  0
 10 24  1  0
 11 12  1  0
 11 25  1  0
 11 26  1  0
 12 13  1  0
 13 14  2  0
 13 15  1  0
 15 16  1  0
 15 27  1  1
 16 28  1  0
M  END
>  <i_m_ct_stereo_status>  (371) 
1

>  <s_m_source_file>  (371) 
/var/tmp/pbs.5076255.sched01/tmpgahbdy6u/1388ql836nh.sdf

>  <i_m_source_file_index>  (371) 
15

>  <i_lp_mmshare_version>  (371) 
48012

>  <i_f3d_flags>  (371) 
0

>  <s_epik_input>  (371) 
W0NIM11bQ0gyXW4oW2NIXW4xKWMoYzEyKUM9M04oW0NIMl1bQ0gyXU4zKUMoPU8pW0NASF0yW09IXQ==

>  <s_epik_cmdline>  (371) 
J2VwaWtfcHl0aG9uJywgJy1waHQnLCAnMi4wJywgJy1waCcsICc3LjAnLCAnLXRuJywgJzgnLCAnLW1hJywgJzIwMCcsICctaW1hZScsICc8aW5maWxlLm1hZT4nLCAnLW9tYWUnLCAnPG91dGZpbGUubWFlPic=

>  <r_epik_Ionization_Penalty>  (371) 
0.227336

>  <r_epik_Ionization_Penalty_Charging>  (371) 
0.0456173

>  <r_epik_Ionization_Penalty_Neutral>  (371) 
0.181719

>  <r_epik_State_Penalty>  (371) 
0.330295

>  <r_epik_Charging_Adjusted_Penalty>  (371) 
0.375913

>  <i_epik_Tot_Q>  (371) 
0

>  <i_epik_Tot_abs_Q>  (371) 
0

>  <s_epik_Chemistry_Notes>  (371) 
This compound has an imine and may undergo hydrolysis.

>  <s_lp_Force_Field>  (371) 
OPLS3e

>  <r_lp_Energy>  (371) 
9.60306

>  <b_lp_Chiralities_Consistent>  (371) 
1

>  <s_lp_Variant>  (371) 
97:0-1

>  <s_i_glide_gridfile>  (371) 
pfpi4k_grid

>  <i_i_glide_lignum>  (371) 
15

>  <i_i_glide_rotatable_bonds>  (371) 
2

>  <r_i_docking_score>  (371) 
-4.964

>  <r_i_glide_ligand_efficiency>  (371) 
-0.31025

>  <r_i_glide_ligand_efficiency_sa>  (371) 
-0.781781

>  <r_i_glide_ligand_efficiency_ln>  (371) 
-1.31581

>  <r_i_glide_gscore>  (371) 
-4.964

>  <r_i_glide_lipo>  (371) 
-0.671143

>  <r_i_glide_hbond>  (371) 
-0.16

>  <r_i_glide_metal>  (371) 
-0

>  <r_i_glide_rewards>  (371) 
-2.32889

>  <r_i_glide_evdw>  (371) 
-20.8447

>  <r_i_glide_ecoul>  (371) 
-4.89921

>  <r_i_glide_erotb>  (371) 
0

>  <r_i_glide_esite>  (371) 
-0.0268527

>  <r_i_glide_emodel>  (371) 
-34.0354

>  <r_i_glide_energy>  (371) 
-25.7439

>  <r_i_glide_einternal>  (371) 
0.984513

>  <r_i_glide_intrahb_reward>  (371) 
-0

>  <i_i_glide_confnum>  (371) 
1

>  <i_i_glide_posenum>  (371) 
6

>  <r_i_glide_eff_state_penalty>  (371) 
0

>  <ligand_id>  (371) 
97

>  <original_smiles>  (371) 
CCn1cnc2c1C1=NCCN1C(=O)C2O

>  <smiles>  (371) 
[H]OC1([H])C(=O)N2C(=NC([H])([H])C2([H])[H])c2c1nc([H])n2C([H])([H])C([H])([H])[H]

$$$$
97:0:1
     RDKit          3D

 28 30  0  0  1  0  0  0  0  0999 V2000
    2.8121   -3.8133   -3.9208 C   0  0  0  0  0  0  0  0  0  0  0  0
    2.3365   -3.3387   -2.5445 C   0  0  0  0  0  0  0  0  0  0  0  0
    3.2834   -2.4065   -1.9563 N   0  0  0  0  0  0  0  0  0  0  0  0
    3.8873   -1.3904   -2.5975 C   0  0  0  0  0  0  0  0  0  0  0  0
    4.7319   -0.6684   -1.8720 N   0  0  0  0  0  0  0  0  0  0  0  0
    4.5990   -1.2344   -0.6059 C   0  0  0  0  0  0  0  0  0  0  0  0
    3.7401   -2.2921   -0.6424 C   0  0  0  0  0  0  0  0  0  0  0  0
    3.4403   -3.0700    0.5617 C   0  0  0  0  0  0  0  0  0  0  0  0
    2.6199   -4.0610    0.6472 N   0  0  0  0  0  0  0  0  0  0  0  0
    2.6865   -4.5436    2.0172 C   0  0  0  0  0  0  0  0  0  0  0  0
    3.7306   -3.6742    2.7458 C   0  0  0  0  0  0  0  0  0  0  0  0
    4.1141   -2.7342    1.7238 N   0  0  0  0  0  0  0  0  0  0  0  0
    5.0109   -1.7191    1.8410 C   0  0  0  0  0  0  0  0  0  0  0  0
    5.6552   -1.5393    2.8712 O   0  0  0  0  0  0  0  0  0  0  0  0
    5.2449   -0.7405    0.6583 C   0  0  1  0  0  0  0  0  0  0  0  0
    6.6255   -0.6608    0.3993 O   0  0  0  0  0  0  0  0  0  0  0  0
    2.1291   -4.5698   -4.2961 H   0  0  0  0  0  0  0  0  0  0  0  0
    3.8064   -4.2574   -3.8595 H   0  0  0  0  0  0  0  0  0  0  0  0
    2.8580   -3.0078   -4.6561 H   0  0  0  0  0  0  0  0  0  0  0  0
    1.3680   -2.8495   -2.6251 H   0  0  0  0  0  0  0  0  0  0  0  0
    2.1968   -4.2051   -1.8990 H   0  0  0  0  0  0  0  0  0  0  0  0
    3.7153   -1.1688   -3.6356 H   0  0  0  0  0  0  0  0  0  0  0  0
    1.7121   -4.4585    2.5020 H   0  0  0  0  0  0  0  0  0  0  0  0
    2.9730   -5.5977    2.0480 H   0  0  0  0  0  0  0  0  0  0  0  0
    3.3018   -3.1534    3.6041 H   0  0  0  0  0  0  0  0  0  0  0  0
    4.5941   -4.2595    3.0677 H   0  0  0  0  0  0  0  0  0  0  0  0
    4.8576    0.2430    0.9434 H   0  0  0  0  0  0  0  0  0  0  0  0
    7.0358   -0.1816    1.1028 H   0  0  0  0  0  0  0  0  0  0  0  0
  1  2  1  0
  1 17  1  0
  1 18  1  0
  1 19  1  0
  2  3  1  0
  2 20  1  0
  2 21  1  0
  3  7  1  0
  3  4  1  0
  4  5  2  0
  4 22  1  0
  5  6  1  0
  6 15  1  0
  6  7  2  0
  7  8  1  0
  8 12  1  0
  8  9  2  0
  9 10  1  0
 10 11  1  0
 10 23  1  0
 10 24  1  0
 11 12  1  0
 11 25  1  0
 11 26  1  0
 12 13  1  0
 13 14  2  0
 13 15  1  0
 15 16  1  0
 15 27  1  1
 16 28  1  0
M  END
>  <i_m_ct_stereo_status>  (372) 
1

>  <s_m_source_file>  (372) 
/var/tmp/pbs.5076255.sched01/tmpgahbdy6u/1388ql836nh.sdf

>  <i_m_source_file_index>  (372) 
15

>  <i_lp_mmshare_version>  (372) 
48012

>  <i_f3d_flags>  (372) 
0

>  <s_epik_input>  (372) 
W0NIM11bQ0gyXW4oW2NIXW4xKWMoYzEyKUM9M04oW0NIMl1bQ0gyXU4zKUMoPU8pW0NASF0yW09IXQ==

>  <s_epik_cmdline>  (372) 
J2VwaWtfcHl0aG9uJywgJy1waHQnLCAnMi4wJywgJy1waCcsICc3LjAnLCAnLXRuJywgJzgnLCAnLW1hJywgJzIwMCcsICctaW1hZScsICc8aW5maWxlLm1hZT4nLCAnLW9tYWUnLCAnPG91dGZpbGUubWFlPic=

>  <r_epik_Ionization_Penalty>  (372) 
0.227336

>  <r_epik_Ionization_Penalty_Charging>  (372) 
0.0456173

>  <r_epik_Ionization_Penalty_Neutral>  (372) 
0.181719

>  <r_epik_State_Penalty>  (372) 
0.330295

>  <r_epik_Charging_Adjusted_Penalty>  (372) 
0.375913

>  <i_epik_Tot_Q>  (372) 
0

>  <i_epik_Tot_abs_Q>  (372) 
0

>  <s_epik_Chemistry_Notes>  (372) 
This compound has an imine and may undergo hydrolysis.

>  <s_lp_Force_Field>  (372) 
OPLS3e

>  <r_lp_Energy>  (372) 
9.60306

>  <b_lp_Chiralities_Consistent>  (372) 
1

>  <s_lp_Variant>  (372) 
97:0-1

>  <s_i_glide_gridfile>  (372) 
pfpi4k_grid

>  <i_i_glide_lignum>  (372) 
15

>  <i_i_glide_rotatable_bonds>  (372) 
2

>  <r_i_docking_score>  (372) 
-4.10394

>  <r_i_glide_ligand_efficiency>  (372) 
-0.256496

>  <r_i_glide_ligand_efficiency_sa>  (372) 
-0.646329

>  <r_i_glide_ligand_efficiency_ln>  (372) 
-1.08783

>  <r_i_glide_gscore>  (372) 
-4.10394

>  <r_i_glide_lipo>  (372) 
-0.377209

>  <r_i_glide_hbond>  (372) 
0

>  <r_i_glide_metal>  (372) 
-0

>  <r_i_glide_rewards>  (372) 
-2.00641

>  <r_i_glide_evdw>  (372) 
-18.408

>  <r_i_glide_ecoul>  (372) 
-4.62811

>  <r_i_glide_erotb>  (372) 
0

>  <r_i_glide_esite>  (372) 
-0.1057

>  <r_i_glide_emodel>  (372) 
-29.095

>  <r_i_glide_energy>  (372) 
-23.0361

>  <r_i_glide_einternal>  (372) 
2.26525

>  <r_i_glide_intrahb_reward>  (372) 
-0

>  <i_i_glide_confnum>  (372) 
1

>  <i_i_glide_posenum>  (372) 
1

>  <r_i_glide_eff_state_penalty>  (372) 
0

>  <ligand_id>  (372) 
97

>  <original_smiles>  (372) 
CCn1cnc2c1C1=NCCN1C(=O)C2O

>  <smiles>  (372) 
[H]OC1([H])C(=O)N2C(=NC([H])([H])C2([H])[H])c2c1nc([H])n2C([H])([H])C([H])([H])[H]

$$$$
97:0:2
     RDKit          3D

 28 30  0  0  1  0  0  0  0  0999 V2000
    2.6962   -3.1830   -3.8741 C   0  0  0  0  0  0  0  0  0  0  0  0
    2.6026   -2.4979   -2.5079 C   0  0  0  0  0  0  0  0  0  0  0  0
    3.8905   -2.4736   -1.8360 N   0  0  0  0  0  0  0  0  0  0  0  0
    4.9396   -1.7035   -2.1817 C   0  0  0  0  0  0  0  0  0  0  0  0
    6.0400   -1.8564   -1.4501 N   0  0  0  0  0  0  0  0  0  0  0  0
    5.6503   -2.8071   -0.5105 C   0  0  0  0  0  0  0  0  0  0  0  0
    4.3586   -3.1936   -0.7318 C   0  0  0  0  0  0  0  0  0  0  0  0
    3.7119   -4.1983    0.1122 C   0  0  0  0  0  0  0  0  0  0  0  0
    2.4927   -4.6043    0.0239 N   0  0  0  0  0  0  0  0  0  0  0  0
    2.3056   -5.6276    1.0349 C   0  0  0  0  0  0  0  0  0  0  0  0
    3.6570   -5.7786    1.7566 C   0  0  0  0  0  0  0  0  0  0  0  0
    4.4747   -4.7882    1.1022 N   0  0  0  0  0  0  0  0  0  0  0  0
    5.7781   -4.5083    1.3681 C   0  0  0  0  0  0  0  0  0  0  0  0
    6.4126   -5.1557    2.1994 O   0  0  0  0  0  0  0  0  0  0  0  0
    6.4879   -3.3291    0.6288 C   0  0  1  0  0  0  0  0  0  0  0  0
    7.7220   -3.7550    0.0784 O   0  0  0  0  0  0  0  0  0  0  0  0
    1.7198   -3.2089   -4.3547 H   0  0  0  0  0  0  0  0  0  0  0  0
    3.0483   -4.2095   -3.7785 H   0  0  0  0  0  0  0  0  0  0  0  0
    3.3839   -2.6591   -4.5361 H   0  0  0  0  0  0  0  0  0  0  0  0
    2.2596   -1.4702   -2.6330 H   0  0  0  0  0  0  0  0  0  0  0  0
    1.8568   -2.9920   -1.8905 H   0  0  0  0  0  0  0  0  0  0  0  0
    4.8967   -1.0122   -3.0088 H   0  0  0  0  0  0  0  0  0  0  0  0
    1.5243   -5.3294    1.7369 H   0  0  0  0  0  0  0  0  0  0  0  0
    1.9975   -6.5737    0.5810 H   0  0  0  0  0  0  0  0  0  0  0  0
    3.5718   -5.5682    2.8240 H   0  0  0  0  0  0  0  0  0  0  0  0
    4.0827   -6.7727    1.6157 H   0  0  0  0  0  0  0  0  0  0  0  0
    6.6699   -2.5419    1.3646 H   0  0  0  0  0  0  0  0  0  0  0  0
    7.5483   -4.4995   -0.4773 H   0  0  0  0  0  0  0  0  0  0  0  0
  1  2  1  0
  1 17  1  0
  1 18  1  0
  1 19  1  0
  2  3  1  0
  2 20  1  0
  2 21  1  0
  3  7  1  0
  3  4  1  0
  4  5  2  0
  4 22  1  0
  5  6  1  0
  6 15  1  0
  6  7  2  0
  7  8  1  0
  8 12  1  0
  8  9  2  0
  9 10  1  0
 10 11  1  0
 10 23  1  0
 10 24  1  0
 11 12  1  0
 11 25  1  0
 11 26  1  0
 12 13  1  0
 13 14  2  0
 13 15  1  0
 15 16  1  0
 15 27  1  1
 16 28  1  0
M  END
>  <i_m_ct_stereo_status>  (373) 
1

>  <s_m_source_file>  (373) 
/var/tmp/pbs.5076255.sched01/tmpgahbdy6u/1388ql836nh.sdf

>  <i_m_source_file_index>  (373) 
15

>  <i_lp_mmshare_version>  (373) 
48012

>  <i_f3d_flags>  (373) 
0

>  <s_epik_input>  (373) 
W0NIM11bQ0gyXW4oW2NIXW4xKWMoYzEyKUM9M04oW0NIMl1bQ0gyXU4zKUMoPU8pW0NASF0yW09IXQ==

>  <s_epik_cmdline>  (373) 
J2VwaWtfcHl0aG9uJywgJy1waHQnLCAnMi4wJywgJy1waCcsICc3LjAnLCAnLXRuJywgJzgnLCAnLW1hJywgJzIwMCcsICctaW1hZScsICc8aW5maWxlLm1hZT4nLCAnLW9tYWUnLCAnPG91dGZpbGUubWFlPic=

>  <r_epik_Ionization_Penalty>  (373) 
0.227336

>  <r_epik_Ionization_Penalty_Charging>  (373) 
0.0456173

>  <r_epik_Ionization_Penalty_Neutral>  (373) 
0.181719

>  <r_epik_State_Penalty>  (373) 
0.330295

>  <r_epik_Charging_Adjusted_Penalty>  (373) 
0.375913

>  <i_epik_Tot_Q>  (373) 
0

>  <i_epik_Tot_abs_Q>  (373) 
0

>  <s_epik_Chemistry_Notes>  (373) 
This compound has an imine and may undergo hydrolysis.

>  <s_lp_Force_Field>  (373) 
OPLS3e

>  <r_lp_Energy>  (373) 
9.60306

>  <b_lp_Chiralities_Consistent>  (373) 
1

>  <s_lp_Variant>  (373) 
97:0-1

>  <s_i_glide_gridfile>  (373) 
pfpi4k_grid

>  <i_i_glide_lignum>  (373) 
15

>  <i_i_glide_rotatable_bonds>  (373) 
2

>  <r_i_docking_score>  (373) 
-3.73608

>  <r_i_glide_ligand_efficiency>  (373) 
-0.233505

>  <r_i_glide_ligand_efficiency_sa>  (373) 
-0.588395

>  <r_i_glide_ligand_efficiency_ln>  (373) 
-0.990322

>  <r_i_glide_gscore>  (373) 
-3.73608

>  <r_i_glide_lipo>  (373) 
-0.274073

>  <r_i_glide_hbond>  (373) 
-0.102468

>  <r_i_glide_metal>  (373) 
-0

>  <r_i_glide_rewards>  (373) 
-2.04211

>  <r_i_glide_evdw>  (373) 
-20.6937

>  <r_i_glide_ecoul>  (373) 
-1.53752

>  <r_i_glide_erotb>  (373) 
0

>  <r_i_glide_esite>  (373) 
-0.052116

>  <r_i_glide_emodel>  (373) 
-27.965

>  <r_i_glide_energy>  (373) 
-22.2312

>  <r_i_glide_einternal>  (373) 
1.61135

>  <r_i_glide_intrahb_reward>  (373) 
-0

>  <i_i_glide_confnum>  (373) 
2

>  <i_i_glide_posenum>  (373) 
36

>  <r_i_glide_eff_state_penalty>  (373) 
0

>  <ligand_id>  (373) 
97

>  <original_smiles>  (373) 
CCn1cnc2c1C1=NCCN1C(=O)C2O

>  <smiles>  (373) 
[H]OC1([H])C(=O)N2C(=NC([H])([H])C2([H])[H])c2c1nc([H])n2C([H])([H])C([H])([H])[H]

$$$$
97:1:0
     RDKit          3D

 29 31  0  0  1  0  0  0  0  0999 V2000
    4.2235    0.2800    3.1294 C   0  0  0  0  0  0  0  0  0  0  0  0
    3.2489    0.4825    1.9597 C   0  0  0  0  0  0  0  0  0  0  0  0
    1.8855    0.6671    2.4150 N   0  0  0  0  0  0  0  0  0  0  0  0
    0.9244   -0.2720    2.4812 C   0  0  0  0  0  0  0  0  0  0  0  0
   -0.2423    0.1434    2.9756 N   0  0  0  0  0  0  0  0  0  0  0  0
   -0.0291    1.5007    3.2024 C   0  0  0  0  0  0  0  0  0  0  0  0
    1.2541    1.8153    2.8871 C   0  0  0  0  0  0  0  0  0  0  0  0
    1.7698    3.1398    3.0579 C   0  0  0  0  0  0  0  0  0  0  0  0
    3.0154    3.5958    2.8501 N   0  0  0  0  0  0  0  0  0  0  0  0
    3.0742    5.0382    3.0720 C   0  0  0  0  0  0  0  0  0  0  0  0
    1.6590    5.4032    3.5296 C   0  0  0  0  0  0  0  0  0  0  0  0
    0.9516    4.1208    3.4857 N   0  0  0  0  0  0  0  0  0  0  0  0
   -0.4494    3.9379    3.7972 C   0  0  0  0  0  0  0  0  0  0  0  0
   -1.1433    4.9123    4.1013 O   0  0  0  0  0  0  0  0  0  0  0  0
   -1.0175    2.4934    3.7778 C   0  0  1  0  0  0  0  0  0  0  0  0
   -2.1816    2.4442    2.9760 O   0  0  0  0  0  0  0  0  0  0  0  0
    5.2461    0.1370    2.7704 H   0  0  0  0  0  0  0  0  0  0  0  0
    3.9577   -0.5952    3.7242 H   0  0  0  0  0  0  0  0  0  0  0  0
    4.2257    1.1432    3.7945 H   0  0  0  0  0  0  0  0  0  0  0  0
    3.5337    1.3381    1.3517 H   0  0  0  0  0  0  0  0  0  0  0  0
    3.2871   -0.3834    1.3005 H   0  0  0  0  0  0  0  0  0  0  0  0
    1.0877   -1.2960    2.1764 H   0  0  0  0  0  0  0  0  0  0  0  0
    3.8197    5.2870    3.8245 H   0  0  0  0  0  0  0  0  0  0  0  0
    3.3331    5.5427    2.1443 H   0  0  0  0  0  0  0  0  0  0  0  0
    1.6534    5.7969    4.5489 H   0  0  0  0  0  0  0  0  0  0  0  0
    1.1819    6.1304    2.8650 H   0  0  0  0  0  0  0  0  0  0  0  0
   -1.2573    2.2214    4.8070 H   0  0  0  0  0  0  0  0  0  0  0  0
   -2.5191    1.5555    2.9799 H   0  0  0  0  0  0  0  0  0  0  0  0
    3.8496    3.0753    2.5602 H   0  0  0  0  0  0  0  0  0  0  0  0
  1  2  1  0
  1 17  1  0
  1 18  1  0
  1 19  1  0
  2  3  1  0
  2 20  1  0
  2 21  1  0
  3  7  1  0
  3  4  1  0
  4  5  2  0
  4 22  1  0
  5  6  1  0
  6 15  1  0
  6  7  2  0
  7  8  1  0
  8 12  1  0
  8  9  2  0
  9 10  1  0
  9 29  1  0
 10 11  1  0
 10 23  1  0
 10 24  1  0
 11 12  1  0
 11 25  1  0
 11 26  1  0
 12 13  1  0
 13 14  2  0
 13 15  1  0
 15 16  1  0
 15 27  1  1
 16 28  1  0
M  CHG  1   9   1
M  END
>  <i_m_ct_stereo_status>  (374) 
1

>  <s_m_source_file>  (374) 
/var/tmp/pbs.5076255.sched01/tmpgahbdy6u/1388ql836nh.sdf

>  <i_m_source_file_index>  (374) 
16

>  <i_lp_mmshare_version>  (374) 
48012

>  <i_f3d_flags>  (374) 
0

>  <s_epik_input>  (374) 
W0NIM11bQ0gyXW4oW2NIXW4xKWMoYzEyKUM9M04oW0NIMl1bQ0gyXU4zKUMoPU8pW0NASF0yW09IXQ==

>  <s_epik_cmdline>  (374) 
J2VwaWtfcHl0aG9uJywgJy1waHQnLCAnMi4wJywgJy1waCcsICc3LjAnLCAnLXRuJywgJzgnLCAnLW1hJywgJzIwMCcsICctaW1hZScsICc8aW5maWxlLm1hZT4nLCAnLW9tYWUnLCAnPG91dGZpbGUubWFlPic=

>  <r_lp_tautomer_probability>  (374) 
1

>  <r_epik_Ionization_Penalty>  (374) 
1.20903

>  <r_epik_Ionization_Penalty_Charging>  (374) 
1.0584

>  <r_epik_Ionization_Penalty_Neutral>  (374) 
0.150637

>  <r_epik_State_Penalty>  (374) 
0.875328

>  <r_epik_Charging_Adjusted_Penalty>  (374) 
1.93373

>  <i_epik_Tot_Q>  (374) 
1

>  <i_epik_Tot_abs_Q>  (374) 
1

>  <s_epik_Chemistry_Notes>  (374) 
This compound has an imine and may undergo hydrolysis.

>  <s_lp_Force_Field>  (374) 
OPLS3e

>  <r_lp_Energy>  (374) 
18.9639

>  <b_lp_Chiralities_Consistent>  (374) 
1

>  <s_lp_Variant>  (374) 
97:0-2

>  <s_i_glide_gridfile>  (374) 
pfpi4k_grid

>  <i_i_glide_lignum>  (374) 
16

>  <i_i_glide_rotatable_bonds>  (374) 
2

>  <r_i_docking_score>  (374) 
-4.85907

>  <r_i_glide_ligand_efficiency>  (374) 
-0.303692

>  <r_i_glide_ligand_efficiency_sa>  (374) 
-0.765256

>  <r_i_glide_ligand_efficiency_ln>  (374) 
-1.28799

>  <r_i_glide_gscore>  (374) 
-4.85907

>  <r_i_glide_lipo>  (374) 
-0.209057

>  <r_i_glide_hbond>  (374) 
-0.11704

>  <r_i_glide_metal>  (374) 
-0

>  <r_i_glide_rewards>  (374) 
-1.90066

>  <r_i_glide_evdw>  (374) 
-14.4073

>  <r_i_glide_ecoul>  (374) 
-10.4634

>  <r_i_glide_erotb>  (374) 
0

>  <r_i_glide_esite>  (374) 
-0.342433

>  <r_i_glide_emodel>  (374) 
-34.8443

>  <r_i_glide_energy>  (374) 
-24.8707

>  <r_i_glide_einternal>  (374) 
0.0518761

>  <r_i_glide_intrahb_reward>  (374) 
-0

>  <i_i_glide_confnum>  (374) 
1

>  <i_i_glide_posenum>  (374) 
34

>  <r_i_glide_eff_state_penalty>  (374) 
0

>  <ligand_id>  (374) 
97

>  <original_smiles>  (374) 
CCn1cnc2c1C1=NCCN1C(=O)C2O

>  <smiles>  (374) 
[H]OC1([H])C(=O)N2C(=[N+]([H])C([H])([H])C2([H])[H])c2c1nc([H])n2C([H])([H])C([H])([H])[H]

$$$$
97:1:1
     RDKit          3D

 29 31  0  0  1  0  0  0  0  0999 V2000
    1.9567   -3.3962   -2.0478 C   0  0  0  0  0  0  0  0  0  0  0  0
    2.6256   -3.4946   -0.6771 C   0  0  0  0  0  0  0  0  0  0  0  0
    3.9349   -2.8718   -0.6699 N   0  0  0  0  0  0  0  0  0  0  0  0
    4.2312   -1.6273   -1.0926 C   0  0  0  0  0  0  0  0  0  0  0  0
    5.5179   -1.2821   -0.9886 N   0  0  0  0  0  0  0  0  0  0  0  0
    6.0966   -2.4011   -0.3932 C   0  0  0  0  0  0  0  0  0  0  0  0
    5.1526   -3.3674   -0.2058 C   0  0  0  0  0  0  0  0  0  0  0  0
    5.4825   -4.6377    0.3689 C   0  0  0  0  0  0  0  0  0  0  0  0
    4.6731   -5.6632    0.6626 N   0  0  0  0  0  0  0  0  0  0  0  0
    5.4432   -6.8035    1.1802 C   0  0  0  0  0  0  0  0  0  0  0  0
    6.8915   -6.2822    1.1961 C   0  0  0  0  0  0  0  0  0  0  0  0
    6.7653   -4.9216    0.6782 N   0  0  0  0  0  0  0  0  0  0  0  0
    7.8623   -3.9958    0.4742 C   0  0  0  0  0  0  0  0  0  0  0  0
    9.0218   -4.3559    0.6641 O   0  0  0  0  0  0  0  0  0  0  0  0
    7.5325   -2.5528    0.0122 C   0  0  1  0  0  0  0  0  0  0  0  0
    8.2837   -2.2610   -1.1325 O   0  0  0  0  0  0  0  0  0  0  0  0
    0.9834   -3.8778   -2.0307 H   0  0  0  0  0  0  0  0  0  0  0  0
    2.5695   -3.8535   -2.8199 H   0  0  0  0  0  0  0  0  0  0  0  0
    1.8110   -2.3565   -2.3361 H   0  0  0  0  0  0  0  0  0  0  0  0
    2.0127   -3.0191    0.0897 H   0  0  0  0  0  0  0  0  0  0  0  0
    2.6901   -4.5488   -0.4289 H   0  0  0  0  0  0  0  0  0  0  0  0
    3.4830   -0.9606   -1.4975 H   0  0  0  0  0  0  0  0  0  0  0  0
    5.1080   -7.0964    2.1755 H   0  0  0  0  0  0  0  0  0  0  0  0
    5.3324   -7.6574    0.5106 H   0  0  0  0  0  0  0  0  0  0  0  0
    7.3076   -6.2566    2.2059 H   0  0  0  0  0  0  0  0  0  0  0  0
    7.5546   -6.8756    0.5611 H   0  0  0  0  0  0  0  0  0  0  0  0
    7.7892   -1.8686    0.8221 H   0  0  0  0  0  0  0  0  0  0  0  0
    9.2187   -2.2913   -0.9448 H   0  0  0  0  0  0  0  0  0  0  0  0
    3.6673   -5.6651    0.5426 H   0  0  0  0  0  0  0  0  0  0  0  0
  1  2  1  0
  1 17  1  0
  1 18  1  0
  1 19  1  0
  2  3  1  0
  2 20  1  0
  2 21  1  0
  3  7  1  0
  3  4  1  0
  4  5  2  0
  4 22  1  0
  5  6  1  0
  6 15  1  0
  6  7  2  0
  7  8  1  0
  8 12  1  0
  8  9  2  0
  9 10  1  0
  9 29  1  0
 10 11  1  0
 10 23  1  0
 10 24  1  0
 11 12  1  0
 11 25  1  0
 11 26  1  0
 12 13  1  0
 13 14  2  0
 13 15  1  0
 15 16  1  0
 15 27  1  1
 16 28  1  0
M  CHG  1   9   1
M  END
>  <i_m_ct_stereo_status>  (375) 
1

>  <s_m_source_file>  (375) 
/var/tmp/pbs.5076255.sched01/tmpgahbdy6u/1388ql836nh.sdf

>  <i_m_source_file_index>  (375) 
16

>  <i_lp_mmshare_version>  (375) 
48012

>  <i_f3d_flags>  (375) 
0

>  <s_epik_input>  (375) 
W0NIM11bQ0gyXW4oW2NIXW4xKWMoYzEyKUM9M04oW0NIMl1bQ0gyXU4zKUMoPU8pW0NASF0yW09IXQ==

>  <s_epik_cmdline>  (375) 
J2VwaWtfcHl0aG9uJywgJy1waHQnLCAnMi4wJywgJy1waCcsICc3LjAnLCAnLXRuJywgJzgnLCAnLW1hJywgJzIwMCcsICctaW1hZScsICc8aW5maWxlLm1hZT4nLCAnLW9tYWUnLCAnPG91dGZpbGUubWFlPic=

>  <r_lp_tautomer_probability>  (375) 
1

>  <r_epik_Ionization_Penalty>  (375) 
1.20903

>  <r_epik_Ionization_Penalty_Charging>  (375) 
1.0584

>  <r_epik_Ionization_Penalty_Neutral>  (375) 
0.150637

>  <r_epik_State_Penalty>  (375) 
0.875328

>  <r_epik_Charging_Adjusted_Penalty>  (375) 
1.93373

>  <i_epik_Tot_Q>  (375) 
1

>  <i_epik_Tot_abs_Q>  (375) 
1

>  <s_epik_Chemistry_Notes>  (375) 
This compound has an imine and may undergo hydrolysis.

>  <s_lp_Force_Field>  (375) 
OPLS3e

>  <r_lp_Energy>  (375) 
18.9639

>  <b_lp_Chiralities_Consistent>  (375) 
1

>  <s_lp_Variant>  (375) 
97:0-2

>  <s_i_glide_gridfile>  (375) 
pfpi4k_grid

>  <i_i_glide_lignum>  (375) 
16

>  <i_i_glide_rotatable_bonds>  (375) 
2

>  <r_i_docking_score>  (375) 
-4.80133

>  <r_i_glide_ligand_efficiency>  (375) 
-0.300083

>  <r_i_glide_ligand_efficiency_sa>  (375) 
-0.756161

>  <r_i_glide_ligand_efficiency_ln>  (375) 
-1.27269

>  <r_i_glide_gscore>  (375) 
-4.80133

>  <r_i_glide_lipo>  (375) 
-0.436458

>  <r_i_glide_hbond>  (375) 
-0.0279442

>  <r_i_glide_metal>  (375) 
-0

>  <r_i_glide_rewards>  (375) 
-2.41556

>  <r_i_glide_evdw>  (375) 
-18.0569

>  <r_i_glide_ecoul>  (375) 
-6.47446

>  <r_i_glide_erotb>  (375) 
0

>  <r_i_glide_esite>  (375) 
-0.0473518

>  <r_i_glide_emodel>  (375) 
-33.3696

>  <r_i_glide_energy>  (375) 
-24.5314

>  <r_i_glide_einternal>  (375) 
1.95826

>  <r_i_glide_intrahb_reward>  (375) 
-0

>  <i_i_glide_confnum>  (375) 
2

>  <i_i_glide_posenum>  (375) 
22

>  <r_i_glide_eff_state_penalty>  (375) 
0

>  <ligand_id>  (375) 
97

>  <original_smiles>  (375) 
CCn1cnc2c1C1=NCCN1C(=O)C2O

>  <smiles>  (375) 
[H]OC1([H])C(=O)N2C(=[N+]([H])C([H])([H])C2([H])[H])c2c1nc([H])n2C([H])([H])C([H])([H])[H]

$$$$
97:1:2
     RDKit          3D

 29 31  0  0  1  0  0  0  0  0999 V2000
    2.8319   -3.4272   -3.9657 C   0  0  0  0  0  0  0  0  0  0  0  0
    2.6819   -3.0686   -2.4876 C   0  0  0  0  0  0  0  0  0  0  0  0
    3.9184   -2.5433   -1.9406 N   0  0  0  0  0  0  0  0  0  0  0  0
    4.4624   -1.3512   -2.2402 C   0  0  0  0  0  0  0  0  0  0  0  0
    5.5969   -1.0681   -1.6033 N   0  0  0  0  0  0  0  0  0  0  0  0
    5.8144   -2.2034   -0.8200 C   0  0  0  0  0  0  0  0  0  0  0  0
    4.7986   -3.0891   -1.0057 C   0  0  0  0  0  0  0  0  0  0  0  0
    4.7720   -4.3268   -0.2794 C   0  0  0  0  0  0  0  0  0  0  0  0
    3.8135   -5.2557   -0.2918 N   0  0  0  0  0  0  0  0  0  0  0  0
    4.2066   -6.4238    0.4953 C   0  0  0  0  0  0  0  0  0  0  0  0
    5.5738   -6.0202    1.0876 C   0  0  0  0  0  0  0  0  0  0  0  0
    5.7974   -4.6818    0.5187 N   0  0  0  0  0  0  0  0  0  0  0  0
    6.9851   -3.8731    0.7035 C   0  0  0  0  0  0  0  0  0  0  0  0
    7.9678   -4.3225    1.2974 O   0  0  0  0  0  0  0  0  0  0  0  0
    6.9815   -2.4417    0.1080 C   0  0  1  0  0  0  0  0  0  0  0  0
    8.1665   -2.2449   -0.6564 O   0  0  0  0  0  0  0  0  0  0  0  0
    1.9031   -3.8443   -4.3593 H   0  0  0  0  0  0  0  0  0  0  0  0
    3.6300   -4.1598   -4.1144 H   0  0  0  0  0  0  0  0  0  0  0  0
    3.0689   -2.5421   -4.5576 H   0  0  0  0  0  0  0  0  0  0  0  0
    1.9078   -2.3196   -2.3509 H   0  0  0  0  0  0  0  0  0  0  0  0
    2.3454   -3.9361   -1.9346 H   0  0  0  0  0  0  0  0  0  0  0  0
    4.0153   -0.6747   -2.9472 H   0  0  0  0  0  0  0  0  0  0  0  0
    3.4688   -6.6619    1.2698 H   0  0  0  0  0  0  0  0  0  0  0  0
    4.2982   -7.3001   -0.1553 H   0  0  0  0  0  0  0  0  0  0  0  0
    5.5314   -5.9834    2.1747 H   0  0  0  0  0  0  0  0  0  0  0  0
    6.3568   -6.7218    0.7968 H   0  0  0  0  0  0  0  0  0  0  0  0
    6.9443   -1.7290    0.9372 H   0  0  0  0  0  0  0  0  0  0  0  0
    8.3186   -2.9670   -1.2467 H   0  0  0  0  0  0  0  0  0  0  0  0
    3.0637   -5.2467   -0.9856 H   0  0  0  0  0  0  0  0  0  0  0  0
  1  2  1  0
  1 17  1  0
  1 18  1  0
  1 19  1  0
  2  3  1  0
  2 20  1  0
  2 21  1  0
  3  7  1  0
  3  4  1  0
  4  5  2  0
  4 22  1  0
  5  6  1  0
  6 15  1  0
  6  7  2  0
  7  8  1  0
  8 12  1  0
  8  9  2  0
  9 10  1  0
  9 29  1  0
 10 11  1  0
 10 23  1  0
 10 24  1  0
 11 12  1  0
 11 25  1  0
 11 26  1  0
 12 13  1  0
 13 14  2  0
 13 15  1  0
 15 16  1  0
 15 27  1  1
 16 28  1  0
M  CHG  1   9   1
M  END
>  <i_m_ct_stereo_status>  (376) 
1

>  <s_m_source_file>  (376) 
/var/tmp/pbs.5076255.sched01/tmpgahbdy6u/1388ql836nh.sdf

>  <i_m_source_file_index>  (376) 
16

>  <i_lp_mmshare_version>  (376) 
48012

>  <i_f3d_flags>  (376) 
0

>  <s_epik_input>  (376) 
W0NIM11bQ0gyXW4oW2NIXW4xKWMoYzEyKUM9M04oW0NIMl1bQ0gyXU4zKUMoPU8pW0NASF0yW09IXQ==

>  <s_epik_cmdline>  (376) 
J2VwaWtfcHl0aG9uJywgJy1waHQnLCAnMi4wJywgJy1waCcsICc3LjAnLCAnLXRuJywgJzgnLCAnLW1hJywgJzIwMCcsICctaW1hZScsICc8aW5maWxlLm1hZT4nLCAnLW9tYWUnLCAnPG91dGZpbGUubWFlPic=

>  <r_lp_tautomer_probability>  (376) 
1

>  <r_epik_Ionization_Penalty>  (376) 
1.20903

>  <r_epik_Ionization_Penalty_Charging>  (376) 
1.0584

>  <r_epik_Ionization_Penalty_Neutral>  (376) 
0.150637

>  <r_epik_State_Penalty>  (376) 
0.875328

>  <r_epik_Charging_Adjusted_Penalty>  (376) 
1.93373

>  <i_epik_Tot_Q>  (376) 
1

>  <i_epik_Tot_abs_Q>  (376) 
1

>  <s_epik_Chemistry_Notes>  (376) 
This compound has an imine and may undergo hydrolysis.

>  <s_lp_Force_Field>  (376) 
OPLS3e

>  <r_lp_Energy>  (376) 
18.9639

>  <b_lp_Chiralities_Consistent>  (376) 
1

>  <s_lp_Variant>  (376) 
97:0-2

>  <s_i_glide_gridfile>  (376) 
pfpi4k_grid

>  <i_i_glide_lignum>  (376) 
16

>  <i_i_glide_rotatable_bonds>  (376) 
2

>  <r_i_docking_score>  (376) 
-4.61732

>  <r_i_glide_ligand_efficiency>  (376) 
-0.288583

>  <r_i_glide_ligand_efficiency_sa>  (376) 
-0.727183

>  <r_i_glide_ligand_efficiency_ln>  (376) 
-1.22391

>  <r_i_glide_gscore>  (376) 
-4.61732

>  <r_i_glide_lipo>  (376) 
-0.380049

>  <r_i_glide_hbond>  (376) 
-0.0360609

>  <r_i_glide_metal>  (376) 
-0

>  <r_i_glide_rewards>  (376) 
-2.21944

>  <r_i_glide_evdw>  (376) 
-18.603

>  <r_i_glide_ecoul>  (376) 
-6.32472

>  <r_i_glide_erotb>  (376) 
0

>  <r_i_glide_esite>  (376) 
-0.10291

>  <r_i_glide_emodel>  (376) 
-33.1471

>  <r_i_glide_energy>  (376) 
-24.9278

>  <r_i_glide_einternal>  (376) 
1.87648

>  <r_i_glide_intrahb_reward>  (376) 
-0

>  <i_i_glide_confnum>  (376) 
2

>  <i_i_glide_posenum>  (376) 
7

>  <r_i_glide_eff_state_penalty>  (376) 
0

>  <ligand_id>  (376) 
97

>  <original_smiles>  (376) 
CCn1cnc2c1C1=NCCN1C(=O)C2O

>  <smiles>  (376) 
[H]OC1([H])C(=O)N2C(=[N+]([H])C([H])([H])C2([H])[H])c2c1nc([H])n2C([H])([H])C([H])([H])[H]

$$$$
97:2:0
     RDKit          3D

 28 30  0  0  1  0  0  0  0  0999 V2000
    2.9524   -1.6686   -4.1443 C   0  0  0  0  0  0  0  0  0  0  0  0
    2.9074   -1.6376   -2.6260 C   0  0  0  0  0  0  0  0  0  0  0  0
    4.1955   -1.8801   -2.0193 N   0  0  0  0  0  0  0  0  0  0  0  0
    5.2827   -2.4888   -2.5329 C   0  0  0  0  0  0  0  0  0  0  0  0
    6.3637   -2.5435   -1.7536 N   0  0  0  0  0  0  0  0  0  0  0  0
    5.8919   -1.9736   -0.5688 C   0  0  0  0  0  0  0  0  0  0  0  0
    4.6138   -1.5683   -0.7184 C   0  0  0  0  0  0  0  0  0  0  0  0
    3.9101   -0.9422    0.3885 C   0  0  0  0  0  0  0  0  0  0  0  0
    2.6274   -0.6270    0.5276 N   0  0  0  0  0  0  0  0  0  0  0  0
    2.3062   -0.1510    1.8675 C   0  0  0  0  0  0  0  0  0  0  0  0
    3.6802    0.0870    2.4561 C   0  0  0  0  0  0  0  0  0  0  0  0
    4.5661   -0.6139    1.5151 N   0  0  0  0  0  0  0  0  0  0  0  0
    5.8907   -1.0167    1.7718 C   0  0  0  0  0  0  0  0  0  0  0  0
    6.3772   -0.6505    2.8430 O   0  0  0  0  0  0  0  0  0  0  0  0
    6.6438   -1.8604    0.7152 C   0  0  1  0  0  0  0  0  0  0  0  0
    6.7454   -3.0733    1.1716 O   0  0  0  0  0  0  0  0  0  0  0  0
    1.9754   -1.4529   -4.5646 H   0  0  0  0  0  0  0  0  0  0  0  0
    3.2449   -2.6487   -4.5175 H   0  0  0  0  0  0  0  0  0  0  0  0
    3.6401   -0.9167   -4.5295 H   0  0  0  0  0  0  0  0  0  0  0  0
    2.5517   -0.6507   -2.3330 H   0  0  0  0  0  0  0  0  0  0  0  0
    2.2077   -2.3792   -2.2500 H   0  0  0  0  0  0  0  0  0  0  0  0
    5.3069   -2.8725   -3.5243 H   0  0  0  0  0  0  0  0  0  0  0  0
    1.6456    0.7162    1.8652 H   0  0  0  0  0  0  0  0  0  0  0  0
    1.8265   -0.9668    2.3978 H   0  0  0  0  0  0  0  0  0  0  0  0
    3.8005    1.1607    2.3877 H   0  0  0  0  0  0  0  0  0  0  0  0
    3.7979   -0.2055    3.4995 H   0  0  0  0  0  0  0  0  0  0  0  0
    7.4707   -1.2163    0.4622 H   0  0  0  0  0  0  0  0  0  0  0  0
    1.8872   -0.7541   -0.2011 H   0  0  0  0  0  0  0  0  0  0  0  0
  1  2  1  0
  1 17  1  0
  1 18  1  0
  1 19  1  0
  2  3  1  0
  2 20  1  0
  2 21  1  0
  3  7  1  0
  3  4  1  0
  4  5  2  0
  4 22  1  0
  5  6  1  0
  6 15  1  0
  6  7  2  0
  7  8  1  0
  8 12  1  0
  8  9  2  0
  9 10  1  0
  9 28  1  0
 10 11  1  0
 10 23  1  0
 10 24  1  0
 11 12  1  0
 11 25  1  0
 11 26  1  0
 12 13  1  0
 13 14  2  0
 13 15  1  0
 15 16  1  0
 15 27  1  6
M  CHG  2   9   1  16  -1
M  END
>  <i_m_ct_stereo_status>  (377) 
1

>  <s_m_source_file>  (377) 
/var/tmp/pbs.5076255.sched01/tmpgahbdy6u/1388ql836nh.sdf

>  <i_m_source_file_index>  (377) 
17

>  <i_lp_mmshare_version>  (377) 
48012

>  <i_f3d_flags>  (377) 
0

>  <s_epik_input>  (377) 
W0NIM11bQ0gyXW4oW2NIXW4xKWMoYzEyKUM9M04oW0NIMl1bQ0gyXU4zKUMoPU8pW0NASF0yW09IXQ==

>  <s_epik_cmdline>  (377) 
J2VwaWtfcHl0aG9uJywgJy1waHQnLCAnMi4wJywgJy1waCcsICc3LjAnLCAnLXRuJywgJzgnLCAnLW1hJywgJzIwMCcsICctaW1hZScsICc8aW5maWxlLm1hZT4nLCAnLW9tYWUnLCAnPG91dGZpbGUubWFlPic=

>  <r_epik_Ionization_Penalty>  (377) 
0.953056

>  <r_epik_Ionization_Penalty_Charging>  (377) 
0.953056

>  <r_epik_Ionization_Penalty_Neutral>  (377) 
6.70947e-14

>  <r_epik_State_Penalty>  (377) 
1.20425

>  <r_epik_Charging_Adjusted_Penalty>  (377) 
2.15731

>  <i_epik_Tot_Q>  (377) 
0

>  <i_epik_Tot_abs_Q>  (377) 
2

>  <s_epik_Chemistry_Notes>  (377) 
This compound has an imine and may undergo hydrolysis.

>  <s_lp_Force_Field>  (377) 
OPLS3e

>  <r_lp_Energy>  (377) 
14.0349

>  <b_lp_Chiralities_Consistent>  (377) 
1

>  <s_lp_Variant>  (377) 
97:0-3

>  <s_i_glide_gridfile>  (377) 
pfpi4k_grid

>  <i_i_glide_lignum>  (377) 
17

>  <i_i_glide_rotatable_bonds>  (377) 
1

>  <r_i_docking_score>  (377) 
-4.95862

>  <r_i_glide_ligand_efficiency>  (377) 
-0.309914

>  <r_i_glide_ligand_efficiency_sa>  (377) 
-0.780934

>  <r_i_glide_ligand_efficiency_ln>  (377) 
-1.31438

>  <r_i_glide_gscore>  (377) 
-4.95862

>  <r_i_glide_lipo>  (377) 
-0.072282

>  <r_i_glide_hbond>  (377) 
-0.11765

>  <r_i_glide_metal>  (377) 
-0

>  <r_i_glide_rewards>  (377) 
-2.69639

>  <r_i_glide_evdw>  (377) 
-14.4857

>  <r_i_glide_ecoul>  (377) 
-8.30822

>  <r_i_glide_erotb>  (377) 
0

>  <r_i_glide_esite>  (377) 
-0.101787

>  <r_i_glide_emodel>  (377) 
-29.522

>  <r_i_glide_energy>  (377) 
-22.7939

>  <r_i_glide_einternal>  (377) 
1.30899

>  <r_i_glide_intrahb_reward>  (377) 
-0

>  <i_i_glide_confnum>  (377) 
1

>  <i_i_glide_posenum>  (377) 
10

>  <r_i_glide_eff_state_penalty>  (377) 
0

>  <ligand_id>  (377) 
97

>  <original_smiles>  (377) 
CCn1cnc2c1C1=NCCN1C(=O)C2O

>  <smiles>  (377) 
[H]c1nc2c(n1C([H])([H])C([H])([H])[H])C1=[N+]([H])C([H])([H])C([H])([H])N1C(=O)C2([H])[O-]

$$$$
97:2:1
     RDKit          3D

 28 30  0  0  1  0  0  0  0  0999 V2000
    3.8806    0.0107   -3.5819 C   0  0  0  0  0  0  0  0  0  0  0  0
    3.1222   -1.0812   -2.8279 C   0  0  0  0  0  0  0  0  0  0  0  0
    4.0066   -2.1337   -2.3565 N   0  0  0  0  0  0  0  0  0  0  0  0
    4.6668   -3.0023   -3.1176 C   0  0  0  0  0  0  0  0  0  0  0  0
    5.4148   -3.8592   -2.4435 N   0  0  0  0  0  0  0  0  0  0  0  0
    5.1807   -3.5436   -1.1099 C   0  0  0  0  0  0  0  0  0  0  0  0
    4.3461   -2.4829   -1.0506 C   0  0  0  0  0  0  0  0  0  0  0  0
    3.9441   -1.9245    0.2218 C   0  0  0  0  0  0  0  0  0  0  0  0
    3.0182   -1.0121    0.4796 N   0  0  0  0  0  0  0  0  0  0  0  0
    2.7929   -0.8670    1.9212 C   0  0  0  0  0  0  0  0  0  0  0  0
    4.0042   -1.6124    2.5118 C   0  0  0  0  0  0  0  0  0  0  0  0
    4.5193   -2.3670    1.3624 N   0  0  0  0  0  0  0  0  0  0  0  0
    5.4068   -3.4950    1.4268 C   0  0  0  0  0  0  0  0  0  0  0  0
    5.8029   -3.9071    2.5136 O   0  0  0  0  0  0  0  0  0  0  0  0
    5.7291   -4.2335    0.1027 C   0  0  1  0  0  0  0  0  0  0  0  0
    5.1529   -5.3970    0.2037 O   0  0  0  0  0  0  0  0  0  0  0  0
    3.2163    0.7841   -3.9517 H   0  0  0  0  0  0  0  0  0  0  0  0
    4.4108   -0.3899   -4.4451 H   0  0  0  0  0  0  0  0  0  0  0  0
    4.6007    0.4957   -2.9163 H   0  0  0  0  0  0  0  0  0  0  0  0
    2.6135   -0.6699   -1.9690 H   0  0  0  0  0  0  0  0  0  0  0  0
    2.3734   -1.5362   -3.4652 H   0  0  0  0  0  0  0  0  0  0  0  0
    4.6087   -2.9765   -4.1873 H   0  0  0  0  0  0  0  0  0  0  0  0
    2.6524    0.1613    2.2605 H   0  0  0  0  0  0  0  0  0  0  0  0
    1.8902   -1.4198    2.1463 H   0  0  0  0  0  0  0  0  0  0  0  0
    4.7457   -0.8723    2.7871 H   0  0  0  0  0  0  0  0  0  0  0  0
    3.7668   -2.2178    3.3980 H   0  0  0  0  0  0  0  0  0  0  0  0
    6.8081   -4.0818    0.0434 H   0  0  0  0  0  0  0  0  0  0  0  0
    2.3240   -0.6935   -0.2158 H   0  0  0  0  0  0  0  0  0  0  0  0
  1  2  1  0
  1 17  1  0
  1 18  1  0
  1 19  1  0
  2  3  1  0
  2 20  1  0
  2 21  1  0
  3  7  1  0
  3  4  1  0
  4  5  2  0
  4 22  1  0
  5  6  1  0
  6 15  1  0
  6  7  2  0
  7  8  1  0
  8 12  1  0
  8  9  2  0
  9 10  1  0
  9 28  1  0
 10 11  1  0
 10 23  1  0
 10 24  1  0
 11 12  1  0
 11 25  1  0
 11 26  1  0
 12 13  1  0
 13 14  2  0
 13 15  1  0
 15 16  1  0
 15 27  1  6
M  CHG  2   9   1  16  -1
M  END
>  <i_m_ct_stereo_status>  (378) 
1

>  <s_m_source_file>  (378) 
/var/tmp/pbs.5076255.sched01/tmpgahbdy6u/1388ql836nh.sdf

>  <i_m_source_file_index>  (378) 
17

>  <i_lp_mmshare_version>  (378) 
48012

>  <i_f3d_flags>  (378) 
0

>  <s_epik_input>  (378) 
W0NIM11bQ0gyXW4oW2NIXW4xKWMoYzEyKUM9M04oW0NIMl1bQ0gyXU4zKUMoPU8pW0NASF0yW09IXQ==

>  <s_epik_cmdline>  (378) 
J2VwaWtfcHl0aG9uJywgJy1waHQnLCAnMi4wJywgJy1waCcsICc3LjAnLCAnLXRuJywgJzgnLCAnLW1hJywgJzIwMCcsICctaW1hZScsICc8aW5maWxlLm1hZT4nLCAnLW9tYWUnLCAnPG91dGZpbGUubWFlPic=

>  <r_epik_Ionization_Penalty>  (378) 
0.953056

>  <r_epik_Ionization_Penalty_Charging>  (378) 
0.953056

>  <r_epik_Ionization_Penalty_Neutral>  (378) 
6.70947e-14

>  <r_epik_State_Penalty>  (378) 
1.20425

>  <r_epik_Charging_Adjusted_Penalty>  (378) 
2.15731

>  <i_epik_Tot_Q>  (378) 
0

>  <i_epik_Tot_abs_Q>  (378) 
2

>  <s_epik_Chemistry_Notes>  (378) 
This compound has an imine and may undergo hydrolysis.

>  <s_lp_Force_Field>  (378) 
OPLS3e

>  <r_lp_Energy>  (378) 
14.0349

>  <b_lp_Chiralities_Consistent>  (378) 
1

>  <s_lp_Variant>  (378) 
97:0-3

>  <s_i_glide_gridfile>  (378) 
pfpi4k_grid

>  <i_i_glide_lignum>  (378) 
17

>  <i_i_glide_rotatable_bonds>  (378) 
1

>  <r_i_docking_score>  (378) 
-3.91598

>  <r_i_glide_ligand_efficiency>  (378) 
-0.244749

>  <r_i_glide_ligand_efficiency_sa>  (378) 
-0.616728

>  <r_i_glide_ligand_efficiency_ln>  (378) 
-1.03801

>  <r_i_glide_gscore>  (378) 
-3.91598

>  <r_i_glide_lipo>  (378) 
-0.198615

>  <r_i_glide_hbond>  (378) 
-0.173542

>  <r_i_glide_metal>  (378) 
-0

>  <r_i_glide_rewards>  (378) 
-2.18924

>  <r_i_glide_evdw>  (378) 
-19.1138

>  <r_i_glide_ecoul>  (378) 
-1.90723

>  <r_i_glide_erotb>  (378) 
0

>  <r_i_glide_esite>  (378) 
-0.112805

>  <r_i_glide_emodel>  (378) 
-26.8022

>  <r_i_glide_energy>  (378) 
-21.021

>  <r_i_glide_einternal>  (378) 
0.456703

>  <r_i_glide_intrahb_reward>  (378) 
-0

>  <i_i_glide_confnum>  (378) 
2

>  <i_i_glide_posenum>  (378) 
38

>  <r_i_glide_eff_state_penalty>  (378) 
0

>  <ligand_id>  (378) 
97

>  <original_smiles>  (378) 
CCn1cnc2c1C1=NCCN1C(=O)C2O

>  <smiles>  (378) 
[H]c1nc2c(n1C([H])([H])C([H])([H])[H])C1=[N+]([H])C([H])([H])C([H])([H])N1C(=O)C2([H])[O-]

$$$$
97:2:2
     RDKit          3D

 28 30  0  0  1  0  0  0  0  0999 V2000
    5.1030   -4.5851    4.1309 C   0  0  0  0  0  0  0  0  0  0  0  0
    4.0565   -5.0431    3.1096 C   0  0  0  0  0  0  0  0  0  0  0  0
    4.5249   -4.8744    1.7463 N   0  0  0  0  0  0  0  0  0  0  0  0
    5.0531   -5.8055    0.9385 C   0  0  0  0  0  0  0  0  0  0  0  0
    5.4115   -5.3680   -0.2716 N   0  0  0  0  0  0  0  0  0  0  0  0
    5.1064   -4.0100   -0.2324 C   0  0  0  0  0  0  0  0  0  0  0  0
    4.5533   -3.7183    0.9706 C   0  0  0  0  0  0  0  0  0  0  0  0
    4.1258   -2.3933    1.2766 C   0  0  0  0  0  0  0  0  0  0  0  0
    3.7366   -1.8900    2.4591 N   0  0  0  0  0  0  0  0  0  0  0  0
    3.5378   -0.4391    2.3515 C   0  0  0  0  0  0  0  0  0  0  0  0
    3.5309   -0.2168    0.8363 C   0  0  0  0  0  0  0  0  0  0  0  0
    4.1051   -1.4529    0.3086 N   0  0  0  0  0  0  0  0  0  0  0  0
    4.6368   -1.6426   -1.0253 C   0  0  0  0  0  0  0  0  0  0  0  0
    4.6241   -0.7233   -1.8526 O   0  0  0  0  0  0  0  0  0  0  0  0
    5.3293   -2.9958   -1.3284 C   0  0  1  0  0  0  0  0  0  0  0  0
    6.6085   -2.7185   -1.4263 O   0  0  0  0  0  0  0  0  0  0  0  0
    4.7509   -4.7327    5.1492 H   0  0  0  0  0  0  0  0  0  0  0  0
    5.3443   -3.5289    4.0085 H   0  0  0  0  0  0  0  0  0  0  0  0
    6.0316   -5.1461    4.0152 H   0  0  0  0  0  0  0  0  0  0  0  0
    3.8375   -6.0973    3.2619 H   0  0  0  0  0  0  0  0  0  0  0  0
    3.1151   -4.5109    3.2393 H   0  0  0  0  0  0  0  0  0  0  0  0
    5.1815   -6.8270    1.2507 H   0  0  0  0  0  0  0  0  0  0  0  0
    2.6546   -0.0744    2.8707 H   0  0  0  0  0  0  0  0  0  0  0  0
    4.4135    0.0428    2.7820 H   0  0  0  0  0  0  0  0  0  0  0  0
    2.5012   -0.1526    0.4886 H   0  0  0  0  0  0  0  0  0  0  0  0
    4.0647    0.6786    0.5221 H   0  0  0  0  0  0  0  0  0  0  0  0
    4.7573   -3.3582   -2.1821 H   0  0  0  0  0  0  0  0  0  0  0  0
    3.5936   -2.4324    3.3044 H   0  0  0  0  0  0  0  0  0  0  0  0
  1  2  1  0
  1 17  1  0
  1 18  1  0
  1 19  1  0
  2  3  1  0
  2 20  1  0
  2 21  1  0
  3  7  1  0
  3  4  1  0
  4  5  2  0
  4 22  1  0
  5  6  1  0
  6 15  1  0
  6  7  2  0
  7  8  1  0
  8 12  1  0
  8  9  2  0
  9 10  1  0
  9 28  1  0
 10 11  1  0
 10 23  1  0
 10 24  1  0
 11 12  1  0
 11 25  1  0
 11 26  1  0
 12 13  1  0
 13 14  2  0
 13 15  1  0
 15 16  1  0
 15 27  1  6
M  CHG  2   9   1  16  -1
M  END
>  <i_m_ct_stereo_status>  (379) 
1

>  <s_m_source_file>  (379) 
/var/tmp/pbs.5076255.sched01/tmpgahbdy6u/1388ql836nh.sdf

>  <i_m_source_file_index>  (379) 
17

>  <i_lp_mmshare_version>  (379) 
48012

>  <i_f3d_flags>  (379) 
0

>  <s_epik_input>  (379) 
W0NIM11bQ0gyXW4oW2NIXW4xKWMoYzEyKUM9M04oW0NIMl1bQ0gyXU4zKUMoPU8pW0NASF0yW09IXQ==

>  <s_epik_cmdline>  (379) 
J2VwaWtfcHl0aG9uJywgJy1waHQnLCAnMi4wJywgJy1waCcsICc3LjAnLCAnLXRuJywgJzgnLCAnLW1hJywgJzIwMCcsICctaW1hZScsICc8aW5maWxlLm1hZT4nLCAnLW9tYWUnLCAnPG91dGZpbGUubWFlPic=

>  <r_epik_Ionization_Penalty>  (379) 
0.953056

>  <r_epik_Ionization_Penalty_Charging>  (379) 
0.953056

>  <r_epik_Ionization_Penalty_Neutral>  (379) 
6.70947e-14

>  <r_epik_State_Penalty>  (379) 
1.20425

>  <r_epik_Charging_Adjusted_Penalty>  (379) 
2.15731

>  <i_epik_Tot_Q>  (379) 
0

>  <i_epik_Tot_abs_Q>  (379) 
2

>  <s_epik_Chemistry_Notes>  (379) 
This compound has an imine and may undergo hydrolysis.

>  <s_lp_Force_Field>  (379) 
OPLS3e

>  <r_lp_Energy>  (379) 
14.0349

>  <b_lp_Chiralities_Consistent>  (379) 
1

>  <s_lp_Variant>  (379) 
97:0-3

>  <s_i_glide_gridfile>  (379) 
pfpi4k_grid

>  <i_i_glide_lignum>  (379) 
17

>  <i_i_glide_rotatable_bonds>  (379) 
1

>  <r_i_docking_score>  (379) 
-3.47573

>  <r_i_glide_ligand_efficiency>  (379) 
-0.217233

>  <r_i_glide_ligand_efficiency_sa>  (379) 
-0.547394

>  <r_i_glide_ligand_efficiency_ln>  (379) 
-0.921312

>  <r_i_glide_gscore>  (379) 
-3.47573

>  <r_i_glide_lipo>  (379) 
-0.130226

>  <r_i_glide_hbond>  (379) 
-0.0100388

>  <r_i_glide_metal>  (379) 
-0

>  <r_i_glide_rewards>  (379) 
-2.05881

>  <r_i_glide_evdw>  (379) 
-17.6741

>  <r_i_glide_ecoul>  (379) 
-2.19826

>  <r_i_glide_erotb>  (379) 
0

>  <r_i_glide_esite>  (379) 
-0.063214

>  <r_i_glide_emodel>  (379) 
-25.4512

>  <r_i_glide_energy>  (379) 
-19.8723

>  <r_i_glide_einternal>  (379) 
0.0045765

>  <r_i_glide_intrahb_reward>  (379) 
-0

>  <i_i_glide_confnum>  (379) 
1

>  <i_i_glide_posenum>  (379) 
3

>  <r_i_glide_eff_state_penalty>  (379) 
0

>  <ligand_id>  (379) 
97

>  <original_smiles>  (379) 
CCn1cnc2c1C1=NCCN1C(=O)C2O

>  <smiles>  (379) 
[H]c1nc2c(n1C([H])([H])C([H])([H])[H])C1=[N+]([H])C([H])([H])C([H])([H])N1C(=O)C2([H])[O-]

$$$$
97:3:0
     RDKit          3D

 29 31  0  0  1  0  0  0  0  0999 V2000
    2.8241   -3.8426   -3.9331 C   0  0  0  0  0  0  0  0  0  0  0  0
    2.3433   -3.3767   -2.5555 C   0  0  0  0  0  0  0  0  0  0  0  0
    3.2612   -2.4112   -1.9400 N   0  0  0  0  0  0  0  0  0  0  0  0
    3.7730   -1.3658   -2.6156 C   0  0  0  0  0  0  0  0  0  0  0  0
    4.5489   -0.6675   -1.7792 N   0  0  0  0  0  0  0  0  0  0  0  0
    4.5362   -1.2493   -0.5403 C   0  0  0  0  0  0  0  0  0  0  0  0
    3.7133   -2.3228   -0.6533 C   0  0  0  0  0  0  0  0  0  0  0  0
    3.4839   -3.1643    0.5424 C   0  0  0  0  0  0  0  0  0  0  0  0
    2.7175   -4.1947    0.6183 N   0  0  0  0  0  0  0  0  0  0  0  0
    2.8332   -4.7111    1.9641 C   0  0  0  0  0  0  0  0  0  0  0  0
    3.8400   -3.8136    2.7017 C   0  0  0  0  0  0  0  0  0  0  0  0
    4.1746   -2.8337    1.7007 N   0  0  0  0  0  0  0  0  0  0  0  0
    5.0342   -1.7893    1.8381 C   0  0  0  0  0  0  0  0  0  0  0  0
    5.6634   -1.5966    2.8757 O   0  0  0  0  0  0  0  0  0  0  0  0
    5.2526   -0.7886    0.6782 C   0  0  1  0  0  0  0  0  0  0  0  0
    6.6355   -0.6565    0.4484 O   0  0  0  0  0  0  0  0  0  0  0  0
    2.1745   -4.6258   -4.3152 H   0  0  0  0  0  0  0  0  0  0  0  0
    3.8320   -4.2507   -3.8789 H   0  0  0  0  0  0  0  0  0  0  0  0
    2.8163   -3.0415   -4.6718 H   0  0  0  0  0  0  0  0  0  0  0  0
    1.3598   -2.9121   -2.6018 H   0  0  0  0  0  0  0  0  0  0  0  0
    2.2610   -4.2372   -1.9074 H   0  0  0  0  0  0  0  0  0  0  0  0
    3.5797   -1.1249   -3.6373 H   0  0  0  0  0  0  0  0  0  0  0  0
    1.8600   -4.6959    2.4578 H   0  0  0  0  0  0  0  0  0  0  0  0
    3.1685   -5.7504    1.9517 H   0  0  0  0  0  0  0  0  0  0  0  0
    3.3919   -3.3437    3.5769 H   0  0  0  0  0  0  0  0  0  0  0  0
    4.7238   -4.3718    3.0085 H   0  0  0  0  0  0  0  0  0  0  0  0
    4.8400    0.1720    0.9806 H   0  0  0  0  0  0  0  0  0  0  0  0
    7.0238   -0.1941    1.1883 H   0  0  0  0  0  0  0  0  0  0  0  0
    5.0260    0.1949   -2.0126 H   0  0  0  0  0  0  0  0  0  0  0  0
  1  2  1  0
  1 17  1  0
  1 18  1  0
  1 19  1  0
  2  3  1  0
  2 20  1  0
  2 21  1  0
  3  7  1  0
  3  4  1  0
  4  5  2  0
  4 22  1  0
  5  6  1  0
  5 29  1  0
  6 15  1  0
  6  7  2  0
  7  8  1  0
  8 12  1  0
  8  9  2  0
  9 10  1  0
 10 11  1  0
 10 23  1  0
 10 24  1  0
 11 12  1  0
 11 25  1  0
 11 26  1  0
 12 13  1  0
 13 14  2  0
 13 15  1  0
 15 16  1  0
 15 27  1  1
 16 28  1  0
M  CHG  1   5   1
M  END
>  <i_m_ct_stereo_status>  (380) 
1

>  <s_m_source_file>  (380) 
/var/tmp/pbs.5076255.sched01/tmpgahbdy6u/1388ql836nh.sdf

>  <i_m_source_file_index>  (380) 
18

>  <i_lp_mmshare_version>  (380) 
48012

>  <i_f3d_flags>  (380) 
0

>  <s_epik_input>  (380) 
W0NIM11bQ0gyXW4oW2NIXW4xKWMoYzEyKUM9M04oW0NIMl1bQ0gyXU4zKUMoPU8pW0NASF0yW09IXQ==

>  <s_epik_cmdline>  (380) 
J2VwaWtfcHl0aG9uJywgJy1waHQnLCAnMi4wJywgJy1waCcsICc3LjAnLCAnLXRuJywgJzgnLCAnLW1hJywgJzIwMCcsICctaW1hZScsICc8aW5maWxlLm1hZT4nLCAnLW9tYWUnLCAnPG91dGZpbGUubWFlPic=

>  <r_epik_Ionization_Penalty>  (380) 
2.81536

>  <r_epik_Ionization_Penalty_Charging>  (380) 
0

>  <r_epik_Ionization_Penalty_Neutral>  (380) 
2.81536

>  <r_epik_State_Penalty>  (380) 
1.92686

>  <r_epik_Charging_Adjusted_Penalty>  (380) 
1.92686

>  <i_epik_Tot_Q>  (380) 
1

>  <i_epik_Tot_abs_Q>  (380) 
1

>  <s_epik_Chemistry_Notes>  (380) 
This compound has an imine and may undergo hydrolysis.

>  <s_lp_Force_Field>  (380) 
OPLS3e

>  <r_lp_Energy>  (380) 
14.9776

>  <b_lp_Chiralities_Consistent>  (380) 
1

>  <s_lp_Variant>  (380) 
97:0-4

>  <s_i_glide_gridfile>  (380) 
pfpi4k_grid

>  <i_i_glide_lignum>  (380) 
18

>  <i_i_glide_rotatable_bonds>  (380) 
2

>  <r_i_docking_score>  (380) 
-4.54524

>  <r_i_glide_ligand_efficiency>  (380) 
-0.284078

>  <r_i_glide_ligand_efficiency_sa>  (380) 
-0.715831

>  <r_i_glide_ligand_efficiency_ln>  (380) 
-1.20481

>  <r_i_glide_gscore>  (380) 
-4.54524

>  <r_i_glide_lipo>  (380) 
-0.366691

>  <r_i_glide_hbond>  (380) 
0

>  <r_i_glide_metal>  (380) 
-0

>  <r_i_glide_rewards>  (380) 
-2.00291

>  <r_i_glide_evdw>  (380) 
-17.3704

>  <r_i_glide_ecoul>  (380) 
-7.73919

>  <r_i_glide_erotb>  (380) 
0

>  <r_i_glide_esite>  (380) 
-0.14624

>  <r_i_glide_emodel>  (380) 
-34.2032

>  <r_i_glide_energy>  (380) 
-25.1096

>  <r_i_glide_einternal>  (380) 
2.31484

>  <r_i_glide_intrahb_reward>  (380) 
-0

>  <i_i_glide_confnum>  (380) 
1

>  <i_i_glide_posenum>  (380) 
11

>  <r_i_glide_eff_state_penalty>  (380) 
0

>  <ligand_id>  (380) 
97

>  <original_smiles>  (380) 
CCn1cnc2c1C1=NCCN1C(=O)C2O

>  <smiles>  (380) 
[H]OC1([H])C(=O)N2C(=NC([H])([H])C2([H])[H])c2c1[n+]([H])c([H])n2C([H])([H])C([H])([H])[H]

$$$$
97:3:1
     RDKit          3D

 29 31  0  0  1  0  0  0  0  0999 V2000
    1.7230   -2.4477    2.5642 C   0  0  0  0  0  0  0  0  0  0  0  0
    2.2677   -1.1652    3.1951 C   0  0  0  0  0  0  0  0  0  0  0  0
    1.4415    0.0084    2.8555 N   0  0  0  0  0  0  0  0  0  0  0  0
    1.6095    0.7165    1.7303 C   0  0  0  0  0  0  0  0  0  0  0  0
    0.7123    1.7183    1.7319 N   0  0  0  0  0  0  0  0  0  0  0  0
   -0.0529    1.6652    2.8650 C   0  0  0  0  0  0  0  0  0  0  0  0
    0.4099    0.5896    3.5461 C   0  0  0  0  0  0  0  0  0  0  0  0
   -0.2119    0.2659    4.8404 C   0  0  0  0  0  0  0  0  0  0  0  0
    0.1054   -0.7235    5.5977 N   0  0  0  0  0  0  0  0  0  0  0  0
   -0.7342   -0.6472    6.7657 C   0  0  0  0  0  0  0  0  0  0  0  0
   -1.6211    0.6024    6.6011 C   0  0  0  0  0  0  0  0  0  0  0  0
   -1.2138    1.0983    5.3117 N   0  0  0  0  0  0  0  0  0  0  0  0
   -1.6729    2.2152    4.6863 C   0  0  0  0  0  0  0  0  0  0  0  0
   -2.5048    2.9486    5.2236 O   0  0  0  0  0  0  0  0  0  0  0  0
   -1.1611    2.5907    3.2693 C   0  0  1  0  0  0  0  0  0  0  0  0
   -0.7522    3.9488    3.2742 O   0  0  0  0  0  0  0  0  0  0  0  0
    2.3210   -3.3126    2.8577 H   0  0  0  0  0  0  0  0  0  0  0  0
    1.7434   -2.3842    1.4765 H   0  0  0  0  0  0  0  0  0  0  0  0
    0.6972   -2.6374    2.8817 H   0  0  0  0  0  0  0  0  0  0  0  0
    2.2931   -1.2620    4.2766 H   0  0  0  0  0  0  0  0  0  0  0  0
    3.2923   -0.9797    2.8788 H   0  0  0  0  0  0  0  0  0  0  0  0
    2.3272    0.5069    0.9611 H   0  0  0  0  0  0  0  0  0  0  0  0
   -1.3263   -1.5612    6.8270 H   0  0  0  0  0  0  0  0  0  0  0  0
   -0.1383   -0.5846    7.6808 H   0  0  0  0  0  0  0  0  0  0  0  0
   -2.6866    0.3723    6.5877 H   0  0  0  0  0  0  0  0  0  0  0  0
   -1.4238    1.3450    7.3757 H   0  0  0  0  0  0  0  0  0  0  0  0
   -1.9924    2.4466    2.5768 H   0  0  0  0  0  0  0  0  0  0  0  0
   -0.4951    4.1751    2.3792 H   0  0  0  0  0  0  0  0  0  0  0  0
    0.6113    2.4225    1.0093 H   0  0  0  0  0  0  0  0  0  0  0  0
  1  2  1  0
  1 17  1  0
  1 18  1  0
  1 19  1  0
  2  3  1  0
  2 20  1  0
  2 21  1  0
  3  7  1  0
  3  4  1  0
  4  5  2  0
  4 22  1  0
  5  6  1  0
  5 29  1  0
  6 15  1  0
  6  7  2  0
  7  8  1  0
  8 12  1  0
  8  9  2  0
  9 10  1  0
 10 11  1  0
 10 23  1  0
 10 24  1  0
 11 12  1  0
 11 25  1  0
 11 26  1  0
 12 13  1  0
 13 14  2  0
 13 15  1  0
 15 16  1  0
 15 27  1  6
 16 28  1  0
M  CHG  1   5   1
M  END
>  <i_m_ct_stereo_status>  (381) 
1

>  <s_m_source_file>  (381) 
/var/tmp/pbs.5076255.sched01/tmpgahbdy6u/1388ql836nh.sdf

>  <i_m_source_file_index>  (381) 
18

>  <i_lp_mmshare_version>  (381) 
48012

>  <i_f3d_flags>  (381) 
0

>  <s_epik_input>  (381) 
W0NIM11bQ0gyXW4oW2NIXW4xKWMoYzEyKUM9M04oW0NIMl1bQ0gyXU4zKUMoPU8pW0NASF0yW09IXQ==

>  <s_epik_cmdline>  (381) 
J2VwaWtfcHl0aG9uJywgJy1waHQnLCAnMi4wJywgJy1waCcsICc3LjAnLCAnLXRuJywgJzgnLCAnLW1hJywgJzIwMCcsICctaW1hZScsICc8aW5maWxlLm1hZT4nLCAnLW9tYWUnLCAnPG91dGZpbGUubWFlPic=

>  <r_epik_Ionization_Penalty>  (381) 
2.81536

>  <r_epik_Ionization_Penalty_Charging>  (381) 
0

>  <r_epik_Ionization_Penalty_Neutral>  (381) 
2.81536

>  <r_epik_State_Penalty>  (381) 
1.92686

>  <r_epik_Charging_Adjusted_Penalty>  (381) 
1.92686

>  <i_epik_Tot_Q>  (381) 
1

>  <i_epik_Tot_abs_Q>  (381) 
1

>  <s_epik_Chemistry_Notes>  (381) 
This compound has an imine and may undergo hydrolysis.

>  <s_lp_Force_Field>  (381) 
OPLS3e

>  <r_lp_Energy>  (381) 
14.9776

>  <b_lp_Chiralities_Consistent>  (381) 
1

>  <s_lp_Variant>  (381) 
97:0-4

>  <s_i_glide_gridfile>  (381) 
pfpi4k_grid

>  <i_i_glide_lignum>  (381) 
18

>  <i_i_glide_rotatable_bonds>  (381) 
2

>  <r_i_docking_score>  (381) 
-4.34605

>  <r_i_glide_ligand_efficiency>  (381) 
-0.271628

>  <r_i_glide_ligand_efficiency_sa>  (381) 
-0.68446

>  <r_i_glide_ligand_efficiency_ln>  (381) 
-1.15201

>  <r_i_glide_gscore>  (381) 
-4.34605

>  <r_i_glide_lipo>  (381) 
0

>  <r_i_glide_hbond>  (381) 
-0.171871

>  <r_i_glide_metal>  (381) 
-0

>  <r_i_glide_rewards>  (381) 
-1.90066

>  <r_i_glide_evdw>  (381) 
-15.6167

>  <r_i_glide_ecoul>  (381) 
-8.59706

>  <r_i_glide_erotb>  (381) 
0

>  <r_i_glide_esite>  (381) 
-0.203117

>  <r_i_glide_emodel>  (381) 
-33.9391

>  <r_i_glide_energy>  (381) 
-24.2138

>  <r_i_glide_einternal>  (381) 
0.162239

>  <r_i_glide_intrahb_reward>  (381) 
-0

>  <i_i_glide_confnum>  (381) 
1

>  <i_i_glide_posenum>  (381) 
36

>  <r_i_glide_eff_state_penalty>  (381) 
0

>  <ligand_id>  (381) 
97

>  <original_smiles>  (381) 
CCn1cnc2c1C1=NCCN1C(=O)C2O

>  <smiles>  (381) 
[H]OC1([H])C(=O)N2C(=NC([H])([H])C2([H])[H])c2c1[n+]([H])c([H])n2C([H])([H])C([H])([H])[H]

$$$$
97:3:2
     RDKit          3D

 29 31  0  0  1  0  0  0  0  0999 V2000
    0.3511   -1.1199    3.6761 C   0  0  0  0  0  0  0  0  0  0  0  0
    0.6604   -0.3753    2.3682 C   0  0  0  0  0  0  0  0  0  0  0  0
    1.3276    0.9010    2.6171 N   0  0  0  0  0  0  0  0  0  0  0  0
    2.6573    1.0338    2.5894 C   0  0  0  0  0  0  0  0  0  0  0  0
    2.9547    2.3095    2.8805 N   0  0  0  0  0  0  0  0  0  0  0  0
    1.8001    3.0248    3.0978 C   0  0  0  0  0  0  0  0  0  0  0  0
    0.7977    2.1233    2.9278 C   0  0  0  0  0  0  0  0  0  0  0  0
   -0.5924    2.5670    3.1348 C   0  0  0  0  0  0  0  0  0  0  0  0
   -1.6492    1.8494    2.9860 N   0  0  0  0  0  0  0  0  0  0  0  0
   -2.7854    2.7089    3.2557 C   0  0  0  0  0  0  0  0  0  0  0  0
   -2.2237    4.0789    3.6548 C   0  0  0  0  0  0  0  0  0  0  0  0
   -0.8077    3.8769    3.5312 N   0  0  0  0  0  0  0  0  0  0  0  0
    0.1560    4.8070    3.7477 C   0  0  0  0  0  0  0  0  0  0  0  0
   -0.1440    5.9208    4.1781 O   0  0  0  0  0  0  0  0  0  0  0  0
    1.6499    4.4773    3.4506 C   0  0  1  0  0  0  0  0  0  0  0  0
    2.4357    4.8115    4.5789 O   0  0  0  0  0  0  0  0  0  0  0  0
   -0.1758   -2.0553    3.4882 H   0  0  0  0  0  0  0  0  0  0  0  0
   -0.2772   -0.5154    4.3301 H   0  0  0  0  0  0  0  0  0  0  0  0
    1.2670   -1.3645    4.2140 H   0  0  0  0  0  0  0  0  0  0  0  0
    1.2798   -0.9819    1.7042 H   0  0  0  0  0  0  0  0  0  0  0  0
   -0.2410   -0.1434    1.8126 H   0  0  0  0  0  0  0  0  0  0  0  0
    3.3699    0.2654    2.3671 H   0  0  0  0  0  0  0  0  0  0  0  0
   -3.4312    2.7825    2.3782 H   0  0  0  0  0  0  0  0  0  0  0  0
   -3.3867    2.2995    4.0610 H   0  0  0  0  0  0  0  0  0  0  0  0
   -2.5788    4.8608    2.9840 H   0  0  0  0  0  0  0  0  0  0  0  0
   -2.4725    4.3264    4.6847 H   0  0  0  0  0  0  0  0  0  0  0  0
    1.9606    5.0789    2.5950 H   0  0  0  0  0  0  0  0  0  0  0  0
    3.3504    4.7197    4.3685 H   0  0  0  0  0  0  0  0  0  0  0  0
    3.9112    2.6703    2.8608 H   0  0  0  0  0  0  0  0  0  0  0  0
  1  2  1  0
  1 17  1  0
  1 18  1  0
  1 19  1  0
  2  3  1  0
  2 20  1  0
  2 21  1  0
  3  7  1  0
  3  4  1  0
  4  5  2  0
  4 22  1  0
  5  6  1  0
  5 29  1  0
  6 15  1  0
  6  7  2  0
  7  8  1  0
  8 12  1  0
  8  9  2  0
  9 10  1  0
 10 11  1  0
 10 23  1  0
 10 24  1  0
 11 12  1  0
 11 25  1  0
 11 26  1  0
 12 13  1  0
 13 14  2  0
 13 15  1  0
 15 16  1  0
 15 27  1  6
 16 28  1  0
M  CHG  1   5   1
M  END
>  <i_m_ct_stereo_status>  (382) 
1

>  <s_m_source_file>  (382) 
/var/tmp/pbs.5076255.sched01/tmpgahbdy6u/1388ql836nh.sdf

>  <i_m_source_file_index>  (382) 
18

>  <i_lp_mmshare_version>  (382) 
48012

>  <i_f3d_flags>  (382) 
0

>  <s_epik_input>  (382) 
W0NIM11bQ0gyXW4oW2NIXW4xKWMoYzEyKUM9M04oW0NIMl1bQ0gyXU4zKUMoPU8pW0NASF0yW09IXQ==

>  <s_epik_cmdline>  (382) 
J2VwaWtfcHl0aG9uJywgJy1waHQnLCAnMi4wJywgJy1waCcsICc3LjAnLCAnLXRuJywgJzgnLCAnLW1hJywgJzIwMCcsICctaW1hZScsICc8aW5maWxlLm1hZT4nLCAnLW9tYWUnLCAnPG91dGZpbGUubWFlPic=

>  <r_epik_Ionization_Penalty>  (382) 
2.81536

>  <r_epik_Ionization_Penalty_Charging>  (382) 
0

>  <r_epik_Ionization_Penalty_Neutral>  (382) 
2.81536

>  <r_epik_State_Penalty>  (382) 
1.92686

>  <r_epik_Charging_Adjusted_Penalty>  (382) 
1.92686

>  <i_epik_Tot_Q>  (382) 
1

>  <i_epik_Tot_abs_Q>  (382) 
1

>  <s_epik_Chemistry_Notes>  (382) 
This compound has an imine and may undergo hydrolysis.

>  <s_lp_Force_Field>  (382) 
OPLS3e

>  <r_lp_Energy>  (382) 
14.9776

>  <b_lp_Chiralities_Consistent>  (382) 
1

>  <s_lp_Variant>  (382) 
97:0-4

>  <s_i_glide_gridfile>  (382) 
pfpi4k_grid

>  <i_i_glide_lignum>  (382) 
18

>  <i_i_glide_rotatable_bonds>  (382) 
2

>  <r_i_docking_score>  (382) 
-4.28692

>  <r_i_glide_ligand_efficiency>  (382) 
-0.267932

>  <r_i_glide_ligand_efficiency_sa>  (382) 
-0.675147

>  <r_i_glide_ligand_efficiency_ln>  (382) 
-1.13633

>  <r_i_glide_gscore>  (382) 
-4.28692

>  <r_i_glide_lipo>  (382) 
0

>  <r_i_glide_hbond>  (382) 
-0.0104062

>  <r_i_glide_metal>  (382) 
-0

>  <r_i_glide_rewards>  (382) 
-1.91407

>  <r_i_glide_evdw>  (382) 
-15.8263

>  <r_i_glide_ecoul>  (382) 
-8.25035

>  <r_i_glide_erotb>  (382) 
0

>  <r_i_glide_esite>  (382) 
-0.333571

>  <r_i_glide_emodel>  (382) 
-33.7345

>  <r_i_glide_energy>  (382) 
-24.0766

>  <r_i_glide_einternal>  (382) 
0.0108921

>  <r_i_glide_intrahb_reward>  (382) 
-0

>  <i_i_glide_confnum>  (382) 
1

>  <i_i_glide_posenum>  (382) 
22

>  <r_i_glide_eff_state_penalty>  (382) 
0

>  <ligand_id>  (382) 
97

>  <original_smiles>  (382) 
CCn1cnc2c1C1=NCCN1C(=O)C2O

>  <smiles>  (382) 
[H]OC1([H])C(=O)N2C(=NC([H])([H])C2([H])[H])c2c1[n+]([H])c([H])n2C([H])([H])C([H])([H])[H]

$$$$
97:4:0
     RDKit          3D

 27 29  0  0  1  0  0  0  0  0999 V2000
    3.8299   -0.3414   -3.2572 C   0  0  0  0  0  0  0  0  0  0  0  0
    3.9746   -1.8405   -3.5492 C   0  0  0  0  0  0  0  0  0  0  0  0
    3.5126   -2.6565   -2.4353 N   0  0  0  0  0  0  0  0  0  0  0  0
    2.2451   -3.0620   -2.2149 C   0  0  0  0  0  0  0  0  0  0  0  0
    2.0510   -3.7919   -1.1216 N   0  0  0  0  0  0  0  0  0  0  0  0
    3.3243   -3.8678   -0.5602 C   0  0  0  0  0  0  0  0  0  0  0  0
    4.2250   -3.1980   -1.3612 C   0  0  0  0  0  0  0  0  0  0  0  0
    5.6556   -3.1360   -1.0413 C   0  0  0  0  0  0  0  0  0  0  0  0
    6.5866   -2.5232   -1.6905 N   0  0  0  0  0  0  0  0  0  0  0  0
    7.8278   -2.7903   -0.9819 C   0  0  0  0  0  0  0  0  0  0  0  0
    7.4673   -3.6740    0.2285 C   0  0  0  0  0  0  0  0  0  0  0  0
    6.0407   -3.8335    0.0975 N   0  0  0  0  0  0  0  0  0  0  0  0
    5.2250   -4.5432    0.9407 C   0  0  0  0  0  0  0  0  0  0  0  0
    5.7171   -5.1506    1.8954 O   0  0  0  0  0  0  0  0  0  0  0  0
    3.6638   -4.6142    0.7272 C   0  0  1  0  0  0  0  0  0  0  0  0
    3.0957   -4.0049    1.7422 O   0  0  0  0  0  0  0  0  0  0  0  0
    4.1860    0.2622   -4.0919 H   0  0  0  0  0  0  0  0  0  0  0  0
    4.4022   -0.0555   -2.3741 H   0  0  0  0  0  0  0  0  0  0  0  0
    2.7876   -0.0691   -3.0835 H   0  0  0  0  0  0  0  0  0  0  0  0
    3.3900   -2.0988   -4.4314 H   0  0  0  0  0  0  0  0  0  0  0  0
    5.0088   -2.0870   -3.7792 H   0  0  0  0  0  0  0  0  0  0  0  0
    1.4330   -2.7966   -2.8763 H   0  0  0  0  0  0  0  0  0  0  0  0
    8.5509   -3.2905   -1.6298 H   0  0  0  0  0  0  0  0  0  0  0  0
    8.2956   -1.8622   -0.6506 H   0  0  0  0  0  0  0  0  0  0  0  0
    7.9659   -4.6429    0.1922 H   0  0  0  0  0  0  0  0  0  0  0  0
    7.7041   -3.1853    1.1738 H   0  0  0  0  0  0  0  0  0  0  0  0
    3.4826   -5.6706    0.5243 H   0  0  0  0  0  0  0  0  0  0  0  0
  1  2  1  0
  1 17  1  0
  1 18  1  0
  1 19  1  0
  2  3  1  0
  2 20  1  0
  2 21  1  0
  3  7  1  0
  3  4  1  0
  4  5  2  0
  4 22  1  0
  5  6  1  0
  6 15  1  0
  6  7  2  0
  7  8  1  0
  8 12  1  0
  8  9  2  0
  9 10  1  0
 10 11  1  0
 10 23  1  0
 10 24  1  0
 11 12  1  0
 11 25  1  0
 11 26  1  0
 12 13  1  0
 13 14  2  0
 13 15  1  0
 15 16  1  0
 15 27  1  6
M  CHG  1  16  -1
M  END
>  <i_m_ct_stereo_status>  (383) 
1

>  <s_m_source_file>  (383) 
/var/tmp/pbs.5076255.sched01/tmpgahbdy6u/1388ql836nh.sdf

>  <i_m_source_file_index>  (383) 
19

>  <i_lp_mmshare_version>  (383) 
48012

>  <i_f3d_flags>  (383) 
0

>  <s_epik_input>  (383) 
W0NIM11bQ0gyXW4oW2NIXW4xKWMoYzEyKUM9M04oW0NIMl1bQ0gyXU4zKUMoPU8pW0NASF0yW09IXQ==

>  <s_epik_cmdline>  (383) 
J2VwaWtfcHl0aG9uJywgJy1waHQnLCAnMi4wJywgJy1waCcsICc3LjAnLCAnLXRuJywgJzgnLCAnLW1hJywgJzIwMCcsICctaW1hZScsICc8aW5maWxlLm1hZT4nLCAnLW9tYWUnLCAnPG91dGZpbGUubWFlPic=

>  <r_epik_Ionization_Penalty>  (383) 
2.61893

>  <r_epik_Ionization_Penalty_Charging>  (383) 
1.2962

>  <r_epik_Ionization_Penalty_Neutral>  (383) 
1.32272

>  <r_epik_State_Penalty>  (383) 
2.08916

>  <r_epik_Charging_Adjusted_Penalty>  (383) 
3.38536

>  <i_epik_Tot_Q>  (383) 
-1

>  <i_epik_Tot_abs_Q>  (383) 
1

>  <s_epik_Chemistry_Notes>  (383) 
This compound has an imine and may undergo hydrolysis.

>  <s_lp_Force_Field>  (383) 
OPLS3e

>  <r_lp_Energy>  (383) 
23.9751

>  <b_lp_Chiralities_Consistent>  (383) 
1

>  <s_lp_Variant>  (383) 
97:0-5

>  <s_i_glide_gridfile>  (383) 
pfpi4k_grid

>  <i_i_glide_lignum>  (383) 
19

>  <i_i_glide_rotatable_bonds>  (383) 
1

>  <r_i_docking_score>  (383) 
-3.99459

>  <r_i_glide_ligand_efficiency>  (383) 
-0.249662

>  <r_i_glide_ligand_efficiency_sa>  (383) 
-0.629109

>  <r_i_glide_ligand_efficiency_ln>  (383) 
-1.05885

>  <r_i_glide_gscore>  (383) 
-3.99459

>  <r_i_glide_lipo>  (383) 
-0.575491

>  <r_i_glide_hbond>  (383) 
-0.0776373

>  <r_i_glide_metal>  (383) 
-0

>  <r_i_glide_rewards>  (383) 
-2.26418

>  <r_i_glide_evdw>  (383) 
-24.661

>  <r_i_glide_ecoul>  (383) 
1.18397

>  <r_i_glide_erotb>  (383) 
0

>  <r_i_glide_esite>  (383) 
-0.0218234

>  <r_i_glide_emodel>  (383) 
-33.1254

>  <r_i_glide_energy>  (383) 
-23.4771

>  <r_i_glide_einternal>  (383) 
0.0986536

>  <r_i_glide_intrahb_reward>  (383) 
-0

>  <i_i_glide_confnum>  (383) 
1

>  <i_i_glide_posenum>  (383) 
2

>  <r_i_glide_eff_state_penalty>  (383) 
0

>  <ligand_id>  (383) 
97

>  <original_smiles>  (383) 
CCn1cnc2c1C1=NCCN1C(=O)C2O

>  <smiles>  (383) 
[H]c1nc2c(n1C([H])([H])C([H])([H])[H])C1=NC([H])([H])C([H])([H])N1C(=O)C2([H])[O-]

$$$$
97:4:1
     RDKit          3D

 27 29  0  0  1  0  0  0  0  0999 V2000
    1.9388    2.6319    2.1213 C   0  0  0  0  0  0  0  0  0  0  0  0
    1.0819    1.4595    1.6236 C   0  0  0  0  0  0  0  0  0  0  0  0
    0.6847    0.5678    2.7084 N   0  0  0  0  0  0  0  0  0  0  0  0
    1.0847   -0.7031    2.8755 C   0  0  0  0  0  0  0  0  0  0  0  0
    0.6036   -1.3213    3.9435 N   0  0  0  0  0  0  0  0  0  0  0  0
   -0.2168   -0.3587    4.5204 C   0  0  0  0  0  0  0  0  0  0  0  0
   -0.1728    0.8006    3.7780 C   0  0  0  0  0  0  0  0  0  0  0  0
   -0.9113    2.0143    4.1622 C   0  0  0  0  0  0  0  0  0  0  0  0
   -0.9725    3.1417    3.5502 N   0  0  0  0  0  0  0  0  0  0  0  0
   -1.7784    4.0214    4.3605 C   0  0  0  0  0  0  0  0  0  0  0  0
   -2.2404    3.2142    5.5839 C   0  0  0  0  0  0  0  0  0  0  0  0
   -1.6177    1.9328    5.3611 N   0  0  0  0  0  0  0  0  0  0  0  0
   -1.6917    0.8441    6.1763 C   0  0  0  0  0  0  0  0  0  0  0  0
   -2.3190    0.9460    7.2408 O   0  0  0  0  0  0  0  0  0  0  0  0
   -1.0150   -0.5282    5.8029 C   0  0  1  0  0  0  0  0  0  0  0  0
   -1.9890   -1.3964    5.6280 O   0  0  0  0  0  0  0  0  0  0  0  0
    2.2064    3.2960    1.3057 H   0  0  0  0  0  0  0  0  0  0  0  0
    2.8379    2.2854    2.6359 H   0  0  0  0  0  0  0  0  0  0  0  0
    1.4024    3.2720    2.8157 H   0  0  0  0  0  0  0  0  0  0  0  0
    0.1877    1.7842    1.0979 H   0  0  0  0  0  0  0  0  0  0  0  0
    1.6550    0.8761    0.9065 H   0  0  0  0  0  0  0  0  0  0  0  0
    1.7525   -1.1913    2.1779 H   0  0  0  0  0  0  0  0  0  0  0  0
   -1.2076    4.9008    4.6657 H   0  0  0  0  0  0  0  0  0  0  0  0
   -2.6184    4.3789    3.7686 H   0  0  0  0  0  0  0  0  0  0  0  0
   -1.8951    3.6567    6.5226 H   0  0  0  0  0  0  0  0  0  0  0  0
   -3.3275    3.1101    5.6090 H   0  0  0  0  0  0  0  0  0  0  0  0
   -0.2668   -0.6473    6.5931 H   0  0  0  0  0  0  0  0  0  0  0  0
  1  2  1  0
  1 17  1  0
  1 18  1  0
  1 19  1  0
  2  3  1  0
  2 20  1  0
  2 21  1  0
  3  7  1  0
  3  4  1  0
  4  5  2  0
  4 22  1  0
  5  6  1  0
  6 15  1  0
  6  7  2  0
  7  8  1  0
  8 12  1  0
  8  9  2  0
  9 10  1  0
 10 11  1  0
 10 23  1  0
 10 24  1  0
 11 12  1  0
 11 25  1  0
 11 26  1  0
 12 13  1  0
 13 14  2  0
 13 15  1  0
 15 16  1  0
 15 27  1  1
M  CHG  1  16  -1
M  END
>  <i_m_ct_stereo_status>  (384) 
1

>  <s_m_source_file>  (384) 
/var/tmp/pbs.5076255.sched01/tmpgahbdy6u/1388ql836nh.sdf

>  <i_m_source_file_index>  (384) 
19

>  <i_lp_mmshare_version>  (384) 
48012

>  <i_f3d_flags>  (384) 
0

>  <s_epik_input>  (384) 
W0NIM11bQ0gyXW4oW2NIXW4xKWMoYzEyKUM9M04oW0NIMl1bQ0gyXU4zKUMoPU8pW0NASF0yW09IXQ==

>  <s_epik_cmdline>  (384) 
J2VwaWtfcHl0aG9uJywgJy1waHQnLCAnMi4wJywgJy1waCcsICc3LjAnLCAnLXRuJywgJzgnLCAnLW1hJywgJzIwMCcsICctaW1hZScsICc8aW5maWxlLm1hZT4nLCAnLW9tYWUnLCAnPG91dGZpbGUubWFlPic=

>  <r_epik_Ionization_Penalty>  (384) 
2.61893

>  <r_epik_Ionization_Penalty_Charging>  (384) 
1.2962

>  <r_epik_Ionization_Penalty_Neutral>  (384) 
1.32272

>  <r_epik_State_Penalty>  (384) 
2.08916

>  <r_epik_Charging_Adjusted_Penalty>  (384) 
3.38536

>  <i_epik_Tot_Q>  (384) 
-1

>  <i_epik_Tot_abs_Q>  (384) 
1

>  <s_epik_Chemistry_Notes>  (384) 
This compound has an imine and may undergo hydrolysis.

>  <s_lp_Force_Field>  (384) 
OPLS3e

>  <r_lp_Energy>  (384) 
23.9751

>  <b_lp_Chiralities_Consistent>  (384) 
1

>  <s_lp_Variant>  (384) 
97:0-5

>  <s_i_glide_gridfile>  (384) 
pfpi4k_grid

>  <i_i_glide_lignum>  (384) 
19

>  <i_i_glide_rotatable_bonds>  (384) 
1

>  <r_i_docking_score>  (384) 
-3.56653

>  <r_i_glide_ligand_efficiency>  (384) 
-0.222908

>  <r_i_glide_ligand_efficiency_sa>  (384) 
-0.561693

>  <r_i_glide_ligand_efficiency_ln>  (384) 
-0.94538

>  <r_i_glide_gscore>  (384) 
-3.56653

>  <r_i_glide_lipo>  (384) 
0

>  <r_i_glide_hbond>  (384) 
-0.170176

>  <r_i_glide_metal>  (384) 
-0

>  <r_i_glide_rewards>  (384) 
-1.91441

>  <r_i_glide_evdw>  (384) 
-17.6613

>  <r_i_glide_ecoul>  (384) 
-2.93892

>  <r_i_glide_erotb>  (384) 
0

>  <r_i_glide_esite>  (384) 
-0.158041

>  <r_i_glide_emodel>  (384) 
-28.6859

>  <r_i_glide_energy>  (384) 
-20.6002

>  <r_i_glide_einternal>  (384) 
0.496057

>  <r_i_glide_intrahb_reward>  (384) 
-0

>  <i_i_glide_confnum>  (384) 
1

>  <i_i_glide_posenum>  (384) 
5

>  <r_i_glide_eff_state_penalty>  (384) 
0

>  <ligand_id>  (384) 
97

>  <original_smiles>  (384) 
CCn1cnc2c1C1=NCCN1C(=O)C2O

>  <smiles>  (384) 
[H]c1nc2c(n1C([H])([H])C([H])([H])[H])C1=NC([H])([H])C([H])([H])N1C(=O)C2([H])[O-]

$$$$
97:4:2
     RDKit          3D

 27 29  0  0  1  0  0  0  0  0999 V2000
    4.1624   -2.0476   -4.1955 C   0  0  0  0  0  0  0  0  0  0  0  0
    3.5037   -1.4440   -2.9556 C   0  0  0  0  0  0  0  0  0  0  0  0
    3.1060   -2.4846   -2.0232 N   0  0  0  0  0  0  0  0  0  0  0  0
    1.9788   -3.2086   -2.0988 C   0  0  0  0  0  0  0  0  0  0  0  0
    1.7872   -4.0810   -1.1158 N   0  0  0  0  0  0  0  0  0  0  0  0
    2.9230   -3.9359   -0.3280 C   0  0  0  0  0  0  0  0  0  0  0  0
    3.7368   -2.9703   -0.8795 C   0  0  0  0  0  0  0  0  0  0  0  0
    5.0202   -2.6040   -0.2794 C   0  0  0  0  0  0  0  0  0  0  0  0
    5.8573   -1.7137   -0.6908 N   0  0  0  0  0  0  0  0  0  0  0  0
    6.9664   -1.7391    0.2458 C   0  0  0  0  0  0  0  0  0  0  0  0
    6.6517   -2.8339    1.2799 C   0  0  0  0  0  0  0  0  0  0  0  0
    5.3673   -3.3216    0.8587 N   0  0  0  0  0  0  0  0  0  0  0  0
    4.6405   -4.3192    1.4620 C   0  0  0  0  0  0  0  0  0  0  0  0
    5.1064   -4.9079    2.4406 O   0  0  0  0  0  0  0  0  0  0  0  0
    3.2174   -4.7465    0.9314 C   0  0  1  0  0  0  0  0  0  0  0  0
    2.3374   -4.4455    1.8574 O   0  0  0  0  0  0  0  0  0  0  0  0
    4.4607   -1.2664   -4.8956 H   0  0  0  0  0  0  0  0  0  0  0  0
    3.4822   -2.7303   -4.7084 H   0  0  0  0  0  0  0  0  0  0  0  0
    5.0472   -2.6163   -3.9121 H   0  0  0  0  0  0  0  0  0  0  0  0
    4.1646   -0.7364   -2.4628 H   0  0  0  0  0  0  0  0  0  0  0  0
    2.6188   -0.8765   -3.2426 H   0  0  0  0  0  0  0  0  0  0  0  0
    1.2453   -3.0546   -2.8741 H   0  0  0  0  0  0  0  0  0  0  0  0
    7.9038   -1.9547   -0.2673 H   0  0  0  0  0  0  0  0  0  0  0  0
    7.0853   -0.7709    0.7347 H   0  0  0  0  0  0  0  0  0  0  0  0
    7.3923   -3.6341    1.2686 H   0  0  0  0  0  0  0  0  0  0  0  0
    6.5739   -2.4246    2.2869 H   0  0  0  0  0  0  0  0  0  0  0  0
    3.3699   -5.7767    0.6035 H   0  0  0  0  0  0  0  0  0  0  0  0
  1  2  1  0
  1 17  1  0
  1 18  1  0
  1 19  1  0
  2  3  1  0
  2 20  1  0
  2 21  1  0
  3  7  1  0
  3  4  1  0
  4  5  2  0
  4 22  1  0
  5  6  1  0
  6 15  1  0
  6  7  2  0
  7  8  1  0
  8 12  1  0
  8  9  2  0
  9 10  1  0
 10 11  1  0
 10 23  1  0
 10 24  1  0
 11 12  1  0
 11 25  1  0
 11 26  1  0
 12 13  1  0
 13 14  2  0
 13 15  1  0
 15 16  1  0
 15 27  1  6
M  CHG  1  16  -1
M  END
>  <i_m_ct_stereo_status>  (385) 
1

>  <s_m_source_file>  (385) 
/var/tmp/pbs.5076255.sched01/tmpgahbdy6u/1388ql836nh.sdf

>  <i_m_source_file_index>  (385) 
19

>  <i_lp_mmshare_version>  (385) 
48012

>  <i_f3d_flags>  (385) 
0

>  <s_epik_input>  (385) 
W0NIM11bQ0gyXW4oW2NIXW4xKWMoYzEyKUM9M04oW0NIMl1bQ0gyXU4zKUMoPU8pW0NASF0yW09IXQ==

>  <s_epik_cmdline>  (385) 
J2VwaWtfcHl0aG9uJywgJy1waHQnLCAnMi4wJywgJy1waCcsICc3LjAnLCAnLXRuJywgJzgnLCAnLW1hJywgJzIwMCcsICctaW1hZScsICc8aW5maWxlLm1hZT4nLCAnLW9tYWUnLCAnPG91dGZpbGUubWFlPic=

>  <r_epik_Ionization_Penalty>  (385) 
2.61893

>  <r_epik_Ionization_Penalty_Charging>  (385) 
1.2962

>  <r_epik_Ionization_Penalty_Neutral>  (385) 
1.32272

>  <r_epik_State_Penalty>  (385) 
2.08916

>  <r_epik_Charging_Adjusted_Penalty>  (385) 
3.38536

>  <i_epik_Tot_Q>  (385) 
-1

>  <i_epik_Tot_abs_Q>  (385) 
1

>  <s_epik_Chemistry_Notes>  (385) 
This compound has an imine and may undergo hydrolysis.

>  <s_lp_Force_Field>  (385) 
OPLS3e

>  <r_lp_Energy>  (385) 
23.9751

>  <b_lp_Chiralities_Consistent>  (385) 
1

>  <s_lp_Variant>  (385) 
97:0-5

>  <s_i_glide_gridfile>  (385) 
pfpi4k_grid

>  <i_i_glide_lignum>  (385) 
19

>  <i_i_glide_rotatable_bonds>  (385) 
1

>  <r_i_docking_score>  (385) 
-3.13201

>  <r_i_glide_ligand_efficiency>  (385) 
-0.195751

>  <r_i_glide_ligand_efficiency_sa>  (385) 
-0.49326

>  <r_i_glide_ligand_efficiency_ln>  (385) 
-0.830201

>  <r_i_glide_gscore>  (385) 
-3.13201

>  <r_i_glide_lipo>  (385) 
-0.0615892

>  <r_i_glide_hbond>  (385) 
-0.00835566

>  <r_i_glide_metal>  (385) 
-0

>  <r_i_glide_rewards>  (385) 
-2.16886

>  <r_i_glide_evdw>  (385) 
-18.8892

>  <r_i_glide_ecoul>  (385) 
0.675818

>  <r_i_glide_erotb>  (385) 
0

>  <r_i_glide_esite>  (385) 
-0.0501163

>  <r_i_glide_emodel>  (385) 
-25.7425

>  <r_i_glide_energy>  (385) 
-18.2134

>  <r_i_glide_einternal>  (385) 
0.122802

>  <r_i_glide_intrahb_reward>  (385) 
-0

>  <i_i_glide_confnum>  (385) 
1

>  <i_i_glide_posenum>  (385) 
6

>  <r_i_glide_eff_state_penalty>  (385) 
0

>  <ligand_id>  (385) 
97

>  <original_smiles>  (385) 
CCn1cnc2c1C1=NCCN1C(=O)C2O

>  <smiles>  (385) 
[H]c1nc2c(n1C([H])([H])C([H])([H])[H])C1=NC([H])([H])C([H])([H])N1C(=O)C2([H])[O-]

$$$$
98:0:0
     RDKit          3D

 74 79  0  0  1  0  0  0  0  0999 V2000
    3.5595    0.3241    3.1743 C   0  0  0  0  0  0  0  0  0  0  0  0
    3.6966   -1.0049    2.6922 O   0  0  0  0  0  0  0  0  0  0  0  0
    4.7445   -1.1947    1.7432 C   0  0  2  0  0  0  0  0  0  0  0  0
    4.4453   -0.4838    0.3876 C   0  0  0  0  0  0  0  0  0  0  0  0
    4.6810   -1.5706   -0.6937 C   0  0  2  0  0  0  0  0  0  0  0  0
    5.0594   -0.9931   -1.9278 O   0  0  0  0  0  0  0  0  0  0  0  0
    3.4913   -2.5266   -0.7402 C   0  0  1  0  0  0  0  0  0  0  0  0
    3.7196   -3.4481   -1.7715 O   0  0  0  0  0  0  0  0  0  0  0  0
    3.4911   -3.1043    0.6952 C   0  0  1  0  0  0  0  0  0  0  0  0
    2.7327   -4.3861    0.9886 N   0  0  1  0  0  0  0  0  0  0  0  0
    2.0130   -5.0721   -0.1089 C   0  0  0  0  0  0  0  0  0  0  0  0
    2.8166   -5.1299    2.2947 C   0  0  0  0  0  0  0  0  0  0  0  0
    3.3235   -6.6157    2.3656 C   0  0  1  0  0  0  0  0  0  0  0  0
    2.3362   -7.6278    1.7453 C   0  0  0  0  0  0  0  0  0  0  0  0
    2.5733   -8.9779    2.0991 O   0  0  0  0  0  0  0  0  0  0  0  0
    4.8163   -6.9619    2.0416 C   0  0  1  0  0  0  0  0  0  0  0  0
    5.3372   -6.7695    0.5914 C   0  0  0  0  0  0  0  0  0  0  0  0
    6.7981   -6.1664    0.6469 C   0  0  1  0  0  0  0  0  0  0  0  0
    6.8868   -4.6150    0.3695 C   0  0  1  0  0  0  0  0  0  0  0  0
    7.1379   -3.8610    1.6203 C   0  0  0  0  0  0  0  0  0  0  0  0
    5.7293   -3.6815    2.1747 C   0  0  1  0  0  0  0  0  0  0  0  0
    5.6804   -3.9359    3.6246 N   0  0  1  0  0  0  0  0  0  0  0  0
    4.9710   -2.9839    4.5130 C   0  0  0  0  0  0  0  0  0  0  0  0
    5.7083   -5.3832    4.0531 C   0  0  0  0  0  0  0  0  0  0  0  0
    5.9509   -6.6195    3.0594 C   0  0  1  0  0  0  0  0  0  0  0  0
    6.0617   -7.7920    4.0859 C   0  0  0  0  0  0  0  0  0  0  0  0
    7.2092   -6.6606    2.0950 C   0  0  1  0  0  0  0  0  0  0  0  0
    7.6584   -7.9862    1.8858 O   0  0  0  0  0  0  0  0  0  0  0  0
    4.8988   -2.6748    1.2998 C   0  0  2  0  0  0  0  0  0  0  0  0
    5.7604   -2.3703   -0.0117 C   0  0  1  0  0  0  0  0  0  0  0  0
    6.5455   -3.5790   -0.7379 C   0  0  1  0  0  0  0  0  0  0  0  0
    7.7660   -3.0548   -1.2380 O   0  0  0  0  0  0  0  0  0  0  0  0
    2.7390    0.3552    3.8918 H   0  0  0  0  0  0  0  0  0  0  0  0
    3.3275    1.0432    2.3867 H   0  0  0  0  0  0  0  0  0  0  0  0
    4.4652    0.6496    3.6875 H   0  0  0  0  0  0  0  0  0  0  0  0
    5.6823   -0.8107    2.1521 H   0  0  0  0  0  0  0  0  0  0  0  0
    3.4330   -0.0864    0.3285 H   0  0  0  0  0  0  0  0  0  0  0  0
    5.1352    0.3517    0.2942 H   0  0  0  0  0  0  0  0  0  0  0  0
    4.3188   -0.5099   -2.2641 H   0  0  0  0  0  0  0  0  0  0  0  0
    2.6146   -1.9424   -0.9760 H   0  0  0  0  0  0  0  0  0  0  0  0
    2.9847   -4.0322   -1.9000 H   0  0  0  0  0  0  0  0  0  0  0  0
    2.7712   -2.4556    1.1877 H   0  0  0  0  0  0  0  0  0  0  0  0
    2.6890   -5.6815   -0.6744 H   0  0  0  0  0  0  0  0  0  0  0  0
    1.5215   -4.3808   -0.7839 H   0  0  0  0  0  0  0  0  0  0  0  0
    1.2229   -5.7143    0.2645 H   0  0  0  0  0  0  0  0  0  0  0  0
    3.2866   -4.5275    3.0455 H   0  0  0  0  0  0  0  0  0  0  0  0
    1.7936   -5.1675    2.6622 H   0  0  0  0  0  0  0  0  0  0  0  0
    3.2302   -6.8611    3.4241 H   0  0  0  0  0  0  0  0  0  0  0  0
    1.3079   -7.4109    2.0336 H   0  0  0  0  0  0  0  0  0  0  0  0
    2.3929   -7.5332    0.6745 H   0  0  0  0  0  0  0  0  0  0  0  0
    3.3574   -9.2929    1.6697 H   0  0  0  0  0  0  0  0  0  0  0  0
    4.8278   -8.0510    2.0852 H   0  0  0  0  0  0  0  0  0  0  0  0
    5.3626   -7.7639    0.1535 H   0  0  0  0  0  0  0  0  0  0  0  0
    4.6292   -6.2446   -0.0536 H   0  0  0  0  0  0  0  0  0  0  0  0
    7.5222   -6.6226   -0.0265 H   0  0  0  0  0  0  0  0  0  0  0  0
    5.8348   -4.6856    0.1882 H   0  0  0  0  0  0  0  0  0  0  0  0
    7.8897   -4.3701    2.1775 H   0  0  0  0  0  0  0  0  0  0  0  0
    7.6363   -2.9227    1.4170 H   0  0  0  0  0  0  0  0  0  0  0  0
    5.1513   -4.5421    1.9622 H   0  0  0  0  0  0  0  0  0  0  0  0
    3.8995   -2.9669    4.3736 H   0  0  0  0  0  0  0  0  0  0  0  0
    5.3593   -1.9809    4.3750 H   0  0  0  0  0  0  0  0  0  0  0  0
    5.1703   -3.2325    5.5514 H   0  0  0  0  0  0  0  0  0  0  0  0
    6.4762   -5.4202    4.8234 H   0  0  0  0  0  0  0  0  0  0  0  0
    4.7842   -5.5623    4.5945 H   0  0  0  0  0  0  0  0  0  0  0  0
    6.9465   -7.6956    4.7195 H   0  0  0  0  0  0  0  0  0  0  0  0
    6.1261   -8.7845    3.6299 H   0  0  0  0  0  0  0  0  0  0  0  0
    5.1923   -7.8345    4.7461 H   0  0  0  0  0  0  0  0  0  0  0  0
    8.1157   -6.2621    2.5375 H   0  0  0  0  0  0  0  0  0  0  0  0
    8.5439   -7.9479    1.5458 H   0  0  0  0  0  0  0  0  0  0  0  0
    6.5522   -1.6436    0.2187 H   0  0  0  0  0  0  0  0  0  0  0  0
    6.0157   -4.0077   -1.5897 H   0  0  0  0  0  0  0  0  0  0  0  0
    8.1199   -3.6343   -1.8992 H   0  0  0  0  0  0  0  0  0  0  0  0
    6.6148   -3.6778    3.8586 H   0  0  0  0  0  0  0  0  0  0  0  0
    1.9333   -3.8561    1.2854 H   0  0  0  0  0  0  0  0  0  0  0  0
  1  2  1  0
  1 33  1  0
  1 34  1  0
  1 35  1  0
  2  3  1  0
 29  3  1  1
  3  4  1  0
  3 36  1  1
  4  5  1  0
  4 37  1  0
  4 38  1  0
  5 30  1  0
  5  6  1  6
  5  7  1  0
  6 39  1  0
  7  8  1  0
  7  9  1  0
  7 40  1  6
  8 41  1  0
  9 29  1  0
  9 10  1  0
  9 42  1  1
 10 11  1  0
 10 12  1  0
 10 74  1  1
 11 43  1  0
 11 44  1  0
 11 45  1  0
 12 13  1  0
 12 46  1  0
 12 47  1  0
 13 14  1  0
 13 16  1  0
 13 48  1  1
 14 15  1  0
 14 49  1  0
 14 50  1  0
 15 51  1  0
 16 25  1  0
 16 17  1  0
 16 52  1  6
 17 18  1  0
 17 53  1  0
 17 54  1  0
 18 27  1  0
 18 19  1  0
 18 55  1  6
 19 31  1  0
 19 20  1  0
 19 56  1  6
 20 21  1  0
 20 57  1  0
 20 58  1  0
 21 22  1  0
 21 29  1  0
 21 59  1  6
 22 23  1  0
 22 24  1  0
 22 73  1  1
 23 60  1  0
 23 61  1  0
 23 62  1  0
 24 25  1  0
 24 63  1  0
 24 64  1  0
 25 26  1  1
 25 27  1  0
 26 65  1  0
 26 66  1  0
 26 67  1  0
 27 28  1  0
 27 68  1  1
 28 69  1  0
 29 30  1  0
 30 31  1  0
 30 70  1  1
 31 32  1  0
 31 71  1  6
 32 72  1  0
M  CHG  2  10   1  22   1
M  END
>  <i_m_ct_stereo_status>  (386) 
1

>  <s_m_source_file>  (386) 
/var/tmp/pbs.5076255.sched01/tmpgahbdy6u/1388ql836nh.sdf

>  <i_m_source_file_index>  (386) 
20

>  <i_lp_mmshare_version>  (386) 
48012

>  <i_f3d_flags>  (386) 
0

>  <s_epik_input>  (386) 
W0NIM11PW0NAQEhdMVtDSDJdW0NAXShbT0hdKShbQ0BASF0oW09IXSlbQ0BASF0yW0NAQF0xMzQpW0NAQEhdNFtDQEBIXShbT0hdKVtDSF01W0NAQEhdNltDSDJdW0NASF0oW0NASF0oW0NIMl1bT0hdKVtDSDJdTjJbQ0gzXSlbQ0BAXShbQ0gzXSkoW0NASF02W09IXSlbQ0gyXU4oW0NIM10pW0NAQEhdM1tDSDJdNQ==

>  <s_epik_cmdline>  (386) 
J2VwaWtfcHl0aG9uJywgJy1waHQnLCAnMi4wJywgJy1waCcsICc3LjAnLCAnLXRuJywgJzgnLCAnLW1hJywgJzIwMCcsICctaW1hZScsICc8aW5maWxlLm1hZT4nLCAnLW9tYWUnLCAnPG91dGZpbGUubWFlPic=

>  <r_epik_Ionization_Penalty>  (386) 
0.13251

>  <r_epik_Ionization_Penalty_Charging>  (386) 
0.132509

>  <r_epik_Ionization_Penalty_Neutral>  (386) 
1.02957e-06

>  <r_epik_State_Penalty>  (386) 
0.117109

>  <r_epik_Charging_Adjusted_Penalty>  (386) 
0.249618

>  <i_epik_Tot_Q>  (386) 
2

>  <i_epik_Tot_abs_Q>  (386) 
2

>  <s_lp_Force_Field>  (386) 
OPLS3e

>  <r_lp_Energy>  (386) 
255.929

>  <b_lp_Chiralities_Consistent>  (386) 
1

>  <s_lp_Variant>  (386) 
98:0-1

>  <s_i_glide_gridfile>  (386) 
pfpi4k_grid

>  <i_i_glide_lignum>  (386) 
20

>  <i_i_glide_rotatable_bonds>  (386) 
7

>  <r_i_docking_score>  (386) 
-3.12373

>  <r_i_glide_ligand_efficiency>  (386) 
-0.0976166

>  <r_i_glide_ligand_efficiency_sa>  (386) 
-0.309913

>  <r_i_glide_ligand_efficiency_ln>  (386) 
-0.699488

>  <r_i_glide_gscore>  (386) 
-3.12373

>  <r_i_glide_lipo>  (386) 
-0.762556

>  <r_i_glide_hbond>  (386) 
-0.0538361

>  <r_i_glide_metal>  (386) 
-0

>  <r_i_glide_rewards>  (386) 
-0.309545

>  <r_i_glide_evdw>  (386) 
-13.7472

>  <r_i_glide_ecoul>  (386) 
-9.25111

>  <r_i_glide_erotb>  (386) 
0.0971755

>  <r_i_glide_esite>  (386) 
-0.0199406

>  <r_i_glide_emodel>  (386) 
-25.615

>  <r_i_glide_energy>  (386) 
-22.9983

>  <r_i_glide_einternal>  (386) 
1.92053

>  <r_i_glide_intrahb_reward>  (386) 
-0

>  <i_i_glide_confnum>  (386) 
4

>  <i_i_glide_posenum>  (386) 
22

>  <r_i_glide_eff_state_penalty>  (386) 
0

>  <ligand_id>  (386) 
98

>  <original_smiles>  (386) 
COC1CC2(O)C(O)C3N(C)CC(CO)C4CC5C6CC(N(C)CC4(C)C5O)C13C2C6O

>  <smiles>  (386) 
[H]OC([H])([H])C1([H])C2([H])C([H])([H])C3([H])C([H])(O[H])C2(C([H])([H])[H])C([H])([H])[N+]([H])(C([H])([H])[H])C2([H])C([H])([H])C3([H])C([H])(O[H])C3([H])C4(O[H])C([H])([H])C([H])(OC([H])([H])[H])C32C([H])(C4([H])O[H])[N+]([H])(C([H])([H])[H])C1([H])[H]

$$$$
98:0:1
     RDKit          3D

 74 79  0  0  1  0  0  0  0  0999 V2000
    0.6077   -4.5939    5.4403 C   0  0  0  0  0  0  0  0  0  0  0  0
    0.8774   -3.2047    5.5343 O   0  0  0  0  0  0  0  0  0  0  0  0
    1.4851   -2.6420    4.3709 C   0  0  2  0  0  0  0  0  0  0  0  0
    2.9657   -3.1013    4.1721 C   0  0  0  0  0  0  0  0  0  0  0  0
    3.7693   -1.7884    3.9741 C   0  0  2  0  0  0  0  0  0  0  0  0
    4.9342   -2.0306    3.2143 O   0  0  0  0  0  0  0  0  0  0  0  0
    4.0050   -1.1155    5.3356 C   0  0  1  0  0  0  0  0  0  0  0  0
    4.8378    0.0212    5.1595 O   0  0  0  0  0  0  0  0  0  0  0  0
    2.5379   -0.8361    5.7783 C   0  0  1  0  0  0  0  0  0  0  0  0
    2.2991    0.1790    6.8864 N   0  0  1  0  0  0  0  0  0  0  0  0
    3.4631    0.8897    7.4652 C   0  0  0  0  0  0  0  0  0  0  0  0
    0.9297    0.6624    7.2680 C   0  0  0  0  0  0  0  0  0  0  0  0
    0.5578    2.1821    7.1633 C   0  0  1  0  0  0  0  0  0  0  0  0
    1.2140    3.1054    8.2324 C   0  0  0  0  0  0  0  0  0  0  0  0
    2.4105    3.7109    7.7898 O   0  0  0  0  0  0  0  0  0  0  0  0
    0.3678    2.8776    5.7761 C   0  0  1  0  0  0  0  0  0  0  0  0
    1.6278    3.0769    4.8903 C   0  0  0  0  0  0  0  0  0  0  0  0
    1.2765    2.7746    3.3927 C   0  0  1  0  0  0  0  0  0  0  0  0
    1.6701    1.3464    2.8355 C   0  0  1  0  0  0  0  0  0  0  0  0
    0.4940    0.3904    2.7128 C   0  0  0  0  0  0  0  0  0  0  0  0
    0.4209   -0.1507    4.1253 C   0  0  1  0  0  0  0  0  0  0  0  0
   -1.0001   -0.2028    4.5040 N   0  0  1  0  0  0  0  0  0  0  0  0
   -1.4889   -1.4138    5.2023 C   0  0  0  0  0  0  0  0  0  0  0  0
   -1.5825    1.1162    4.9879 C   0  0  0  0  0  0  0  0  0  0  0  0
   -0.8622    2.5573    4.8475 C   0  0  1  0  0  0  0  0  0  0  0  0
   -2.0469    3.4871    5.2674 C   0  0  0  0  0  0  0  0  0  0  0  0
   -0.2821    3.0430    3.4474 C   0  0  1  0  0  0  0  0  0  0  0  0
   -0.4167    4.4353    3.2879 O   0  0  0  0  0  0  0  0  0  0  0  0
    1.6387   -1.0961    4.4822 C   0  0  2  0  0  0  0  0  0  0  0  0
    2.7019   -0.9439    3.3018 C   0  0  1  0  0  0  0  0  0  0  0  0
    2.9753    0.5122    2.6859 C   0  0  1  0  0  0  0  0  0  0  0  0
    3.2493    0.3650    1.3067 O   0  0  0  0  0  0  0  0  0  0  0  0
    0.1519   -4.9279    6.3709 H   0  0  0  0  0  0  0  0  0  0  0  0
    1.5094   -5.1870    5.2849 H   0  0  0  0  0  0  0  0  0  0  0  0
   -0.0924   -4.7995    4.6318 H   0  0  0  0  0  0  0  0  0  0  0  0
    0.8954   -2.8925    3.4879 H   0  0  0  0  0  0  0  0  0  0  0  0
    3.3624   -3.6761    5.0082 H   0  0  0  0  0  0  0  0  0  0  0  0
    3.0340   -3.7379    3.2886 H   0  0  0  0  0  0  0  0  0  0  0  0
    5.2983   -1.2058    2.9332 H   0  0  0  0  0  0  0  0  0  0  0  0
    4.5089   -1.7912    6.0258 H   0  0  0  0  0  0  0  0  0  0  0  0
    4.5169    0.5543    4.4552 H   0  0  0  0  0  0  0  0  0  0  0  0
    2.3455   -1.6985    6.4154 H   0  0  0  0  0  0  0  0  0  0  0  0
    3.8036    1.7022    6.8243 H   0  0  0  0  0  0  0  0  0  0  0  0
    4.3104    0.2164    7.6316 H   0  0  0  0  0  0  0  0  0  0  0  0
    3.2145    1.2636    8.4590 H   0  0  0  0  0  0  0  0  0  0  0  0
    0.1618    0.0361    6.8378 H   0  0  0  0  0  0  0  0  0  0  0  0
    0.8348    0.4183    8.3259 H   0  0  0  0  0  0  0  0  0  0  0  0
   -0.4610    2.1638    7.5502 H   0  0  0  0  0  0  0  0  0  0  0  0
    0.5504    3.9336    8.4852 H   0  0  0  0  0  0  0  0  0  0  0  0
    1.3892    2.5644    9.1658 H   0  0  0  0  0  0  0  0  0  0  0  0
    3.0242    3.0430    7.5422 H   0  0  0  0  0  0  0  0  0  0  0  0
    0.1707    3.9017    6.0983 H   0  0  0  0  0  0  0  0  0  0  0  0
    1.9045    4.1267    4.9596 H   0  0  0  0  0  0  0  0  0  0  0  0
    2.4975    2.5507    5.2801 H   0  0  0  0  0  0  0  0  0  0  0  0
    1.7752    3.5077    2.7525 H   0  0  0  0  0  0  0  0  0  0  0  0
    2.1134    1.2474    3.8054 H   0  0  0  0  0  0  0  0  0  0  0  0
   -0.4314    0.8169    2.3523 H   0  0  0  0  0  0  0  0  0  0  0  0
    0.6609   -0.3944    1.9716 H   0  0  0  0  0  0  0  0  0  0  0  0
    0.6454    0.6118    4.8361 H   0  0  0  0  0  0  0  0  0  0  0  0
   -1.0376   -1.5816    6.1785 H   0  0  0  0  0  0  0  0  0  0  0  0
   -1.2864   -2.2816    4.5755 H   0  0  0  0  0  0  0  0  0  0  0  0
   -2.5722   -1.3534    5.3202 H   0  0  0  0  0  0  0  0  0  0  0  0
   -2.5364    1.1743    4.4627 H   0  0  0  0  0  0  0  0  0  0  0  0
   -1.8582    0.9840    6.0303 H   0  0  0  0  0  0  0  0  0  0  0  0
   -2.8684    3.4408    4.5482 H   0  0  0  0  0  0  0  0  0  0  0  0
   -1.7572    4.5328    5.3387 H   0  0  0  0  0  0  0  0  0  0  0  0
   -2.4528    3.2221    6.2462 H   0  0  0  0  0  0  0  0  0  0  0  0
   -0.8644    2.7189    2.5881 H   0  0  0  0  0  0  0  0  0  0  0  0
   -0.1849    4.5942    2.3437 H   0  0  0  0  0  0  0  0  0  0  0  0
    2.3687   -1.5301    2.4462 H   0  0  0  0  0  0  0  0  0  0  0  0
    3.8529    1.0064    3.1030 H   0  0  0  0  0  0  0  0  0  0  0  0
    2.4917    0.0292    0.8532 H   0  0  0  0  0  0  0  0  0  0  0  0
   -1.4245   -0.2752    3.6002 H   0  0  0  0  0  0  0  0  0  0  0  0
    2.3066   -0.5375    7.5900 H   0  0  0  0  0  0  0  0  0  0  0  0
  1  2  1  0
  1 33  1  0
  1 34  1  0
  1 35  1  0
  2  3  1  0
 29  3  1  1
  3  4  1  0
  3 36  1  6
  4  5  1  0
  4 37  1  0
  4 38  1  0
  5 30  1  0
  5  6  1  6
  5  7  1  0
  6 39  1  0
  7  8  1  0
  7  9  1  0
  7 40  1  1
  8 41  1  0
  9 29  1  0
  9 10  1  0
  9 42  1  1
 10 11  1  0
 10 12  1  0
 10 74  1  1
 11 43  1  0
 11 44  1  0
 11 45  1  0
 12 13  1  0
 12 46  1  0
 12 47  1  0
 13 14  1  0
 13 16  1  0
 13 48  1  1
 14 15  1  0
 14 49  1  0
 14 50  1  0
 15 51  1  0
 16 25  1  0
 16 17  1  0
 16 52  1  1
 17 18  1  0
 17 53  1  0
 17 54  1  0
 18 27  1  0
 18 19  1  0
 18 55  1  6
 19 31  1  0
 19 20  1  0
 19 56  1  6
 20 21  1  0
 20 57  1  0
 20 58  1  0
 21 22  1  0
 21 29  1  0
 21 59  1  1
 22 23  1  0
 22 24  1  0
 22 73  1  6
 23 60  1  0
 23 61  1  0
 23 62  1  0
 24 25  1  0
 24 63  1  0
 24 64  1  0
 25 26  1  1
 25 27  1  0
 26 65  1  0
 26 66  1  0
 26 67  1  0
 27 28  1  0
 27 68  1  6
 28 69  1  0
 29 30  1  0
 30 31  1  0
 30 70  1  6
 31 32  1  0
 31 71  1  1
 32 72  1  0
M  CHG  2  10   1  22   1
M  END
>  <i_m_ct_stereo_status>  (387) 
1

>  <s_m_source_file>  (387) 
/var/tmp/pbs.5076255.sched01/tmpgahbdy6u/1388ql836nh.sdf

>  <i_m_source_file_index>  (387) 
20

>  <i_lp_mmshare_version>  (387) 
48012

>  <i_f3d_flags>  (387) 
0

>  <s_epik_input>  (387) 
W0NIM11PW0NAQEhdMVtDSDJdW0NAXShbT0hdKShbQ0BASF0oW09IXSlbQ0BASF0yW0NAQF0xMzQpW0NAQEhdNFtDQEBIXShbT0hdKVtDSF01W0NAQEhdNltDSDJdW0NASF0oW0NASF0oW0NIMl1bT0hdKVtDSDJdTjJbQ0gzXSlbQ0BAXShbQ0gzXSkoW0NASF02W09IXSlbQ0gyXU4oW0NIM10pW0NAQEhdM1tDSDJdNQ==

>  <s_epik_cmdline>  (387) 
J2VwaWtfcHl0aG9uJywgJy1waHQnLCAnMi4wJywgJy1waCcsICc3LjAnLCAnLXRuJywgJzgnLCAnLW1hJywgJzIwMCcsICctaW1hZScsICc8aW5maWxlLm1hZT4nLCAnLW9tYWUnLCAnPG91dGZpbGUubWFlPic=

>  <r_epik_Ionization_Penalty>  (387) 
0.13251

>  <r_epik_Ionization_Penalty_Charging>  (387) 
0.132509

>  <r_epik_Ionization_Penalty_Neutral>  (387) 
1.02957e-06

>  <r_epik_State_Penalty>  (387) 
0.117109

>  <r_epik_Charging_Adjusted_Penalty>  (387) 
0.249618

>  <i_epik_Tot_Q>  (387) 
2

>  <i_epik_Tot_abs_Q>  (387) 
2

>  <s_lp_Force_Field>  (387) 
OPLS3e

>  <r_lp_Energy>  (387) 
255.929

>  <b_lp_Chiralities_Consistent>  (387) 
1

>  <s_lp_Variant>  (387) 
98:0-1

>  <s_i_glide_gridfile>  (387) 
pfpi4k_grid

>  <i_i_glide_lignum>  (387) 
20

>  <i_i_glide_rotatable_bonds>  (387) 
7

>  <r_i_docking_score>  (387) 
-2.85136

>  <r_i_glide_ligand_efficiency>  (387) 
-0.0891051

>  <r_i_glide_ligand_efficiency_sa>  (387) 
-0.282891

>  <r_i_glide_ligand_efficiency_ln>  (387) 
-0.638498

>  <r_i_glide_gscore>  (387) 
-2.85136

>  <r_i_glide_lipo>  (387) 
-0.0467341

>  <r_i_glide_hbond>  (387) 
-0.16

>  <r_i_glide_metal>  (387) 
-0

>  <r_i_glide_rewards>  (387) 
-0.309545

>  <r_i_glide_evdw>  (387) 
-17.6159

>  <r_i_glide_ecoul>  (387) 
-10.1488

>  <r_i_glide_erotb>  (387) 
0.0971755

>  <r_i_glide_esite>  (387) 
-0.029138

>  <r_i_glide_emodel>  (387) 
-30.2906

>  <r_i_glide_energy>  (387) 
-27.7648

>  <r_i_glide_einternal>  (387) 
2.77404

>  <r_i_glide_intrahb_reward>  (387) 
-0

>  <i_i_glide_confnum>  (387) 
3

>  <i_i_glide_posenum>  (387) 
16

>  <r_i_glide_eff_state_penalty>  (387) 
0

>  <ligand_id>  (387) 
98

>  <original_smiles>  (387) 
COC1CC2(O)C(O)C3N(C)CC(CO)C4CC5C6CC(N(C)CC4(C)C5O)C13C2C6O

>  <smiles>  (387) 
[H]OC([H])([H])C1([H])C2([H])C([H])([H])C3([H])C([H])(O[H])C2(C([H])([H])[H])C([H])([H])[N+]([H])(C([H])([H])[H])C2([H])C([H])([H])C3([H])C([H])(O[H])C3([H])C4(O[H])C([H])([H])C([H])(OC([H])([H])[H])C32C([H])(C4([H])O[H])[N+]([H])(C([H])([H])[H])C1([H])[H]

$$$$
98:0:2
     RDKit          3D

 74 79  0  0  1  0  0  0  0  0999 V2000
    0.5197   -4.4206    5.5011 C   0  0  0  0  0  0  0  0  0  0  0  0
    0.7900   -3.0303    5.5510 O   0  0  0  0  0  0  0  0  0  0  0  0
    1.4085   -2.5026    4.3741 C   0  0  2  0  0  0  0  0  0  0  0  0
    2.8548   -3.0648    4.1370 C   0  0  0  0  0  0  0  0  0  0  0  0
    3.7461   -1.8074    3.9312 C   0  0  2  0  0  0  0  0  0  0  0  0
    4.8898   -2.0884    3.1512 O   0  0  0  0  0  0  0  0  0  0  0  0
    4.0486   -1.1635    5.2877 C   0  0  1  0  0  0  0  0  0  0  0  0
    4.9418   -0.0722    5.1193 O   0  0  0  0  0  0  0  0  0  0  0  0
    2.6241   -0.7851    5.7777 C   0  0  1  0  0  0  0  0  0  0  0  0
    2.4844    0.2374    6.8751 N   0  0  1  0  0  0  0  0  0  0  0  0
    3.7199    0.8683    7.4395 C   0  0  0  0  0  0  0  0  0  0  0  0
    1.1721    0.8195    7.2906 C   0  0  0  0  0  0  0  0  0  0  0  0
    0.8987    2.3611    7.1980 C   0  0  1  0  0  0  0  0  0  0  0  0
    1.6364    3.2394    8.2582 C   0  0  0  0  0  0  0  0  0  0  0  0
    2.8646    3.7776    7.7961 O   0  0  0  0  0  0  0  0  0  0  0  0
    0.7298    3.0803    5.8144 C   0  0  1  0  0  0  0  0  0  0  0  0
    1.9823    3.2004    4.9004 C   0  0  0  0  0  0  0  0  0  0  0  0
    1.5656    2.9244    3.4115 C   0  0  1  0  0  0  0  0  0  0  0  0
    1.8466    1.4746    2.8392 C   0  0  1  0  0  0  0  0  0  0  0  0
    0.6021    0.6059    2.7463 C   0  0  0  0  0  0  0  0  0  0  0  0
    0.5173    0.0602    4.1621 C   0  0  1  0  0  0  0  0  0  0  0  0
   -0.8966    0.1083    4.5671 N   0  0  1  0  0  0  0  0  0  0  0  0
   -1.4530   -1.0702    5.2703 C   0  0  0  0  0  0  0  0  0  0  0  0
   -1.3644    1.4659    5.0672 C   0  0  0  0  0  0  0  0  0  0  0  0
   -0.5437    2.8569    4.9115 C   0  0  1  0  0  0  0  0  0  0  0  0
   -1.6408    3.8738    5.3605 C   0  0  0  0  0  0  0  0  0  0  0  0
    0.0315    3.3078    3.4954 C   0  0  1  0  0  0  0  0  0  0  0  0
    0.0018    4.7092    3.2817 O   0  0  0  0  0  0  0  0  0  0  0  0
    1.6733   -0.9723    4.4904 C   0  0  2  0  0  0  0  0  0  0  0  0
    2.7170   -0.8905    3.2891 C   0  0  1  0  0  0  0  0  0  0  0  0
    3.0918    0.5430    2.6729 C   0  0  1  0  0  0  0  0  0  0  0  0
    3.3313    0.3737    1.2904 O   0  0  0  0  0  0  0  0  0  0  0  0
    0.0497   -4.7164    6.4371 H   0  0  0  0  0  0  0  0  0  0  0  0
    1.4242   -5.0182    5.3849 H   0  0  0  0  0  0  0  0  0  0  0  0
   -0.1633   -4.6487    4.6848 H   0  0  0  0  0  0  0  0  0  0  0  0
    0.7762   -2.7071    3.5038 H   0  0  0  0  0  0  0  0  0  0  0  0
    3.2415   -3.6560    4.9710 H   0  0  0  0  0  0  0  0  0  0  0  0
    2.8479   -3.6944    3.2438 H   0  0  0  0  0  0  0  0  0  0  0  0
    4.6025   -2.3302    2.2867 H   0  0  0  0  0  0  0  0  0  0  0  0
    4.5216   -1.8731    5.9614 H   0  0  0  0  0  0  0  0  0  0  0  0
    4.6615    0.4588    4.3968 H   0  0  0  0  0  0  0  0  0  0  0  0
    2.3821   -1.6390    6.4111 H   0  0  0  0  0  0  0  0  0  0  0  0
    4.0985    1.6602    6.7870 H   0  0  0  0  0  0  0  0  0  0  0  0
    4.5010    0.1108    7.5837 H   0  0  0  0  0  0  0  0  0  0  0  0
    3.5047    1.2546    8.4359 H   0  0  0  0  0  0  0  0  0  0  0  0
    0.3381    0.2572    6.8712 H   0  0  0  0  0  0  0  0  0  0  0  0
    1.0843    0.5834    8.3513 H   0  0  0  0  0  0  0  0  0  0  0  0
   -0.1115    2.4100    7.6046 H   0  0  0  0  0  0  0  0  0  0  0  0
    1.0168    4.1018    8.5280 H   0  0  0  0  0  0  0  0  0  0  0  0
    1.7965    2.6812    9.1874 H   0  0  0  0  0  0  0  0  0  0  0  0
    3.4201    3.0867    7.4780 H   0  0  0  0  0  0  0  0  0  0  0  0
    0.6161    4.1138    6.1494 H   0  0  0  0  0  0  0  0  0  0  0  0
    2.3302    4.2338    4.9669 H   0  0  0  0  0  0  0  0  0  0  0  0
    2.8209    2.6058    5.2677 H   0  0  0  0  0  0  0  0  0  0  0  0
    2.1064    3.6170    2.7608 H   0  0  0  0  0  0  0  0  0  0  0  0
    2.2996    1.3418    3.7987 H   0  0  0  0  0  0  0  0  0  0  0  0
   -0.3030    1.0907    2.4058 H   0  0  0  0  0  0  0  0  0  0  0  0
    0.6892   -0.1764    1.9913 H   0  0  0  0  0  0  0  0  0  0  0  0
    0.8124    0.8027    4.8711 H   0  0  0  0  0  0  0  0  0  0  0  0
   -0.9796   -1.2606    6.2371 H   0  0  0  0  0  0  0  0  0  0  0  0
   -1.3299   -1.9516    4.6313 H   0  0  0  0  0  0  0  0  0  0  0  0
   -2.5271   -0.9141    5.4140 H   0  0  0  0  0  0  0  0  0  0  0  0
   -2.3189    1.6072    4.5526 H   0  0  0  0  0  0  0  0  0  0  0  0
   -1.6211    1.3598    6.1226 H   0  0  0  0  0  0  0  0  0  0  0  0
   -2.4812    3.8774    4.6614 H   0  0  0  0  0  0  0  0  0  0  0  0
   -1.2737    4.8992    5.4272 H   0  0  0  0  0  0  0  0  0  0  0  0
   -2.0393    3.6224    6.3491 H   0  0  0  0  0  0  0  0  0  0  0  0
   -0.5939    3.0040    2.6598 H   0  0  0  0  0  0  0  0  0  0  0  0
    0.1808    4.8244    2.3435 H   0  0  0  0  0  0  0  0  0  0  0  0
    2.3109   -1.4396    2.4382 H   0  0  0  0  0  0  0  0  0  0  0  0
    4.0100    0.9638    3.0930 H   0  0  0  0  0  0  0  0  0  0  0  0
    2.5244    0.1034    0.8699 H   0  0  0  0  0  0  0  0  0  0  0  0
   -1.3410    0.0810    3.6672 H   0  0  0  0  0  0  0  0  0  0  0  0
    2.4524   -0.4826    7.5768 H   0  0  0  0  0  0  0  0  0  0  0  0
  1  2  1  0
  1 33  1  0
  1 34  1  0
  1 35  1  0
  2  3  1  0
 29  3  1  1
  3  4  1  0
  3 36  1  6
  4  5  1  0
  4 37  1  0
  4 38  1  0
  5 30  1  0
  5  6  1  6
  5  7  1  0
  6 39  1  0
  7  8  1  0
  7  9  1  0
  7 40  1  1
  8 41  1  0
  9 29  1  0
  9 10  1  0
  9 42  1  1
 10 11  1  0
 10 12  1  0
 10 74  1  1
 11 43  1  0
 11 44  1  0
 11 45  1  0
 12 13  1  0
 12 46  1  0
 12 47  1  0
 13 14  1  0
 13 16  1  0
 13 48  1  1
 14 15  1  0
 14 49  1  0
 14 50  1  0
 15 51  1  0
 16 25  1  0
 16 17  1  0
 16 52  1  1
 17 18  1  0
 17 53  1  0
 17 54  1  0
 18 27  1  0
 18 19  1  0
 18 55  1  6
 19 31  1  0
 19 20  1  0
 19 56  1  6
 20 21  1  0
 20 57  1  0
 20 58  1  0
 21 22  1  0
 21 29  1  0
 21 59  1  1
 22 23  1  0
 22 24  1  0
 22 73  1  6
 23 60  1  0
 23 61  1  0
 23 62  1  0
 24 25  1  0
 24 63  1  0
 24 64  1  0
 25 26  1  1
 25 27  1  0
 26 65  1  0
 26 66  1  0
 26 67  1  0
 27 28  1  0
 27 68  1  6
 28 69  1  0
 29 30  1  0
 30 31  1  0
 30 70  1  6
 31 32  1  0
 31 71  1  1
 32 72  1  0
M  CHG  2  10   1  22   1
M  END
>  <i_m_ct_stereo_status>  (388) 
1

>  <s_m_source_file>  (388) 
/var/tmp/pbs.5076255.sched01/tmpgahbdy6u/1388ql836nh.sdf

>  <i_m_source_file_index>  (388) 
20

>  <i_lp_mmshare_version>  (388) 
48012

>  <i_f3d_flags>  (388) 
0

>  <s_epik_input>  (388) 
W0NIM11PW0NAQEhdMVtDSDJdW0NAXShbT0hdKShbQ0BASF0oW09IXSlbQ0BASF0yW0NAQF0xMzQpW0NAQEhdNFtDQEBIXShbT0hdKVtDSF01W0NAQEhdNltDSDJdW0NASF0oW0NASF0oW0NIMl1bT0hdKVtDSDJdTjJbQ0gzXSlbQ0BAXShbQ0gzXSkoW0NASF02W09IXSlbQ0gyXU4oW0NIM10pW0NAQEhdM1tDSDJdNQ==

>  <s_epik_cmdline>  (388) 
J2VwaWtfcHl0aG9uJywgJy1waHQnLCAnMi4wJywgJy1waCcsICc3LjAnLCAnLXRuJywgJzgnLCAnLW1hJywgJzIwMCcsICctaW1hZScsICc8aW5maWxlLm1hZT4nLCAnLW9tYWUnLCAnPG91dGZpbGUubWFlPic=

>  <r_epik_Ionization_Penalty>  (388) 
0.13251

>  <r_epik_Ionization_Penalty_Charging>  (388) 
0.132509

>  <r_epik_Ionization_Penalty_Neutral>  (388) 
1.02957e-06

>  <r_epik_State_Penalty>  (388) 
0.117109

>  <r_epik_Charging_Adjusted_Penalty>  (388) 
0.249618

>  <i_epik_Tot_Q>  (388) 
2

>  <i_epik_Tot_abs_Q>  (388) 
2

>  <s_lp_Force_Field>  (388) 
OPLS3e

>  <r_lp_Energy>  (388) 
255.929

>  <b_lp_Chiralities_Consistent>  (388) 
1

>  <s_lp_Variant>  (388) 
98:0-1

>  <s_i_glide_gridfile>  (388) 
pfpi4k_grid

>  <i_i_glide_lignum>  (388) 
20

>  <i_i_glide_rotatable_bonds>  (388) 
7

>  <r_i_docking_score>  (388) 
-2.75129

>  <r_i_glide_ligand_efficiency>  (388) 
-0.0859777

>  <r_i_glide_ligand_efficiency_sa>  (388) 
-0.272962

>  <r_i_glide_ligand_efficiency_ln>  (388) 
-0.616088

>  <r_i_glide_gscore>  (388) 
-2.75129

>  <r_i_glide_lipo>  (388) 
-0.0601423

>  <r_i_glide_hbond>  (388) 
-0.16

>  <r_i_glide_metal>  (388) 
-0

>  <r_i_glide_rewards>  (388) 
-0.309545

>  <r_i_glide_evdw>  (388) 
-16.9337

>  <r_i_glide_ecoul>  (388) 
-9.64923

>  <r_i_glide_erotb>  (388) 
0.0971755

>  <r_i_glide_esite>  (388) 
-0.0247053

>  <r_i_glide_emodel>  (388) 
-28.6878

>  <r_i_glide_energy>  (388) 
-26.5829

>  <r_i_glide_einternal>  (388) 
3.01801

>  <r_i_glide_intrahb_reward>  (388) 
-0

>  <i_i_glide_confnum>  (388) 
3

>  <i_i_glide_posenum>  (388) 
1

>  <r_i_glide_eff_state_penalty>  (388) 
0

>  <ligand_id>  (388) 
98

>  <original_smiles>  (388) 
COC1CC2(O)C(O)C3N(C)CC(CO)C4CC5C6CC(N(C)CC4(C)C5O)C13C2C6O

>  <smiles>  (388) 
[H]OC([H])([H])C1([H])C2([H])C([H])([H])C3([H])C([H])(O[H])C2(C([H])([H])[H])C([H])([H])[N+]([H])(C([H])([H])[H])C2([H])C([H])([H])C3([H])C([H])(O[H])C3([H])C4(O[H])C([H])([H])C([H])(OC([H])([H])[H])C32C([H])(C4([H])O[H])[N+]([H])(C([H])([H])[H])C1([H])[H]

$$$$
98:1:0
     RDKit          3D

 74 79  0  0  1  0  0  0  0  0999 V2000
   -0.1204   -6.8859    1.4177 C   0  0  0  0  0  0  0  0  0  0  0  0
    0.8770   -5.8792    1.4205 O   0  0  0  0  0  0  0  0  0  0  0  0
    2.2018   -6.3694    1.5499 C   0  0  2  0  0  0  0  0  0  0  0  0
    2.4444   -7.0649    2.9241 C   0  0  0  0  0  0  0  0  0  0  0  0
    3.7191   -6.3779    3.4590 C   0  0  2  0  0  0  0  0  0  0  0  0
    4.4309   -7.2270    4.3368 O   0  0  0  0  0  0  0  0  0  0  0  0
    3.3529   -5.0002    4.0321 C   0  0  1  0  0  0  0  0  0  0  0  0
    4.4831   -4.4575    4.6905 O   0  0  0  0  0  0  0  0  0  0  0  0
    2.8737   -4.2510    2.7461 C   0  0  1  0  0  0  0  0  0  0  0  0
    2.8709   -2.7517    2.7427 N   0  0  1  0  0  0  0  0  0  0  0  0
    3.3966   -2.0289    3.9048 C   0  0  0  0  0  0  0  0  0  0  0  0
    2.6231   -1.9579    1.5282 C   0  0  0  0  0  0  0  0  0  0  0  0
    3.7137   -0.9930    0.9605 C   0  0  1  0  0  0  0  0  0  0  0  0
    3.9744    0.2759    1.8070 C   0  0  0  0  0  0  0  0  0  0  0  0
    5.0955    0.1478    2.6651 O   0  0  0  0  0  0  0  0  0  0  0  0
    5.0110   -1.5391    0.2797 C   0  0  1  0  0  0  0  0  0  0  0  0
    5.9254   -2.4250    1.1590 C   0  0  0  0  0  0  0  0  0  0  0  0
    6.5755   -3.5230    0.2687 C   0  0  1  0  0  0  0  0  0  0  0  0
    6.2034   -5.0350    0.5646 C   0  0  2  0  0  0  0  0  0  0  0  0
    5.0430   -5.4841   -0.3299 C   0  0  0  0  0  0  0  0  0  0  0  0
    3.8254   -4.7190    0.1634 C   0  0  1  0  0  0  0  0  0  0  0  0
    3.1200   -4.2143   -0.9930 N   0  0  1  0  0  0  0  0  0  0  0  0
    1.7286   -4.5127   -1.1489 C   0  0  0  0  0  0  0  0  0  0  0  0
    3.5640   -2.8922   -1.5513 C   0  0  0  0  0  0  0  0  0  0  0  0
    4.9285   -2.1699   -1.1455 C   0  0  1  0  0  0  0  0  0  0  0  0
    4.9868   -1.0088   -2.1835 C   0  0  0  0  0  0  0  0  0  0  0  0
    6.2530   -3.0262   -1.1818 C   0  0  1  0  0  0  0  0  0  0  0  0
    7.3771   -2.2548   -1.5244 O   0  0  0  0  0  0  0  0  0  0  0  0
    3.2519   -5.2235    1.5264 C   0  0  2  0  0  0  0  0  0  0  0  0
    4.4146   -6.0757    2.1442 C   0  0  1  0  0  0  0  0  0  0  0  0
    5.8431   -5.4337    2.0498 C   0  0  1  0  0  0  0  0  0  0  0  0
    6.7803   -6.3978    2.4772 O   0  0  0  0  0  0  0  0  0  0  0  0
   -1.0491   -6.3488    1.3412 H   0  0  0  0  0  0  0  0  0  0  0  0
   -0.1732   -7.4677    2.3386 H   0  0  0  0  0  0  0  0  0  0  0  0
   -0.0268   -7.5513    0.5644 H   0  0  0  0  0  0  0  0  0  0  0  0
    2.3974   -7.0675    0.7420 H   0  0  0  0  0  0  0  0  0  0  0  0
    1.6219   -6.9528    3.6322 H   0  0  0  0  0  0  0  0  0  0  0  0
    2.5795   -8.1408    2.7630 H   0  0  0  0  0  0  0  0  0  0  0  0
    4.5282   -8.0818    3.9427 H   0  0  0  0  0  0  0  0  0  0  0  0
    2.5568   -5.0801    4.7736 H   0  0  0  0  0  0  0  0  0  0  0  0
    5.2529   -4.5488    4.1562 H   0  0  0  0  0  0  0  0  0  0  0  0
    1.7964   -4.3568    2.8361 H   0  0  0  0  0  0  0  0  0  0  0  0
    4.4809   -2.0166    3.9359 H   0  0  0  0  0  0  0  0  0  0  0  0
    3.0807   -2.4441    4.8581 H   0  0  0  0  0  0  0  0  0  0  0  0
    3.0341   -1.0047    3.9611 H   0  0  0  0  0  0  0  0  0  0  0  0
    2.2159   -2.5546    0.7274 H   0  0  0  0  0  0  0  0  0  0  0  0
    1.7699   -1.3048    1.7288 H   0  0  0  0  0  0  0  0  0  0  0  0
    3.1903   -0.5245    0.1260 H   0  0  0  0  0  0  0  0  0  0  0  0
    4.1840    1.0929    1.1204 H   0  0  0  0  0  0  0  0  0  0  0  0
    3.0871    0.6032    2.3572 H   0  0  0  0  0  0  0  0  0  0  0  0
    4.9713   -0.6026    3.2168 H   0  0  0  0  0  0  0  0  0  0  0  0
    5.6226   -0.6403    0.1356 H   0  0  0  0  0  0  0  0  0  0  0  0
    6.7027   -1.8008    1.6046 H   0  0  0  0  0  0  0  0  0  0  0  0
    5.3668   -2.8085    1.9992 H   0  0  0  0  0  0  0  0  0  0  0  0
    7.6480   -3.4707    0.4702 H   0  0  0  0  0  0  0  0  0  0  0  0
    7.0628   -5.6220    0.2455 H   0  0  0  0  0  0  0  0  0  0  0  0
    5.2087   -5.3414   -1.3853 H   0  0  0  0  0  0  0  0  0  0  0  0
    4.9022   -6.5609   -0.3017 H   0  0  0  0  0  0  0  0  0  0  0  0
    4.1392   -3.8099    0.5850 H   0  0  0  0  0  0  0  0  0  0  0  0
    1.2458   -4.0134   -0.3919 H   0  0  0  0  0  0  0  0  0  0  0  0
    1.4310   -5.5635   -1.0697 H   0  0  0  0  0  0  0  0  0  0  0  0
    1.3210   -4.1400   -2.0825 H   0  0  0  0  0  0  0  0  0  0  0  0
    3.6035   -3.0687   -2.6285 H   0  0  0  0  0  0  0  0  0  0  0  0
    2.7508   -2.1734   -1.4656 H   0  0  0  0  0  0  0  0  0  0  0  0
    5.0676   -1.3872   -3.1999 H   0  0  0  0  0  0  0  0  0  0  0  0
    5.8115   -0.3158   -2.0140 H   0  0  0  0  0  0  0  0  0  0  0  0
    4.0893   -0.3948   -2.1692 H   0  0  0  0  0  0  0  0  0  0  0  0
    6.2638   -3.7646   -1.9804 H   0  0  0  0  0  0  0  0  0  0  0  0
    8.0977   -2.8446   -1.7145 H   0  0  0  0  0  0  0  0  0  0  0  0
    4.5165   -7.0563    1.6591 H   0  0  0  0  0  0  0  0  0  0  0  0
    5.9810   -4.5980    2.7255 H   0  0  0  0  0  0  0  0  0  0  0  0
    6.5857   -6.6525    3.3680 H   0  0  0  0  0  0  0  0  0  0  0  0
    3.4217   -4.8456   -1.7053 H   0  0  0  0  0  0  0  0  0  0  0  0
    1.9206   -2.6842    3.0575 H   0  0  0  0  0  0  0  0  0  0  0  0
  1  2  1  0
  1 33  1  0
  1 34  1  0
  1 35  1  0
  2  3  1  0
 29  3  1  6
  3  4  1  0
  3 36  1  6
  4  5  1  0
  4 37  1  0
  4 38  1  0
  5 30  1  0
  5  6  1  1
  5  7  1  0
  6 39  1  0
  7  8  1  0
  7  9  1  0
  7 40  1  1
  8 41  1  0
  9 29  1  0
  9 10  1  0
  9 42  1  1
 10 11  1  0
 10 12  1  0
 10 74  1  1
 11 43  1  0
 11 44  1  0
 11 45  1  0
 12 13  1  0
 12 46  1  0
 12 47  1  0
 13 14  1  0
 13 16  1  0
 13 48  1  6
 14 15  1  0
 14 49  1  0
 14 50  1  0
 15 51  1  0
 16 25  1  0
 16 17  1  0
 16 52  1  6
 17 18  1  0
 17 53  1  0
 17 54  1  0
 18 27  1  0
 18 19  1  0
 18 55  1  6
 19 31  1  0
 19 20  1  0
 19 56  1  6
 20 21  1  0
 20 57  1  0
 20 58  1  0
 21 22  1  0
 21 29  1  0
 21 59  1  1
 22 23  1  0
 22 24  1  0
 22 73  1  6
 23 60  1  0
 23 61  1  0
 23 62  1  0
 24 25  1  0
 24 63  1  0
 24 64  1  0
 25 26  1  6
 25 27  1  0
 26 65  1  0
 26 66  1  0
 26 67  1  0
 27 28  1  0
 27 68  1  6
 28 69  1  0
 29 30  1  0
 30 31  1  0
 30 70  1  6
 31 32  1  0
 31 71  1  1
 32 72  1  0
M  CHG  2  10   1  22   1
M  END
>  <i_m_ct_stereo_status>  (389) 
1

>  <s_m_source_file>  (389) 
/var/tmp/pbs.5076255.sched01/tmpgahbdy6u/1388ql836nh.sdf

>  <i_m_source_file_index>  (389) 
21

>  <i_lp_mmshare_version>  (389) 
48012

>  <i_f3d_flags>  (389) 
0

>  <s_epik_input>  (389) 
W0NIM11PW0NAQEhdMVtDSDJdW0NAXShbT0hdKShbQ0BASF0oW09IXSlbQ0BASF0yW0NAQF0xMzQpW0NAQEhdNFtDQEBIXShbT0hdKVtDSF01W0NAQEhdNltDSDJdW0NASF0oW0NASF0oW0NIMl1bT0hdKVtDSDJdTjJbQ0gzXSlbQ0BAXShbQ0gzXSkoW0NASF02W09IXSlbQ0gyXU4oW0NIM10pW0NAQEhdM1tDSDJdNQ==

>  <s_epik_cmdline>  (389) 
J2VwaWtfcHl0aG9uJywgJy1waHQnLCAnMi4wJywgJy1waCcsICc3LjAnLCAnLXRuJywgJzgnLCAnLW1hJywgJzIwMCcsICctaW1hZScsICc8aW5maWxlLm1hZT4nLCAnLW9tYWUnLCAnPG91dGZpbGUubWFlPic=

>  <r_epik_Ionization_Penalty>  (389) 
0.13251

>  <r_epik_Ionization_Penalty_Charging>  (389) 
0.132509

>  <r_epik_Ionization_Penalty_Neutral>  (389) 
1.02957e-06

>  <r_epik_State_Penalty>  (389) 
0.117109

>  <r_epik_Charging_Adjusted_Penalty>  (389) 
0.249618

>  <i_epik_Tot_Q>  (389) 
2

>  <i_epik_Tot_abs_Q>  (389) 
2

>  <s_lp_Force_Field>  (389) 
OPLS3e

>  <r_lp_Energy>  (389) 
189.454

>  <b_lp_Chiralities_Consistent>  (389) 
1

>  <s_lp_Variant>  (389) 
98:0-2

>  <s_i_glide_gridfile>  (389) 
pfpi4k_grid

>  <i_i_glide_lignum>  (389) 
21

>  <i_i_glide_rotatable_bonds>  (389) 
7

>  <r_i_docking_score>  (389) 
-4.46274

>  <r_i_glide_ligand_efficiency>  (389) 
-0.139461

>  <r_i_glide_ligand_efficiency_sa>  (389) 
-0.44276

>  <r_i_glide_ligand_efficiency_ln>  (389) 
-0.99933

>  <r_i_glide_gscore>  (389) 
-4.46274

>  <r_i_glide_lipo>  (389) 
-0.468223

>  <r_i_glide_hbond>  (389) 
-0.453683

>  <r_i_glide_metal>  (389) 
-0

>  <r_i_glide_rewards>  (389) 
-0.309545

>  <r_i_glide_evdw>  (389) 
-11.855

>  <r_i_glide_ecoul>  (389) 
-18.0301

>  <r_i_glide_erotb>  (389) 
0.0971755

>  <r_i_glide_esite>  (389) 
-0.0312049

>  <r_i_glide_emodel>  (389) 
-34.7398

>  <r_i_glide_energy>  (389) 
-29.8851

>  <r_i_glide_einternal>  (389) 
3.43742

>  <r_i_glide_intrahb_reward>  (389) 
-0

>  <i_i_glide_confnum>  (389) 
6

>  <i_i_glide_posenum>  (389) 
19

>  <r_i_glide_eff_state_penalty>  (389) 
0

>  <ligand_id>  (389) 
98

>  <original_smiles>  (389) 
COC1CC2(O)C(O)C3N(C)CC(CO)C4CC5C6CC(N(C)CC4(C)C5O)C13C2C6O

>  <smiles>  (389) 
[H]OC([H])([H])C1([H])C2([H])C([H])([H])C3([H])C([H])(O[H])C2(C([H])([H])[H])C([H])([H])[N+]([H])(C([H])([H])[H])C2([H])C([H])([H])C3([H])C([H])(O[H])C3([H])C4(O[H])C([H])([H])C([H])(OC([H])([H])[H])C32C([H])(C4([H])O[H])[N+]([H])(C([H])([H])[H])C1([H])[H]

$$$$
98:1:1
     RDKit          3D

 74 79  0  0  1  0  0  0  0  0999 V2000
    0.0190   -6.8380    1.3815 C   0  0  0  0  0  0  0  0  0  0  0  0
    1.0129   -5.8462    1.4698 O   0  0  0  0  0  0  0  0  0  0  0  0
    2.3469   -6.3004    1.5864 C   0  0  2  0  0  0  0  0  0  0  0  0
    2.6143   -6.9008    2.9888 C   0  0  0  0  0  0  0  0  0  0  0  0
    3.8973   -6.1846    3.4649 C   0  0  2  0  0  0  0  0  0  0  0  0
    4.5731   -6.9967    4.3942 O   0  0  0  0  0  0  0  0  0  0  0  0
    3.5577   -4.7825    3.9797 C   0  0  1  0  0  0  0  0  0  0  0  0
    4.7225   -4.2102    4.5538 O   0  0  0  0  0  0  0  0  0  0  0  0
    3.0273   -4.1114    2.6847 C   0  0  1  0  0  0  0  0  0  0  0  0
    3.0608   -2.6022    2.6117 N   0  0  1  0  0  0  0  0  0  0  0  0
    3.6590   -1.8172    3.7257 C   0  0  0  0  0  0  0  0  0  0  0  0
    2.7387   -1.8742    1.3729 C   0  0  0  0  0  0  0  0  0  0  0  0
    3.7889   -0.9285    0.7268 C   0  0  1  0  0  0  0  0  0  0  0  0
    4.0919    0.3641    1.4973 C   0  0  0  0  0  0  0  0  0  0  0  0
    2.9508    0.9745    2.0869 O   0  0  0  0  0  0  0  0  0  0  0  0
    5.0787   -1.5006    0.0533 C   0  0  1  0  0  0  0  0  0  0  0  0
    6.0360   -2.3310    0.9331 C   0  0  0  0  0  0  0  0  0  0  0  0
    6.6534   -3.4681    0.0613 C   0  0  1  0  0  0  0  0  0  0  0  0
    6.2923   -4.9585    0.4293 C   0  0  2  0  0  0  0  0  0  0  0  0
    5.1069   -5.4523   -0.4016 C   0  0  0  0  0  0  0  0  0  0  0  0
    3.9231   -4.6737    0.1180 C   0  0  1  0  0  0  0  0  0  0  0  0
    3.1696   -4.2103   -1.0595 N   0  0  1  0  0  0  0  0  0  0  0  0
    1.7627   -4.5084   -1.1220 C   0  0  0  0  0  0  0  0  0  0  0  0
    3.5859   -2.9222   -1.6734 C   0  0  0  0  0  0  0  0  0  0  0  0
    4.9580   -2.1844   -1.3443 C   0  0  1  0  0  0  0  0  0  0  0  0
    4.9501   -1.0729   -2.4187 C   0  0  0  0  0  0  0  0  0  0  0  0
    6.2743   -3.0514   -1.3996 C   0  0  1  0  0  0  0  0  0  0  0  0
    7.3878   -2.3237   -1.8165 O   0  0  0  0  0  0  0  0  0  0  0  0
    3.3839   -5.1362    1.4994 C   0  0  2  0  0  0  0  0  0  0  0  0
    4.5729   -5.9414    2.1254 C   0  0  1  0  0  0  0  0  0  0  0  0
    5.9992   -5.2968    1.9368 C   0  0  1  0  0  0  0  0  0  0  0  0
    6.9474   -6.2653    2.3201 O   0  0  0  0  0  0  0  0  0  0  0  0
   -0.9140   -6.2937    1.3083 H   0  0  0  0  0  0  0  0  0  0  0  0
   -0.0313   -7.4829    2.2585 H   0  0  0  0  0  0  0  0  0  0  0  0
    0.1383   -7.4271    0.4773 H   0  0  0  0  0  0  0  0  0  0  0  0
    2.5549   -7.0473    0.8195 H   0  0  0  0  0  0  0  0  0  0  0  0
    1.8032   -6.7488    3.6992 H   0  0  0  0  0  0  0  0  0  0  0  0
    2.7566   -7.9771    2.8857 H   0  0  0  0  0  0  0  0  0  0  0  0
    4.6978   -7.8537    4.0135 H   0  0  0  0  0  0  0  0  0  0  0  0
    2.7957   -4.8184    4.7600 H   0  0  0  0  0  0  0  0  0  0  0  0
    5.4878   -4.5110    4.0921 H   0  0  0  0  0  0  0  0  0  0  0  0
    1.9520   -4.2213    2.8057 H   0  0  0  0  0  0  0  0  0  0  0  0
    4.7431   -1.7263    3.6646 H   0  0  0  0  0  0  0  0  0  0  0  0
    3.3915   -2.2212    4.7009 H   0  0  0  0  0  0  0  0  0  0  0  0
    3.2473   -0.8168    3.7973 H   0  0  0  0  0  0  0  0  0  0  0  0
    2.3207   -2.5035    0.6182 H   0  0  0  0  0  0  0  0  0  0  0  0
    1.8696   -1.2552    1.5868 H   0  0  0  0  0  0  0  0  0  0  0  0
    3.2359   -0.5133   -0.1108 H   0  0  0  0  0  0  0  0  0  0  0  0
    4.8785    0.2088    2.2402 H   0  0  0  0  0  0  0  0  0  0  0  0
    4.4937    1.0360    0.7470 H   0  0  0  0  0  0  0  0  0  0  0  0
    2.3242    1.2267    1.4215 H   0  0  0  0  0  0  0  0  0  0  0  0
    5.6692   -0.6041   -0.1459 H   0  0  0  0  0  0  0  0  0  0  0  0
    6.8181   -1.6761    1.3149 H   0  0  0  0  0  0  0  0  0  0  0  0
    5.5076   -2.6785    1.8105 H   0  0  0  0  0  0  0  0  0  0  0  0
    7.7328   -3.4170    0.2207 H   0  0  0  0  0  0  0  0  0  0  0  0
    7.1360   -5.5682    0.1070 H   0  0  0  0  0  0  0  0  0  0  0  0
    5.2155   -5.3555   -1.4724 H   0  0  0  0  0  0  0  0  0  0  0  0
    4.9668   -6.5258   -0.3090 H   0  0  0  0  0  0  0  0  0  0  0  0
    4.2433   -3.7446    0.4842 H   0  0  0  0  0  0  0  0  0  0  0  0
    1.4159   -3.9249   -0.3280 H   0  0  0  0  0  0  0  0  0  0  0  0
    1.4787   -5.5533   -0.9858 H   0  0  0  0  0  0  0  0  0  0  0  0
    1.3399   -4.1629   -2.0709 H   0  0  0  0  0  0  0  0  0  0  0  0
    3.5938   -3.1365   -2.7466 H   0  0  0  0  0  0  0  0  0  0  0  0
    2.7731   -2.1868   -1.5960 H   0  0  0  0  0  0  0  0  0  0  0  0
    4.9902   -1.4838   -3.4265 H   0  0  0  0  0  0  0  0  0  0  0  0
    5.7574   -0.3652   -2.2673 H   0  0  0  0  0  0  0  0  0  0  0  0
    4.0445   -0.4698   -2.3961 H   0  0  0  0  0  0  0  0  0  0  0  0
    6.2539   -3.8236   -2.1670 H   0  0  0  0  0  0  0  0  0  0  0  0
    8.0348   -2.9349   -2.1366 H   0  0  0  0  0  0  0  0  0  0  0  0
    4.6565   -6.9348    1.6722 H   0  0  0  0  0  0  0  0  0  0  0  0
    6.1618   -4.4360    2.5738 H   0  0  0  0  0  0  0  0  0  0  0  0
    7.8180   -5.8988    2.2573 H   0  0  0  0  0  0  0  0  0  0  0  0
    3.4377   -4.8823   -1.7641 H   0  0  0  0  0  0  0  0  0  0  0  0
    2.1312   -2.5068    2.9781 H   0  0  0  0  0  0  0  0  0  0  0  0
  1  2  1  0
  1 33  1  0
  1 34  1  0
  1 35  1  0
  2  3  1  0
 29  3  1  6
  3  4  1  0
  3 36  1  6
  4  5  1  0
  4 37  1  0
  4 38  1  0
  5 30  1  0
  5  6  1  1
  5  7  1  0
  6 39  1  0
  7  8  1  0
  7  9  1  0
  7 40  1  1
  8 41  1  0
  9 29  1  0
  9 10  1  0
  9 42  1  1
 10 11  1  0
 10 12  1  0
 10 74  1  1
 11 43  1  0
 11 44  1  0
 11 45  1  0
 12 13  1  0
 12 46  1  0
 12 47  1  0
 13 14  1  0
 13 16  1  0
 13 48  1  6
 14 15  1  0
 14 49  1  0
 14 50  1  0
 15 51  1  0
 16 25  1  0
 16 17  1  0
 16 52  1  6
 17 18  1  0
 17 53  1  0
 17 54  1  0
 18 27  1  0
 18 19  1  0
 18 55  1  6
 19 31  1  0
 19 20  1  0
 19 56  1  6
 20 21  1  0
 20 57  1  0
 20 58  1  0
 21 22  1  0
 21 29  1  0
 21 59  1  1
 22 23  1  0
 22 24  1  0
 22 73  1  6
 23 60  1  0
 23 61  1  0
 23 62  1  0
 24 25  1  0
 24 63  1  0
 24 64  1  0
 25 26  1  6
 25 27  1  0
 26 65  1  0
 26 66  1  0
 26 67  1  0
 27 28  1  0
 27 68  1  6
 28 69  1  0
 29 30  1  0
 30 31  1  0
 30 70  1  6
 31 32  1  0
 31 71  1  1
 32 72  1  0
M  CHG  2  10   1  22   1
M  END
>  <i_m_ct_stereo_status>  (390) 
1

>  <s_m_source_file>  (390) 
/var/tmp/pbs.5076255.sched01/tmpgahbdy6u/1388ql836nh.sdf

>  <i_m_source_file_index>  (390) 
21

>  <i_lp_mmshare_version>  (390) 
48012

>  <i_f3d_flags>  (390) 
0

>  <s_epik_input>  (390) 
W0NIM11PW0NAQEhdMVtDSDJdW0NAXShbT0hdKShbQ0BASF0oW09IXSlbQ0BASF0yW0NAQF0xMzQpW0NAQEhdNFtDQEBIXShbT0hdKVtDSF01W0NAQEhdNltDSDJdW0NASF0oW0NASF0oW0NIMl1bT0hdKVtDSDJdTjJbQ0gzXSlbQ0BAXShbQ0gzXSkoW0NASF02W09IXSlbQ0gyXU4oW0NIM10pW0NAQEhdM1tDSDJdNQ==

>  <s_epik_cmdline>  (390) 
J2VwaWtfcHl0aG9uJywgJy1waHQnLCAnMi4wJywgJy1waCcsICc3LjAnLCAnLXRuJywgJzgnLCAnLW1hJywgJzIwMCcsICctaW1hZScsICc8aW5maWxlLm1hZT4nLCAnLW9tYWUnLCAnPG91dGZpbGUubWFlPic=

>  <r_epik_Ionization_Penalty>  (390) 
0.13251

>  <r_epik_Ionization_Penalty_Charging>  (390) 
0.132509

>  <r_epik_Ionization_Penalty_Neutral>  (390) 
1.02957e-06

>  <r_epik_State_Penalty>  (390) 
0.117109

>  <r_epik_Charging_Adjusted_Penalty>  (390) 
0.249618

>  <i_epik_Tot_Q>  (390) 
2

>  <i_epik_Tot_abs_Q>  (390) 
2

>  <s_lp_Force_Field>  (390) 
OPLS3e

>  <r_lp_Energy>  (390) 
189.454

>  <b_lp_Chiralities_Consistent>  (390) 
1

>  <s_lp_Variant>  (390) 
98:0-2

>  <s_i_glide_gridfile>  (390) 
pfpi4k_grid

>  <i_i_glide_lignum>  (390) 
21

>  <i_i_glide_rotatable_bonds>  (390) 
7

>  <r_i_docking_score>  (390) 
-4.33599

>  <r_i_glide_ligand_efficiency>  (390) 
-0.1355

>  <r_i_glide_ligand_efficiency_sa>  (390) 
-0.430185

>  <r_i_glide_ligand_efficiency_ln>  (390) 
-0.970946

>  <r_i_glide_gscore>  (390) 
-4.33599

>  <r_i_glide_lipo>  (390) 
-0.462777

>  <r_i_glide_hbond>  (390) 
-0.332757

>  <r_i_glide_metal>  (390) 
-0

>  <r_i_glide_rewards>  (390) 
-0.309545

>  <r_i_glide_evdw>  (390) 
-18.3597

>  <r_i_glide_ecoul>  (390) 
-15.8741

>  <r_i_glide_erotb>  (390) 
0.0971755

>  <r_i_glide_esite>  (390) 
-0.0289911

>  <r_i_glide_emodel>  (390) 
-38.5124

>  <r_i_glide_energy>  (390) 
-34.2338

>  <r_i_glide_einternal>  (390) 
2.20483

>  <r_i_glide_intrahb_reward>  (390) 
-0

>  <i_i_glide_confnum>  (390) 
5

>  <i_i_glide_posenum>  (390) 
26

>  <r_i_glide_eff_state_penalty>  (390) 
0

>  <ligand_id>  (390) 
98

>  <original_smiles>  (390) 
COC1CC2(O)C(O)C3N(C)CC(CO)C4CC5C6CC(N(C)CC4(C)C5O)C13C2C6O

>  <smiles>  (390) 
[H]OC([H])([H])C1([H])C2([H])C([H])([H])C3([H])C([H])(O[H])C2(C([H])([H])[H])C([H])([H])[N+]([H])(C([H])([H])[H])C2([H])C([H])([H])C3([H])C([H])(O[H])C3([H])C4(O[H])C([H])([H])C([H])(OC([H])([H])[H])C32C([H])(C4([H])O[H])[N+]([H])(C([H])([H])[H])C1([H])[H]

$$$$
98:1:2
     RDKit          3D

 74 79  0  0  1  0  0  0  0  0999 V2000
    0.5792   -7.5314    1.7551 C   0  0  0  0  0  0  0  0  0  0  0  0
    1.3887   -6.4120    2.0669 O   0  0  0  0  0  0  0  0  0  0  0  0
    2.7642   -6.7336    2.2685 C   0  0  2  0  0  0  0  0  0  0  0  0
    3.0247   -7.3454    3.6813 C   0  0  0  0  0  0  0  0  0  0  0  0
    4.1723   -6.4771    4.2677 C   0  0  2  0  0  0  0  0  0  0  0  0
    4.9398   -7.1882    5.2167 O   0  0  0  0  0  0  0  0  0  0  0  0
    3.6092   -5.1391    4.7721 C   0  0  1  0  0  0  0  0  0  0  0  0
    4.6198   -4.4330    5.4678 O   0  0  0  0  0  0  0  0  0  0  0  0
    3.1056   -4.5010    3.4392 C   0  0  1  0  0  0  0  0  0  0  0  0
    2.8945   -2.9990    3.3814 N   0  0  1  0  0  0  0  0  0  0  0  0
    3.2846   -2.1499    4.5374 C   0  0  0  0  0  0  0  0  0  0  0  0
    2.5879   -2.2847    2.1007 C   0  0  0  0  0  0  0  0  0  0  0  0
    3.5533   -1.1726    1.5481 C   0  0  1  0  0  0  0  0  0  0  0  0
    3.6331    0.1303    2.3874 C   0  0  0  0  0  0  0  0  0  0  0  0
    2.3391    0.6205    2.6842 O   0  0  0  0  0  0  0  0  0  0  0  0
    4.9487   -1.5824    0.9813 C   0  0  1  0  0  0  0  0  0  0  0  0
    5.9330   -2.2958    1.9411 C   0  0  0  0  0  0  0  0  0  0  0  0
    6.7664   -3.3237    1.1145 C   0  0  1  0  0  0  0  0  0  0  0  0
    6.5995   -4.8673    1.4400 C   0  0  2  0  0  0  0  0  0  0  0  0
    5.5804   -5.5116    0.5008 C   0  0  0  0  0  0  0  0  0  0  0  0
    4.2390   -4.9137    0.9161 C   0  0  1  0  0  0  0  0  0  0  0  0
    3.5031   -4.5564   -0.3100 N   0  0  1  0  0  0  0  0  0  0  0  0
    2.1026   -5.0029   -0.4222 C   0  0  0  0  0  0  0  0  0  0  0  0
    3.8007   -3.1911   -0.8853 C   0  0  0  0  0  0  0  0  0  0  0  0
    5.0293   -2.2599   -0.4283 C   0  0  1  0  0  0  0  0  0  0  0  0
    4.9926   -1.1313   -1.5037 C   0  0  0  0  0  0  0  0  0  0  0  0
    6.4689   -2.8969   -0.3662 C   0  0  1  0  0  0  0  0  0  0  0  0
    7.4650   -1.9382   -0.6631 O   0  0  0  0  0  0  0  0  0  0  0  0
    3.6665   -5.4657    2.2768 C   0  0  2  0  0  0  0  0  0  0  0  0
    4.8994   -6.1251    2.9798 C   0  0  1  0  0  0  0  0  0  0  0  0
    6.2255   -5.2809    2.9206 C   0  0  1  0  0  0  0  0  0  0  0  0
    7.2763   -6.0681    3.4366 O   0  0  0  0  0  0  0  0  0  0  0  0
   -0.4513   -7.2068    1.6123 H   0  0  0  0  0  0  0  0  0  0  0  0
    0.5946   -8.2887    2.5406 H   0  0  0  0  0  0  0  0  0  0  0  0
    0.9237   -7.9806    0.8262 H   0  0  0  0  0  0  0  0  0  0  0  0
    3.1139   -7.4211    1.4940 H   0  0  0  0  0  0  0  0  0  0  0  0
    2.1446   -7.3325    4.3289 H   0  0  0  0  0  0  0  0  0  0  0  0
    3.3309   -8.3883    3.5703 H   0  0  0  0  0  0  0  0  0  0  0  0
    5.0801   -8.0713    4.8990 H   0  0  0  0  0  0  0  0  0  0  0  0
    2.7913   -5.3021    5.4731 H   0  0  0  0  0  0  0  0  0  0  0  0
    5.4462   -4.5261    5.0176 H   0  0  0  0  0  0  0  0  0  0  0  0
    2.0441   -4.7387    3.4828 H   0  0  0  0  0  0  0  0  0  0  0  0
    4.3550   -1.9409    4.5672 H   0  0  0  0  0  0  0  0  0  0  0  0
    2.9860   -2.6061    5.4839 H   0  0  0  0  0  0  0  0  0  0  0  0
    2.7369   -1.2094    4.5220 H   0  0  0  0  0  0  0  0  0  0  0  0
    2.3299   -2.9890    1.3308 H   0  0  0  0  0  0  0  0  0  0  0  0
    1.6300   -1.7953    2.2780 H   0  0  0  0  0  0  0  0  0  0  0  0
    3.0256   -0.8161    0.6598 H   0  0  0  0  0  0  0  0  0  0  0  0
    4.2088    0.0022    3.3066 H   0  0  0  0  0  0  0  0  0  0  0  0
    4.1505    0.9121    1.8312 H   0  0  0  0  0  0  0  0  0  0  0  0
    1.9596    1.0002    1.9013 H   0  0  0  0  0  0  0  0  0  0  0  0
    5.4522   -0.6251    0.8375 H   0  0  0  0  0  0  0  0  0  0  0  0
    6.5896   -1.5517    2.3968 H   0  0  0  0  0  0  0  0  0  0  0  0
    5.3939   -2.7352    2.7685 H   0  0  0  0  0  0  0  0  0  0  0  0
    7.8202   -3.1302    1.3156 H   0  0  0  0  0  0  0  0  0  0  0  0
    7.5534   -5.3328    1.1886 H   0  0  0  0  0  0  0  0  0  0  0  0
    5.8081   -5.3691   -0.5502 H   0  0  0  0  0  0  0  0  0  0  0  0
    5.5895   -6.5994    0.5647 H   0  0  0  0  0  0  0  0  0  0  0  0
    4.3856   -3.9441    1.3025 H   0  0  0  0  0  0  0  0  0  0  0  0
    1.4481   -4.6245    0.3482 H   0  0  0  0  0  0  0  0  0  0  0  0
    2.0696   -6.0894   -0.3599 H   0  0  0  0  0  0  0  0  0  0  0  0
    1.6991   -4.6913   -1.3895 H   0  0  0  0  0  0  0  0  0  0  0  0
    3.9254   -3.3800   -1.9555 H   0  0  0  0  0  0  0  0  0  0  0  0
    2.8880   -2.5944   -0.8308 H   0  0  0  0  0  0  0  0  0  0  0  0
    5.2283   -1.5151   -2.4979 H   0  0  0  0  0  0  0  0  0  0  0  0
    5.6915   -0.3178   -1.3052 H   0  0  0  0  0  0  0  0  0  0  0  0
    4.0068   -0.6673   -1.5604 H   0  0  0  0  0  0  0  0  0  0  0  0
    6.6452   -3.6514   -1.1275 H   0  0  0  0  0  0  0  0  0  0  0  0
    8.3120   -2.3634   -0.5926 H   0  0  0  0  0  0  0  0  0  0  0  0
    5.1601   -7.0864    2.5278 H   0  0  0  0  0  0  0  0  0  0  0  0
    6.1826   -4.4159    3.5704 H   0  0  0  0  0  0  0  0  0  0  0  0
    7.0935   -6.2833    4.3413 H   0  0  0  0  0  0  0  0  0  0  0  0
    3.9429   -5.1547   -0.9989 H   0  0  0  0  0  0  0  0  0  0  0  0
    1.9317   -3.0650    3.6619 H   0  0  0  0  0  0  0  0  0  0  0  0
  1  2  1  0
  1 33  1  0
  1 34  1  0
  1 35  1  0
  2  3  1  0
 29  3  1  6
  3  4  1  0
  3 36  1  6
  4  5  1  0
  4 37  1  0
  4 38  1  0
  5 30  1  0
  5  6  1  1
  5  7  1  0
  6 39  1  0
  7  8  1  0
  7  9  1  0
  7 40  1  1
  8 41  1  0
  9 29  1  0
  9 10  1  0
  9 42  1  1
 10 11  1  0
 10 12  1  0
 10 74  1  1
 11 43  1  0
 11 44  1  0
 11 45  1  0
 12 13  1  0
 12 46  1  0
 12 47  1  0
 13 14  1  0
 13 16  1  0
 13 48  1  6
 14 15  1  0
 14 49  1  0
 14 50  1  0
 15 51  1  0
 16 25  1  0
 16 17  1  0
 16 52  1  6
 17 18  1  0
 17 53  1  0
 17 54  1  0
 18 27  1  0
 18 19  1  0
 18 55  1  1
 19 31  1  0
 19 20  1  0
 19 56  1  6
 20 21  1  0
 20 57  1  0
 20 58  1  0
 21 22  1  0
 21 29  1  0
 21 59  1  1
 22 23  1  0
 22 24  1  0
 22 73  1  6
 23 60  1  0
 23 61  1  0
 23 62  1  0
 24 25  1  0
 24 63  1  0
 24 64  1  0
 25 26  1  6
 25 27  1  0
 26 65  1  0
 26 66  1  0
 26 67  1  0
 27 28  1  0
 27 68  1  6
 28 69  1  0
 29 30  1  0
 30 31  1  0
 30 70  1  6
 31 32  1  0
 31 71  1  1
 32 72  1  0
M  CHG  2  10   1  22   1
M  END
>  <i_m_ct_stereo_status>  (391) 
1

>  <s_m_source_file>  (391) 
/var/tmp/pbs.5076255.sched01/tmpgahbdy6u/1388ql836nh.sdf

>  <i_m_source_file_index>  (391) 
21

>  <i_lp_mmshare_version>  (391) 
48012

>  <i_f3d_flags>  (391) 
0

>  <s_epik_input>  (391) 
W0NIM11PW0NAQEhdMVtDSDJdW0NAXShbT0hdKShbQ0BASF0oW09IXSlbQ0BASF0yW0NAQF0xMzQpW0NAQEhdNFtDQEBIXShbT0hdKVtDSF01W0NAQEhdNltDSDJdW0NASF0oW0NASF0oW0NIMl1bT0hdKVtDSDJdTjJbQ0gzXSlbQ0BAXShbQ0gzXSkoW0NASF02W09IXSlbQ0gyXU4oW0NIM10pW0NAQEhdM1tDSDJdNQ==

>  <s_epik_cmdline>  (391) 
J2VwaWtfcHl0aG9uJywgJy1waHQnLCAnMi4wJywgJy1waCcsICc3LjAnLCAnLXRuJywgJzgnLCAnLW1hJywgJzIwMCcsICctaW1hZScsICc8aW5maWxlLm1hZT4nLCAnLW9tYWUnLCAnPG91dGZpbGUubWFlPic=

>  <r_epik_Ionization_Penalty>  (391) 
0.13251

>  <r_epik_Ionization_Penalty_Charging>  (391) 
0.132509

>  <r_epik_Ionization_Penalty_Neutral>  (391) 
1.02957e-06

>  <r_epik_State_Penalty>  (391) 
0.117109

>  <r_epik_Charging_Adjusted_Penalty>  (391) 
0.249618

>  <i_epik_Tot_Q>  (391) 
2

>  <i_epik_Tot_abs_Q>  (391) 
2

>  <s_lp_Force_Field>  (391) 
OPLS3e

>  <r_lp_Energy>  (391) 
189.454

>  <b_lp_Chiralities_Consistent>  (391) 
1

>  <s_lp_Variant>  (391) 
98:0-2

>  <s_i_glide_gridfile>  (391) 
pfpi4k_grid

>  <i_i_glide_lignum>  (391) 
21

>  <i_i_glide_rotatable_bonds>  (391) 
7

>  <r_i_docking_score>  (391) 
-3.7878

>  <r_i_glide_ligand_efficiency>  (391) 
-0.118369

>  <r_i_glide_ligand_efficiency_sa>  (391) 
-0.375797

>  <r_i_glide_ligand_efficiency_ln>  (391) 
-0.848191

>  <r_i_glide_gscore>  (391) 
-3.7878

>  <r_i_glide_lipo>  (391) 
-0.497885

>  <r_i_glide_hbond>  (391) 
-0.16

>  <r_i_glide_metal>  (391) 
-0

>  <r_i_glide_rewards>  (391) 
-0.809545

>  <r_i_glide_evdw>  (391) 
-16.2312

>  <r_i_glide_ecoul>  (391) 
-10.473

>  <r_i_glide_erotb>  (391) 
0.0971755

>  <r_i_glide_esite>  (391) 
-0.0350374

>  <r_i_glide_emodel>  (391) 
-37.1177

>  <r_i_glide_energy>  (391) 
-26.7042

>  <r_i_glide_einternal>  (391) 
1.18151

>  <r_i_glide_intrahb_reward>  (391) 
-0.5

>  <i_i_glide_confnum>  (391) 
2

>  <i_i_glide_posenum>  (391) 
7

>  <r_i_glide_eff_state_penalty>  (391) 
0

>  <ligand_id>  (391) 
98

>  <original_smiles>  (391) 
COC1CC2(O)C(O)C3N(C)CC(CO)C4CC5C6CC(N(C)CC4(C)C5O)C13C2C6O

>  <smiles>  (391) 
[H]OC([H])([H])C1([H])C2([H])C([H])([H])C3([H])C([H])(O[H])C2(C([H])([H])[H])C([H])([H])[N+]([H])(C([H])([H])[H])C2([H])C([H])([H])C3([H])C([H])(O[H])C3([H])C4(O[H])C([H])([H])C([H])(OC([H])([H])[H])C32C([H])(C4([H])O[H])[N+]([H])(C([H])([H])[H])C1([H])[H]

$$$$
98:2:0
     RDKit          3D

 73 78  0  0  1  0  0  0  0  0999 V2000
    0.1176   -7.3324    1.0137 C   0  0  0  0  0  0  0  0  0  0  0  0
    0.9405   -6.2075    1.2767 O   0  0  0  0  0  0  0  0  0  0  0  0
    2.3139   -6.5461    1.4990 C   0  0  2  0  0  0  0  0  0  0  0  0
    2.5633   -7.1495    2.9227 C   0  0  0  0  0  0  0  0  0  0  0  0
    3.7850   -6.3443    3.4517 C   0  0  2  0  0  0  0  0  0  0  0  0
    4.5166   -7.0917    4.4004 O   0  0  0  0  0  0  0  0  0  0  0  0
    3.2983   -4.9650    3.9420 C   0  0  1  0  0  0  0  0  0  0  0  0
    4.3597   -4.2130    4.5023 O   0  0  0  0  0  0  0  0  0  0  0  0
    2.7331   -4.3710    2.6182 C   0  0  1  0  0  0  0  0  0  0  0  0
    2.6213   -2.9088    2.4229 N   0  0  0  0  0  0  0  0  0  0  0  0
    1.6570   -2.2891    3.3245 C   0  0  0  0  0  0  0  0  0  0  0  0
    3.8627   -2.1399    2.3726 C   0  0  0  0  0  0  0  0  0  0  0  0
    4.0030   -1.2696    1.0919 C   0  0  1  0  0  0  0  0  0  0  0  0
    3.7594    0.2225    1.4366 C   0  0  0  0  0  0  0  0  0  0  0  0
    2.3666    0.4787    1.3945 O   0  0  0  0  0  0  0  0  0  0  0  0
    5.2815   -1.5257    0.2156 C   0  0  1  0  0  0  0  0  0  0  0  0
    6.5589   -2.1615    0.8652 C   0  0  0  0  0  0  0  0  0  0  0  0
    6.8640   -3.4968    0.1085 C   0  0  1  0  0  0  0  0  0  0  0  0
    6.0627   -4.7527    0.6293 C   0  0  1  0  0  0  0  0  0  0  0  0
    5.0436   -5.3407   -0.3531 C   0  0  0  0  0  0  0  0  0  0  0  0
    3.7583   -4.6940    0.1135 C   0  0  1  0  0  0  0  0  0  0  0  0
    3.0489   -4.0541   -1.0106 N   0  0  1  0  0  0  0  0  0  0  0  0
    1.6317   -3.8012   -0.8308 C   0  0  0  0  0  0  0  0  0  0  0  0
    3.7363   -2.8915   -1.6772 C   0  0  0  0  0  0  0  0  0  0  0  0
    5.1014   -2.1944   -1.2064 C   0  0  1  0  0  0  0  0  0  0  0  0
    5.0949   -1.0367   -2.2452 C   0  0  0  0  0  0  0  0  0  0  0  0
    6.4306   -3.0361   -1.3372 C   0  0  1  0  0  0  0  0  0  0  0  0
    7.5034   -2.2653   -1.8315 O   0  0  0  0  0  0  0  0  0  0  0  0
    3.2657   -5.3275    1.4762 C   0  0  2  0  0  0  0  0  0  0  0  0
    4.4984   -6.0908    2.1324 C   0  0  1  0  0  0  0  0  0  0  0  0
    5.9799   -5.4966    1.9961 C   0  0  1  0  0  0  0  0  0  0  0  0
    6.9204   -6.5503    1.9341 O   0  0  0  0  0  0  0  0  0  0  0  0
   -0.9094   -6.9939    0.8710 H   0  0  0  0  0  0  0  0  0  0  0  0
    0.1094   -8.0581    1.8378 H   0  0  0  0  0  0  0  0  0  0  0  0
    0.4565   -7.8163    0.0927 H   0  0  0  0  0  0  0  0  0  0  0  0
    2.6451   -7.2701    0.7567 H   0  0  0  0  0  0  0  0  0  0  0  0
    1.6943   -7.0538    3.5772 H   0  0  0  0  0  0  0  0  0  0  0  0
    2.7854   -8.2150    2.8276 H   0  0  0  0  0  0  0  0  0  0  0  0
    3.9605   -7.2704    5.1366 H   0  0  0  0  0  0  0  0  0  0  0  0
    2.5220   -5.0575    4.6991 H   0  0  0  0  0  0  0  0  0  0  0  0
    5.0756   -4.2340    3.9031 H   0  0  0  0  0  0  0  0  0  0  0  0
    1.6842   -4.6446    2.7148 H   0  0  0  0  0  0  0  0  0  0  0  0
    1.5277   -1.2364    3.0850 H   0  0  0  0  0  0  0  0  0  0  0  0
    1.9859   -2.3592    4.3608 H   0  0  0  0  0  0  0  0  0  0  0  0
    0.6784   -2.7632    3.2374 H   0  0  0  0  0  0  0  0  0  0  0  0
    3.9499   -1.5241    3.2652 H   0  0  0  0  0  0  0  0  0  0  0  0
    4.6855   -2.8183    2.4905 H   0  0  0  0  0  0  0  0  0  0  0  0
    3.1805   -1.5432    0.4380 H   0  0  0  0  0  0  0  0  0  0  0  0
    4.1413    0.4790    2.4238 H   0  0  0  0  0  0  0  0  0  0  0  0
    4.2455    0.9157    0.7546 H   0  0  0  0  0  0  0  0  0  0  0  0
    1.9948    0.0797    0.6170 H   0  0  0  0  0  0  0  0  0  0  0  0
    5.6566   -0.5180    0.0226 H   0  0  0  0  0  0  0  0  0  0  0  0
    7.3882   -1.4820    0.6674 H   0  0  0  0  0  0  0  0  0  0  0  0
    6.5532   -2.2346    1.9539 H   0  0  0  0  0  0  0  0  0  0  0  0
    7.9337   -3.7308    0.1622 H   0  0  0  0  0  0  0  0  0  0  0  0
    5.5625   -4.0615    1.2574 H   0  0  0  0  0  0  0  0  0  0  0  0
    5.1886   -5.1848   -1.4081 H   0  0  0  0  0  0  0  0  0  0  0  0
    5.0154   -6.4269   -0.3073 H   0  0  0  0  0  0  0  0  0  0  0  0
    3.9132   -3.7098    0.4722 H   0  0  0  0  0  0  0  0  0  0  0  0
    1.5239   -3.0753   -0.0386 H   0  0  0  0  0  0  0  0  0  0  0  0
    1.1435   -4.7476   -0.6388 H   0  0  0  0  0  0  0  0  0  0  0  0
    1.1704   -3.3976   -1.7238 H   0  0  0  0  0  0  0  0  0  0  0  0
    3.8996   -3.2391   -2.6934 H   0  0  0  0  0  0  0  0  0  0  0  0
    3.0001   -2.1038   -1.7907 H   0  0  0  0  0  0  0  0  0  0  0  0
    5.1179   -1.4303   -3.2640 H   0  0  0  0  0  0  0  0  0  0  0  0
    5.9222   -0.3559   -2.1168 H   0  0  0  0  0  0  0  0  0  0  0  0
    4.2238   -0.3805   -2.1612 H   0  0  0  0  0  0  0  0  0  0  0  0
    6.3971   -3.8073   -2.1035 H   0  0  0  0  0  0  0  0  0  0  0  0
    8.0201   -2.7753   -2.4258 H   0  0  0  0  0  0  0  0  0  0  0  0
    4.6121   -7.0760    1.6688 H   0  0  0  0  0  0  0  0  0  0  0  0
    6.2611   -4.8657    2.8468 H   0  0  0  0  0  0  0  0  0  0  0  0
    6.9529   -6.9767    2.7751 H   0  0  0  0  0  0  0  0  0  0  0  0
    3.0522   -4.7875   -1.7114 H   0  0  0  0  0  0  0  0  0  0  0  0
  1  2  1  0
  1 33  1  0
  1 34  1  0
  1 35  1  0
  2  3  1  0
 29  3  1  6
  3  4  1  0
  3 36  1  6
  4  5  1  0
  4 37  1  0
  4 38  1  0
  5 30  1  0
  5  6  1  1
  5  7  1  0
  6 39  1  0
  7  8  1  0
  7  9  1  0
  7 40  1  1
  8 41  1  0
  9 29  1  0
  9 10  1  0
  9 42  1  1
 10 11  1  0
 10 12  1  0
 11 43  1  0
 11 44  1  0
 11 45  1  0
 12 13  1  0
 12 46  1  0
 12 47  1  0
 13 14  1  0
 13 16  1  0
 13 48  1  6
 14 15  1  0
 14 49  1  0
 14 50  1  0
 15 51  1  0
 16 25  1  0
 16 17  1  0
 16 52  1  6
 17 18  1  0
 17 53  1  0
 17 54  1  0
 18 27  1  0
 18 19  1  0
 18 55  1  6
 19 31  1  0
 19 20  1  0
 19 56  1  6
 20 21  1  0
 20 57  1  0
 20 58  1  0
 21 22  1  0
 21 29  1  0
 21 59  1  1
 22 23  1  0
 22 24  1  0
 22 73  1  6
 23 60  1  0
 23 61  1  0
 23 62  1  0
 24 25  1  0
 24 63  1  0
 24 64  1  0
 25 26  1  6
 25 27  1  0
 26 65  1  0
 26 66  1  0
 26 67  1  0
 27 28  1  0
 27 68  1  6
 28 69  1  0
 29 30  1  0
 30 31  1  0
 30 70  1  6
 31 32  1  0
 31 71  1  1
 32 72  1  0
M  CHG  1  22   1
M  END
>  <i_m_ct_stereo_status>  (392) 
1

>  <s_m_source_file>  (392) 
/var/tmp/pbs.5076255.sched01/tmpgahbdy6u/1388ql836nh.sdf

>  <i_m_source_file_index>  (392) 
22

>  <i_lp_mmshare_version>  (392) 
48012

>  <i_f3d_flags>  (392) 
0

>  <s_epik_input>  (392) 
W0NIM11PW0NAQEhdMVtDSDJdW0NAXShbT0hdKShbQ0BASF0oW09IXSlbQ0BASF0yW0NAQF0xMzQpW0NAQEhdNFtDQEBIXShbT0hdKVtDSF01W0NAQEhdNltDSDJdW0NASF0oW0NASF0oW0NIMl1bT0hdKVtDSDJdTjJbQ0gzXSlbQ0BAXShbQ0gzXSkoW0NASF02W09IXSlbQ0gyXU4oW0NIM10pW0NAQEhdM1tDSDJdNQ==

>  <s_epik_cmdline>  (392) 
J2VwaWtfcHl0aG9uJywgJy1waHQnLCAnMi4wJywgJy1waCcsICc3LjAnLCAnLXRuJywgJzgnLCAnLW1hJywgJzIwMCcsICctaW1hZScsICc8aW5maWxlLm1hZT4nLCAnLW9tYWUnLCAnPG91dGZpbGUubWFlPic=

>  <r_epik_Ionization_Penalty>  (392) 
1.014

>  <r_epik_Ionization_Penalty_Charging>  (392) 
0.000602639

>  <r_epik_Ionization_Penalty_Neutral>  (392) 
1.0134

>  <r_epik_State_Penalty>  (392) 
1.07241

>  <r_epik_Charging_Adjusted_Penalty>  (392) 
1.07301

>  <i_epik_Tot_Q>  (392) 
1

>  <i_epik_Tot_abs_Q>  (392) 
1

>  <s_lp_Force_Field>  (392) 
OPLS3e

>  <r_lp_Energy>  (392) 
231.76

>  <b_lp_Chiralities_Consistent>  (392) 
1

>  <s_lp_Variant>  (392) 
98:0-3

>  <s_i_glide_gridfile>  (392) 
pfpi4k_grid

>  <i_i_glide_lignum>  (392) 
22

>  <i_i_glide_rotatable_bonds>  (392) 
7

>  <r_i_docking_score>  (392) 
-4.60587

>  <r_i_glide_ligand_efficiency>  (392) 
-0.143933

>  <r_i_glide_ligand_efficiency_sa>  (392) 
-0.45696

>  <r_i_glide_ligand_efficiency_ln>  (392) 
-1.03138

>  <r_i_glide_gscore>  (392) 
-4.60587

>  <r_i_glide_lipo>  (392) 
-0.516157

>  <r_i_glide_hbond>  (392) 
-0.671742

>  <r_i_glide_metal>  (392) 
-0

>  <r_i_glide_rewards>  (392) 
-0.316417

>  <r_i_glide_evdw>  (392) 
-16.8558

>  <r_i_glide_ecoul>  (392) 
-15.5718

>  <r_i_glide_erotb>  (392) 
0.0975687

>  <r_i_glide_esite>  (392) 
-0.0205589

>  <r_i_glide_emodel>  (392) 
-40.1707

>  <r_i_glide_energy>  (392) 
-32.4276

>  <r_i_glide_einternal>  (392) 
5.03411

>  <r_i_glide_intrahb_reward>  (392) 
-0

>  <i_i_glide_confnum>  (392) 
2

>  <i_i_glide_posenum>  (392) 
8

>  <r_i_glide_eff_state_penalty>  (392) 
0

>  <ligand_id>  (392) 
98

>  <original_smiles>  (392) 
COC1CC2(O)C(O)C3N(C)CC(CO)C4CC5C6CC(N(C)CC4(C)C5O)C13C2C6O

>  <smiles>  (392) 
[H]OC([H])([H])C1([H])C([H])([H])N(C([H])([H])[H])C2([H])C([H])(O[H])C3(O[H])C([H])([H])C([H])(OC([H])([H])[H])C24C3([H])C([H])(O[H])C2([H])C([H])([H])C4([H])[N+]([H])(C([H])([H])[H])C([H])([H])C3(C([H])([H])[H])C([H])(O[H])C2([H])C([H])([H])C13[H]

$$$$
98:2:1
     RDKit          3D

 73 78  0  0  1  0  0  0  0  0999 V2000
    0.6969   -7.9572    1.9089 C   0  0  0  0  0  0  0  0  0  0  0  0
    1.3917   -6.7184    1.9003 O   0  0  0  0  0  0  0  0  0  0  0  0
    2.7431   -6.8054    2.3603 C   0  0  2  0  0  0  0  0  0  0  0  0
    2.8361   -7.1287    3.8957 C   0  0  0  0  0  0  0  0  0  0  0  0
    3.8266   -6.0698    4.4525 C   0  0  2  0  0  0  0  0  0  0  0  0
    4.4568   -6.5470    5.6206 O   0  0  0  0  0  0  0  0  0  0  0  0
    3.0774   -4.7323    4.6205 C   0  0  1  0  0  0  0  0  0  0  0  0
    3.9021   -3.7399    5.1914 O   0  0  0  0  0  0  0  0  0  0  0  0
    2.6816   -4.4374    3.1471 C   0  0  1  0  0  0  0  0  0  0  0  0
    2.4024   -3.0559    2.6967 N   0  0  0  0  0  0  0  0  0  0  0  0
    1.2258   -2.4830    3.3399 C   0  0  0  0  0  0  0  0  0  0  0  0
    3.5135   -2.1083    2.6878 C   0  0  0  0  0  0  0  0  0  0  0  0
    3.7452   -1.4299    1.3095 C   0  0  1  0  0  0  0  0  0  0  0  0
    3.3053    0.0527    1.3627 C   0  0  0  0  0  0  0  0  0  0  0  0
    1.8965    0.1851    1.3613 O   0  0  0  0  0  0  0  0  0  0  0  0
    5.1820   -1.5985    0.6967 C   0  0  1  0  0  0  0  0  0  0  0  0
    6.4004   -1.9272    1.6252 C   0  0  0  0  0  0  0  0  0  0  0  0
    7.0121   -3.2988    1.1632 C   0  0  1  0  0  0  0  0  0  0  0  0
    6.3046   -4.5693    1.7669 C   0  0  1  0  0  0  0  0  0  0  0  0
    5.5751   -5.4596    0.7584 C   0  0  0  0  0  0  0  0  0  0  0  0
    4.1594   -4.9762    0.9130 C   0  0  1  0  0  0  0  0  0  0  0  0
    3.5625   -4.6321   -0.3684 N   0  0  1  0  0  0  0  0  0  0  0  0
    2.1161   -4.5656   -0.4020 C   0  0  0  0  0  0  0  0  0  0  0  0
    4.1918   -3.4830   -1.1187 C   0  0  0  0  0  0  0  0  0  0  0  0
    5.3508   -2.4930   -0.5924 C   0  0  1  0  0  0  0  0  0  0  0  0
    5.4266   -1.5085   -1.7984 C   0  0  0  0  0  0  0  0  0  0  0  0
    6.7841   -3.1146   -0.3722 C   0  0  1  0  0  0  0  0  0  0  0  0
    7.8199   -2.2539   -0.8219 O   0  0  0  0  0  0  0  0  0  0  0  0
    3.5199   -5.4599    2.2698 C   0  0  2  0  0  0  0  0  0  0  0  0
    4.7101   -5.9169    3.2242 C   0  0  1  0  0  0  0  0  0  0  0  0
    6.0933   -5.1247    3.2088 C   0  0  1  0  0  0  0  0  0  0  0  0
    7.1755   -5.9968    3.4785 O   0  0  0  0  0  0  0  0  0  0  0  0
   -0.3116   -7.8159    1.5205 H   0  0  0  0  0  0  0  0  0  0  0  0
    0.5996   -8.3737    2.9121 H   0  0  0  0  0  0  0  0  0  0  0  0
    1.2054   -8.6866    1.2800 H   0  0  0  0  0  0  0  0  0  0  0  0
    3.2670   -7.5765    1.7888 H   0  0  0  0  0  0  0  0  0  0  0  0
    1.8700   -7.0645    4.3990 H   0  0  0  0  0  0  0  0  0  0  0  0
    3.2050   -8.1479    4.0337 H   0  0  0  0  0  0  0  0  0  0  0  0
    3.8071   -6.7069    6.2853 H   0  0  0  0  0  0  0  0  0  0  0  0
    2.2014   -4.8260    5.2641 H   0  0  0  0  0  0  0  0  0  0  0  0
    4.7173   -3.7274    4.7258 H   0  0  0  0  0  0  0  0  0  0  0  0
    1.6815   -4.8654    3.1333 H   0  0  0  0  0  0  0  0  0  0  0  0
    0.9725   -1.5175    2.9130 H   0  0  0  0  0  0  0  0  0  0  0  0
    1.3840   -2.3371    4.4071 H   0  0  0  0  0  0  0  0  0  0  0  0
    0.3527   -3.1168    3.2016 H   0  0  0  0  0  0  0  0  0  0  0  0
    3.3632   -1.3488    3.4542 H   0  0  0  0  0  0  0  0  0  0  0  0
    4.3886   -2.6152    3.0452 H   0  0  0  0  0  0  0  0  0  0  0  0
    3.0694   -1.8944    0.5970 H   0  0  0  0  0  0  0  0  0  0  0  0
    3.7312    0.5646    2.2265 H   0  0  0  0  0  0  0  0  0  0  0  0
    3.6579    0.5993    0.4946 H   0  0  0  0  0  0  0  0  0  0  0  0
    1.5124   -0.2443    0.5960 H   0  0  0  0  0  0  0  0  0  0  0  0
    5.4398   -0.5783    0.3951 H   0  0  0  0  0  0  0  0  0  0  0  0
    7.1442   -1.1557    1.4352 H   0  0  0  0  0  0  0  0  0  0  0  0
    6.2116   -1.8253    2.6964 H   0  0  0  0  0  0  0  0  0  0  0  0
    8.0836   -3.3949    1.3597 H   0  0  0  0  0  0  0  0  0  0  0  0
    5.6204   -3.8781    2.1905 H   0  0  0  0  0  0  0  0  0  0  0  0
    5.8952   -5.4332   -0.2689 H   0  0  0  0  0  0  0  0  0  0  0  0
    5.6879   -6.5195    0.9979 H   0  0  0  0  0  0  0  0  0  0  0  0
    4.1114   -3.9335    1.1264 H   0  0  0  0  0  0  0  0  0  0  0  0
    1.8108   -3.7640    0.2373 H   0  0  0  0  0  0  0  0  0  0  0  0
    1.6564   -5.4970   -0.1150 H   0  0  0  0  0  0  0  0  0  0  0  0
    1.7356   -4.3548   -1.3959 H   0  0  0  0  0  0  0  0  0  0  0  0
    4.5771   -3.9322   -2.0298 H   0  0  0  0  0  0  0  0  0  0  0  0
    3.3971   -2.8446   -1.4915 H   0  0  0  0  0  0  0  0  0  0  0  0
    5.7210   -2.0272   -2.7119 H   0  0  0  0  0  0  0  0  0  0  0  0
    6.1521   -0.7168   -1.6383 H   0  0  0  0  0  0  0  0  0  0  0  0
    4.4872   -0.9854   -1.9846 H   0  0  0  0  0  0  0  0  0  0  0  0
    6.9913   -3.9668   -0.9968 H   0  0  0  0  0  0  0  0  0  0  0  0
    8.6565   -2.7046   -0.8125 H   0  0  0  0  0  0  0  0  0  0  0  0
    5.0244   -6.9328    2.9699 H   0  0  0  0  0  0  0  0  0  0  0  0
    6.1046   -4.3480    3.9764 H   0  0  0  0  0  0  0  0  0  0  0  0
    7.1758   -6.7152    2.8665 H   0  0  0  0  0  0  0  0  0  0  0  0
    3.7274   -5.4101   -0.9718 H   0  0  0  0  0  0  0  0  0  0  0  0
  1  2  1  0
  1 33  1  0
  1 34  1  0
  1 35  1  0
  2  3  1  0
 29  3  1  6
  3  4  1  0
  3 36  1  6
  4  5  1  0
  4 37  1  0
  4 38  1  0
  5 30  1  0
  5  6  1  1
  5  7  1  0
  6 39  1  0
  7  8  1  0
  7  9  1  0
  7 40  1  1
  8 41  1  0
  9 29  1  0
  9 10  1  0
  9 42  1  1
 10 11  1  0
 10 12  1  0
 11 43  1  0
 11 44  1  0
 11 45  1  0
 12 13  1  0
 12 46  1  0
 12 47  1  0
 13 14  1  0
 13 16  1  0
 13 48  1  6
 14 15  1  0
 14 49  1  0
 14 50  1  0
 15 51  1  0
 16 25  1  0
 16 17  1  0
 16 52  1  6
 17 18  1  0
 17 53  1  0
 17 54  1  0
 18 27  1  0
 18 19  1  0
 18 55  1  6
 19 31  1  0
 19 20  1  0
 19 56  1  6
 20 21  1  0
 20 57  1  0
 20 58  1  0
 21 22  1  0
 21 29  1  0
 21 59  1  1
 22 23  1  0
 22 24  1  0
 22 73  1  6
 23 60  1  0
 23 61  1  0
 23 62  1  0
 24 25  1  0
 24 63  1  0
 24 64  1  0
 25 26  1  6
 25 27  1  0
 26 65  1  0
 26 66  1  0
 26 67  1  0
 27 28  1  0
 27 68  1  6
 28 69  1  0
 29 30  1  0
 30 31  1  0
 30 70  1  6
 31 32  1  0
 31 71  1  1
 32 72  1  0
M  CHG  1  22   1
M  END
>  <i_m_ct_stereo_status>  (393) 
1

>  <s_m_source_file>  (393) 
/var/tmp/pbs.5076255.sched01/tmpgahbdy6u/1388ql836nh.sdf

>  <i_m_source_file_index>  (393) 
22

>  <i_lp_mmshare_version>  (393) 
48012

>  <i_f3d_flags>  (393) 
0

>  <s_epik_input>  (393) 
W0NIM11PW0NAQEhdMVtDSDJdW0NAXShbT0hdKShbQ0BASF0oW09IXSlbQ0BASF0yW0NAQF0xMzQpW0NAQEhdNFtDQEBIXShbT0hdKVtDSF01W0NAQEhdNltDSDJdW0NASF0oW0NASF0oW0NIMl1bT0hdKVtDSDJdTjJbQ0gzXSlbQ0BAXShbQ0gzXSkoW0NASF02W09IXSlbQ0gyXU4oW0NIM10pW0NAQEhdM1tDSDJdNQ==

>  <s_epik_cmdline>  (393) 
J2VwaWtfcHl0aG9uJywgJy1waHQnLCAnMi4wJywgJy1waCcsICc3LjAnLCAnLXRuJywgJzgnLCAnLW1hJywgJzIwMCcsICctaW1hZScsICc8aW5maWxlLm1hZT4nLCAnLW9tYWUnLCAnPG91dGZpbGUubWFlPic=

>  <r_epik_Ionization_Penalty>  (393) 
1.014

>  <r_epik_Ionization_Penalty_Charging>  (393) 
0.000602639

>  <r_epik_Ionization_Penalty_Neutral>  (393) 
1.0134

>  <r_epik_State_Penalty>  (393) 
1.07241

>  <r_epik_Charging_Adjusted_Penalty>  (393) 
1.07301

>  <i_epik_Tot_Q>  (393) 
1

>  <i_epik_Tot_abs_Q>  (393) 
1

>  <s_lp_Force_Field>  (393) 
OPLS3e

>  <r_lp_Energy>  (393) 
231.76

>  <b_lp_Chiralities_Consistent>  (393) 
1

>  <s_lp_Variant>  (393) 
98:0-3

>  <s_i_glide_gridfile>  (393) 
pfpi4k_grid

>  <i_i_glide_lignum>  (393) 
22

>  <i_i_glide_rotatable_bonds>  (393) 
7

>  <r_i_docking_score>  (393) 
-3.80924

>  <r_i_glide_ligand_efficiency>  (393) 
-0.119039

>  <r_i_glide_ligand_efficiency_sa>  (393) 
-0.377924

>  <r_i_glide_ligand_efficiency_ln>  (393) 
-0.852993

>  <r_i_glide_gscore>  (393) 
-3.80924

>  <r_i_glide_lipo>  (393) 
-0.578749

>  <r_i_glide_hbond>  (393) 
-0.32

>  <r_i_glide_metal>  (393) 
-0

>  <r_i_glide_rewards>  (393) 
-0.316417

>  <r_i_glide_evdw>  (393) 
-19.6221

>  <r_i_glide_ecoul>  (393) 
-11.1502

>  <r_i_glide_erotb>  (393) 
0.0975687

>  <r_i_glide_esite>  (393) 
-0.0380131

>  <r_i_glide_emodel>  (393) 
-39.1639

>  <r_i_glide_energy>  (393) 
-30.7722

>  <r_i_glide_einternal>  (393) 
1.01669

>  <r_i_glide_intrahb_reward>  (393) 
-0

>  <i_i_glide_confnum>  (393) 
2

>  <i_i_glide_posenum>  (393) 
10

>  <r_i_glide_eff_state_penalty>  (393) 
0

>  <ligand_id>  (393) 
98

>  <original_smiles>  (393) 
COC1CC2(O)C(O)C3N(C)CC(CO)C4CC5C6CC(N(C)CC4(C)C5O)C13C2C6O

>  <smiles>  (393) 
[H]OC([H])([H])C1([H])C([H])([H])N(C([H])([H])[H])C2([H])C([H])(O[H])C3(O[H])C([H])([H])C([H])(OC([H])([H])[H])C24C3([H])C([H])(O[H])C2([H])C([H])([H])C4([H])[N+]([H])(C([H])([H])[H])C([H])([H])C3(C([H])([H])[H])C([H])(O[H])C2([H])C([H])([H])C13[H]

$$$$
98:2:2
     RDKit          3D

 73 78  0  0  1  0  0  0  0  0999 V2000
    3.2490   -5.6948    7.1920 C   0  0  0  0  0  0  0  0  0  0  0  0
    3.8263   -5.5018    5.9093 O   0  0  0  0  0  0  0  0  0  0  0  0
    2.9603   -5.7977    4.8176 C   0  0  2  0  0  0  0  0  0  0  0  0
    2.6803   -7.3336    4.6692 C   0  0  0  0  0  0  0  0  0  0  0  0
    2.9360   -7.6280    3.1620 C   0  0  2  0  0  0  0  0  0  0  0  0
    2.2116   -8.7585    2.7108 O   0  0  0  0  0  0  0  0  0  0  0  0
    4.4545   -7.7186    2.9172 C   0  0  1  0  0  0  0  0  0  0  0  0
    4.7096   -8.0631    1.5646 O   0  0  0  0  0  0  0  0  0  0  0  0
    4.9124   -6.2918    3.3196 C   0  0  1  0  0  0  0  0  0  0  0  0
    6.1730   -5.7071    2.7897 N   0  0  0  0  0  0  0  0  0  0  0  0
    7.3618   -6.4099    3.2626 C   0  0  0  0  0  0  0  0  0  0  0  0
    6.2467   -5.4501    1.3550 C   0  0  0  0  0  0  0  0  0  0  0  0
    6.6190   -3.9767    1.0139 C   0  0  1  0  0  0  0  0  0  0  0  0
    8.0728   -3.9081    0.4790 C   0  0  0  0  0  0  0  0  0  0  0  0
    8.5290   -2.5699    0.3257 O   0  0  0  0  0  0  0  0  0  0  0  0
    5.5981   -3.2117    0.0981 C   0  0  1  0  0  0  0  0  0  0  0  0
    4.6219   -4.0166   -0.8253 C   0  0  0  0  0  0  0  0  0  0  0  0
    3.1595   -3.6487   -0.4177 C   0  0  1  0  0  0  0  0  0  0  0  0
    2.5753   -4.4840    0.7918 C   0  0  1  0  0  0  0  0  0  0  0  0
    2.3018   -3.6874    2.0715 C   0  0  0  0  0  0  0  0  0  0  0  0
    3.5648   -3.9451    2.8892 C   0  0  1  0  0  0  0  0  0  0  0  0
    4.1821   -2.7318    3.3933 N   0  0  1  0  0  0  0  0  0  0  0  0
    5.0847   -2.8941    4.5201 C   0  0  0  0  0  0  0  0  0  0  0  0
    4.6833   -1.7724    2.3410 C   0  0  0  0  0  0  0  0  0  0  0  0
    4.7786   -2.0116    0.7181 C   0  0  1  0  0  0  0  0  0  0  0  0
    5.4939   -0.6947    0.2684 C   0  0  0  0  0  0  0  0  0  0  0  0
    3.4174   -2.1387   -0.0675 C   0  0  1  0  0  0  0  0  0  0  0  0
    3.4339   -1.4684   -1.3205 O   0  0  0  0  0  0  0  0  0  0  0  0
    3.5684   -5.4496    3.4215 C   0  0  2  0  0  0  0  0  0  0  0  0
    2.5023   -6.2896    2.5861 C   0  0  1  0  0  0  0  0  0  0  0  0
    2.2889   -6.0039    1.0310 C   0  0  1  0  0  0  0  0  0  0  0  0
    0.9247   -6.2538    0.7029 O   0  0  0  0  0  0  0  0  0  0  0  0
    3.9828   -5.4393    7.9572 H   0  0  0  0  0  0  0  0  0  0  0  0
    2.9507   -6.7300    7.3596 H   0  0  0  0  0  0  0  0  0  0  0  0
    2.3809   -5.0522    7.3358 H   0  0  0  0  0  0  0  0  0  0  0  0
    2.0217   -5.2547    4.9551 H   0  0  0  0  0  0  0  0  0  0  0  0
    3.3304   -7.9431    5.3013 H   0  0  0  0  0  0  0  0  0  0  0  0
    1.6515   -7.5490    4.9633 H   0  0  0  0  0  0  0  0  0  0  0  0
    1.3332   -8.7201    3.0241 H   0  0  0  0  0  0  0  0  0  0  0  0
    4.9160   -8.4806    3.5448 H   0  0  0  0  0  0  0  0  0  0  0  0
    4.3711   -8.9300    1.4432 H   0  0  0  0  0  0  0  0  0  0  0  0
    5.1816   -6.4545    4.3623 H   0  0  0  0  0  0  0  0  0  0  0  0
    8.2676   -5.8920    2.9454 H   0  0  0  0  0  0  0  0  0  0  0  0
    7.4028   -7.4290    2.8760 H   0  0  0  0  0  0  0  0  0  0  0  0
    7.3827   -6.4537    4.3521 H   0  0  0  0  0  0  0  0  0  0  0  0
    6.9576   -6.1321    0.8841 H   0  0  0  0  0  0  0  0  0  0  0  0
    5.3161   -5.7577    0.9086 H   0  0  0  0  0  0  0  0  0  0  0  0
    6.6517   -3.4410    1.9582 H   0  0  0  0  0  0  0  0  0  0  0  0
    8.7415   -4.4053    1.1843 H   0  0  0  0  0  0  0  0  0  0  0  0
    8.1718   -4.4373   -0.4656 H   0  0  0  0  0  0  0  0  0  0  0  0
    9.3270   -2.5504   -0.1675 H   0  0  0  0  0  0  0  0  0  0  0  0
    6.2367   -2.7621   -0.6603 H   0  0  0  0  0  0  0  0  0  0  0  0
    4.7692   -3.6419   -1.8445 H   0  0  0  0  0  0  0  0  0  0  0  0
    4.8179   -5.0808   -0.9323 H   0  0  0  0  0  0  0  0  0  0  0  0
    2.4857   -3.7594   -1.2664 H   0  0  0  0  0  0  0  0  0  0  0  0
    3.5483   -4.8939    0.8565 H   0  0  0  0  0  0  0  0  0  0  0  0
    2.0902   -2.6286    1.9875 H   0  0  0  0  0  0  0  0  0  0  0  0
    1.4080   -4.0311    2.5826 H   0  0  0  0  0  0  0  0  0  0  0  0
    4.4188   -4.0396    2.2638 H   0  0  0  0  0  0  0  0  0  0  0  0
    5.9362   -3.5333    4.2825 H   0  0  0  0  0  0  0  0  0  0  0  0
    4.5863   -3.3292    5.3913 H   0  0  0  0  0  0  0  0  0  0  0  0
    5.4727   -1.9265    4.8632 H   0  0  0  0  0  0  0  0  0  0  0  0
    4.0721   -0.8684    2.4531 H   0  0  0  0  0  0  0  0  0  0  0  0
    5.6765   -1.4337    2.6457 H   0  0  0  0  0  0  0  0  0  0  0  0
    4.9005    0.1920    0.5068 H   0  0  0  0  0  0  0  0  0  0  0  0
    5.6893   -0.6509   -0.8067 H   0  0  0  0  0  0  0  0  0  0  0  0
    6.4696   -0.5776    0.7472 H   0  0  0  0  0  0  0  0  0  0  0  0
    2.6154   -1.5890    0.4139 H   0  0  0  0  0  0  0  0  0  0  0  0
    2.5244   -1.2278   -1.4963 H   0  0  0  0  0  0  0  0  0  0  0  0
    1.5036   -6.1063    2.9868 H   0  0  0  0  0  0  0  0  0  0  0  0
    2.9125   -6.6444    0.4063 H   0  0  0  0  0  0  0  0  0  0  0  0
    0.7799   -7.1866    0.7616 H   0  0  0  0  0  0  0  0  0  0  0  0
    3.3972   -2.2352    3.8059 H   0  0  0  0  0  0  0  0  0  0  0  0
  1  2  1  0
  1 33  1  0
  1 34  1  0
  1 35  1  0
  2  3  1  0
 29  3  1  1
  3  4  1  0
  3 36  1  1
  4  5  1  0
  4 37  1  0
  4 38  1  0
  5 30  1  0
  5  6  1  6
  5  7  1  0
  6 39  1  0
  7  8  1  0
  7  9  1  0
  7 40  1  1
  8 41  1  0
  9 29  1  0
  9 10  1  0
  9 42  1  1
 10 11  1  0
 10 12  1  0
 11 43  1  0
 11 44  1  0
 11 45  1  0
 12 13  1  0
 12 46  1  0
 12 47  1  0
 13 14  1  0
 13 16  1  0
 13 48  1  1
 14 15  1  0
 14 49  1  0
 14 50  1  0
 15 51  1  0
 16 25  1  0
 16 17  1  0
 16 52  1  6
 17 18  1  0
 17 53  1  0
 17 54  1  0
 18 27  1  0
 18 19  1  0
 18 55  1  6
 19 31  1  0
 19 20  1  0
 19 56  1  6
 20 21  1  0
 20 57  1  0
 20 58  1  0
 21 22  1  0
 21 29  1  0
 21 59  1  6
 22 23  1  0
 22 24  1  0
 22 73  1  1
 23 60  1  0
 23 61  1  0
 23 62  1  0
 24 25  1  0
 24 63  1  0
 24 64  1  0
 25 26  1  6
 25 27  1  0
 26 65  1  0
 26 66  1  0
 26 67  1  0
 27 28  1  0
 27 68  1  1
 28 69  1  0
 29 30  1  0
 30 31  1  0
 30 70  1  1
 31 32  1  0
 31 71  1  6
 32 72  1  0
M  CHG  1  22   1
M  END
>  <i_m_ct_stereo_status>  (394) 
1

>  <s_m_source_file>  (394) 
/var/tmp/pbs.5076255.sched01/tmpgahbdy6u/1388ql836nh.sdf

>  <i_m_source_file_index>  (394) 
22

>  <i_lp_mmshare_version>  (394) 
48012

>  <i_f3d_flags>  (394) 
0

>  <s_epik_input>  (394) 
W0NIM11PW0NAQEhdMVtDSDJdW0NAXShbT0hdKShbQ0BASF0oW09IXSlbQ0BASF0yW0NAQF0xMzQpW0NAQEhdNFtDQEBIXShbT0hdKVtDSF01W0NAQEhdNltDSDJdW0NASF0oW0NASF0oW0NIMl1bT0hdKVtDSDJdTjJbQ0gzXSlbQ0BAXShbQ0gzXSkoW0NASF02W09IXSlbQ0gyXU4oW0NIM10pW0NAQEhdM1tDSDJdNQ==

>  <s_epik_cmdline>  (394) 
J2VwaWtfcHl0aG9uJywgJy1waHQnLCAnMi4wJywgJy1waCcsICc3LjAnLCAnLXRuJywgJzgnLCAnLW1hJywgJzIwMCcsICctaW1hZScsICc8aW5maWxlLm1hZT4nLCAnLW9tYWUnLCAnPG91dGZpbGUubWFlPic=

>  <r_epik_Ionization_Penalty>  (394) 
1.014

>  <r_epik_Ionization_Penalty_Charging>  (394) 
0.000602639

>  <r_epik_Ionization_Penalty_Neutral>  (394) 
1.0134

>  <r_epik_State_Penalty>  (394) 
1.07241

>  <r_epik_Charging_Adjusted_Penalty>  (394) 
1.07301

>  <i_epik_Tot_Q>  (394) 
1

>  <i_epik_Tot_abs_Q>  (394) 
1

>  <s_lp_Force_Field>  (394) 
OPLS3e

>  <r_lp_Energy>  (394) 
231.76

>  <b_lp_Chiralities_Consistent>  (394) 
1

>  <s_lp_Variant>  (394) 
98:0-3

>  <s_i_glide_gridfile>  (394) 
pfpi4k_grid

>  <i_i_glide_lignum>  (394) 
22

>  <i_i_glide_rotatable_bonds>  (394) 
7

>  <r_i_docking_score>  (394) 
-3.63086

>  <r_i_glide_ligand_efficiency>  (394) 
-0.113464

>  <r_i_glide_ligand_efficiency_sa>  (394) 
-0.360227

>  <r_i_glide_ligand_efficiency_ln>  (394) 
-0.813048

>  <r_i_glide_gscore>  (394) 
-3.63086

>  <r_i_glide_lipo>  (394) 
-0.645095

>  <r_i_glide_hbond>  (394) 
-0.156549

>  <r_i_glide_metal>  (394) 
-0

>  <r_i_glide_rewards>  (394) 
-0.316417

>  <r_i_glide_evdw>  (394) 
-22.5549

>  <r_i_glide_ecoul>  (394) 
-9.88413

>  <r_i_glide_erotb>  (394) 
0.0975687

>  <r_i_glide_esite>  (394) 
0

>  <r_i_glide_emodel>  (394) 
-39.6062

>  <r_i_glide_energy>  (394) 
-32.439

>  <r_i_glide_einternal>  (394) 
2.27084

>  <r_i_glide_intrahb_reward>  (394) 
-0

>  <i_i_glide_confnum>  (394) 
1

>  <i_i_glide_posenum>  (394) 
27

>  <r_i_glide_eff_state_penalty>  (394) 
0

>  <ligand_id>  (394) 
98

>  <original_smiles>  (394) 
COC1CC2(O)C(O)C3N(C)CC(CO)C4CC5C6CC(N(C)CC4(C)C5O)C13C2C6O

>  <smiles>  (394) 
[H]OC([H])([H])C1([H])C([H])([H])N(C([H])([H])[H])C2([H])C([H])(O[H])C3(O[H])C([H])([H])C([H])(OC([H])([H])[H])C24C3([H])C([H])(O[H])C2([H])C([H])([H])C4([H])[N+]([H])(C([H])([H])[H])C([H])([H])C3(C([H])([H])[H])C([H])(O[H])C2([H])C([H])([H])C13[H]

$$$$
98:3:0
     RDKit          3D

 73 78  0  0  1  0  0  0  0  0999 V2000
    0.6858   -4.9884    4.6078 C   0  0  0  0  0  0  0  0  0  0  0  0
    0.9257   -3.6065    4.8365 O   0  0  0  0  0  0  0  0  0  0  0  0
    1.5075   -2.9047    3.7369 C   0  0  2  0  0  0  0  0  0  0  0  0
    2.9277   -3.4435    3.3619 C   0  0  0  0  0  0  0  0  0  0  0  0
    3.8190   -2.1783    3.3155 C   0  0  2  0  0  0  0  0  0  0  0  0
    4.9449   -2.4048    2.4865 O   0  0  0  0  0  0  0  0  0  0  0  0
    4.1672   -1.7707    4.7582 C   0  0  1  0  0  0  0  0  0  0  0  0
    5.1354   -0.7387    4.7170 O   0  0  0  0  0  0  0  0  0  0  0  0
    2.7571   -1.3978    5.3104 C   0  0  1  0  0  0  0  0  0  0  0  0
    2.5609   -0.3540    6.3523 N   0  0  0  0  0  0  0  0  0  0  0  0
    2.8652   -0.8311    7.6962 C   0  0  0  0  0  0  0  0  0  0  0  0
    3.2217    0.9163    6.0893 C   0  0  0  0  0  0  0  0  0  0  0  0
    2.4627    2.1880    6.5212 C   0  0  1  0  0  0  0  0  0  0  0  0
    3.4231    3.1742    7.2315 C   0  0  0  0  0  0  0  0  0  0  0  0
    4.4687    3.6223    6.3932 O   0  0  0  0  0  0  0  0  0  0  0  0
    1.6606    2.8816    5.3666 C   0  0  1  0  0  0  0  0  0  0  0  0
    2.3601    2.9960    3.9838 C   0  0  0  0  0  0  0  0  0  0  0  0
    1.3891    2.5236    2.8857 C   0  0  1  0  0  0  0  0  0  0  0  0
    1.6414    1.1046    2.1775 C   0  0  2  0  0  0  0  0  0  0  0  0
    0.4857    0.1486    2.4879 C   0  0  0  0  0  0  0  0  0  0  0  0
    0.7409   -0.2748    3.9407 C   0  0  1  0  0  0  0  0  0  0  0  0
   -0.4161   -0.1006    4.8037 N   0  0  1  0  0  0  0  0  0  0  0  0
   -0.8509   -1.2959    5.5122 C   0  0  0  0  0  0  0  0  0  0  0  0
   -0.4011    1.1161    5.6489 C   0  0  0  0  0  0  0  0  0  0  0  0
    0.1401    2.5420    5.1242 C   0  0  1  0  0  0  0  0  0  0  0  0
   -0.6971    3.5704    5.9467 C   0  0  0  0  0  0  0  0  0  0  0  0
   -0.0053    2.7947    3.5788 C   0  0  1  0  0  0  0  0  0  0  0  0
   -0.3225    4.1493    3.2842 O   0  0  0  0  0  0  0  0  0  0  0  0
    1.8272   -1.4056    4.0347 C   0  0  2  0  0  0  0  0  0  0  0  0
    2.7739   -1.1852    2.8156 C   0  0  1  0  0  0  0  0  0  0  0  0
    3.0198    0.3106    2.4019 C   0  0  1  0  0  0  0  0  0  0  0  0
    3.7454    0.2954    1.1856 O   0  0  0  0  0  0  0  0  0  0  0  0
    0.2377   -5.4253    5.5000 H   0  0  0  0  0  0  0  0  0  0  0  0
    1.5999   -5.5476    4.4096 H   0  0  0  0  0  0  0  0  0  0  0  0
    0.0078   -5.1458    3.7737 H   0  0  0  0  0  0  0  0  0  0  0  0
    0.8395   -2.9771    2.8789 H   0  0  0  0  0  0  0  0  0  0  0  0
    3.3334   -4.1503    4.0877 H   0  0  0  0  0  0  0  0  0  0  0  0
    2.8795   -3.9545    2.3977 H   0  0  0  0  0  0  0  0  0  0  0  0
    4.6485   -2.5762    1.6153 H   0  0  0  0  0  0  0  0  0  0  0  0
    4.6123   -2.6011    5.3047 H   0  0  0  0  0  0  0  0  0  0  0  0
    5.8465   -1.0656    4.2010 H   0  0  0  0  0  0  0  0  0  0  0  0
    2.4904   -2.3111    5.8413 H   0  0  0  0  0  0  0  0  0  0  0  0
    2.6542   -0.0605    8.4384 H   0  0  0  0  0  0  0  0  0  0  0  0
    3.9128   -1.1151    7.7990 H   0  0  0  0  0  0  0  0  0  0  0  0
    2.2528   -1.6949    7.9524 H   0  0  0  0  0  0  0  0  0  0  0  0
    4.2037    0.9009    6.5723 H   0  0  0  0  0  0  0  0  0  0  0  0
    3.4705    0.9917    5.0515 H   0  0  0  0  0  0  0  0  0  0  0  0
    1.7701    1.9222    7.3172 H   0  0  0  0  0  0  0  0  0  0  0  0
    2.8769    4.0402    7.6082 H   0  0  0  0  0  0  0  0  0  0  0  0
    3.8577    2.7001    8.1137 H   0  0  0  0  0  0  0  0  0  0  0  0
    5.0054    4.2199    6.8723 H   0  0  0  0  0  0  0  0  0  0  0  0
    1.6511    3.9227    5.6914 H   0  0  0  0  0  0  0  0  0  0  0  0
    2.4943    4.0656    3.8094 H   0  0  0  0  0  0  0  0  0  0  0  0
    3.3842    2.6493    3.9173 H   0  0  0  0  0  0  0  0  0  0  0  0
    1.5182    3.2343    2.0773 H   0  0  0  0  0  0  0  0  0  0  0  0
    1.5349    1.2913    1.1105 H   0  0  0  0  0  0  0  0  0  0  0  0
   -0.5074    0.5542    2.3042 H   0  0  0  0  0  0  0  0  0  0  0  0
    0.4888   -0.7027    1.8097 H   0  0  0  0  0  0  0  0  0  0  0  0
    1.3765    0.4980    4.3433 H   0  0  0  0  0  0  0  0  0  0  0  0
   -0.1037   -1.6447    6.2363 H   0  0  0  0  0  0  0  0  0  0  0  0
   -1.0684   -2.1208    4.8204 H   0  0  0  0  0  0  0  0  0  0  0  0
   -1.7803   -1.1143    6.0667 H   0  0  0  0  0  0  0  0  0  0  0  0
   -1.4495    1.2703    5.9199 H   0  0  0  0  0  0  0  0  0  0  0  0
    0.0672    0.8880    6.6077 H   0  0  0  0  0  0  0  0  0  0  0  0
   -1.7646    3.5054    5.7231 H   0  0  0  0  0  0  0  0  0  0  0  0
   -0.4066    4.6079    5.7603 H   0  0  0  0  0  0  0  0  0  0  0  0
   -0.5763    3.4104    7.0224 H   0  0  0  0  0  0  0  0  0  0  0  0
   -0.8751    2.2932    3.1652 H   0  0  0  0  0  0  0  0  0  0  0  0
   -0.1751    4.2666    2.3311 H   0  0  0  0  0  0  0  0  0  0  0  0
    2.3640   -1.6245    1.9043 H   0  0  0  0  0  0  0  0  0  0  0  0
    3.6819    0.7875    3.1006 H   0  0  0  0  0  0  0  0  0  0  0  0
    3.2197   -0.0784    0.5101 H   0  0  0  0  0  0  0  0  0  0  0  0
   -1.1629    0.0889    4.1356 H   0  0  0  0  0  0  0  0  0  0  0  0
  1  2  1  0
  1 33  1  0
  1 34  1  0
  1 35  1  0
  2  3  1  0
 29  3  1  6
  3  4  1  0
  3 36  1  6
  4  5  1  0
  4 37  1  0
  4 38  1  0
  5 30  1  0
  5  6  1  6
  5  7  1  0
  6 39  1  0
  7  8  1  0
  7  9  1  0
  7 40  1  1
  8 41  1  0
  9 29  1  0
  9 10  1  0
  9 42  1  1
 10 11  1  0
 10 12  1  0
 11 43  1  0
 11 44  1  0
 11 45  1  0
 12 13  1  0
 12 46  1  0
 12 47  1  0
 13 14  1  0
 13 16  1  0
 13 48  1  1
 14 15  1  0
 14 49  1  0
 14 50  1  0
 15 51  1  0
 16 25  1  0
 16 17  1  0
 16 52  1  1
 17 18  1  0
 17 53  1  0
 17 54  1  0
 18 27  1  0
 18 19  1  0
 18 55  1  6
 19 31  1  0
 19 20  1  0
 19 56  1  6
 20 21  1  0
 20 57  1  0
 20 58  1  0
 21 22  1  0
 21 29  1  0
 21 59  1  1
 22 23  1  0
 22 24  1  0
 22 73  1  6
 23 60  1  0
 23 61  1  0
 23 62  1  0
 24 25  1  0
 24 63  1  0
 24 64  1  0
 25 26  1  1
 25 27  1  0
 26 65  1  0
 26 66  1  0
 26 67  1  0
 27 28  1  0
 27 68  1  6
 28 69  1  0
 29 30  1  0
 30 31  1  0
 30 70  1  6
 31 32  1  0
 31 71  1  1
 32 72  1  0
M  CHG  1  22   1
M  END
>  <i_m_ct_stereo_status>  (395) 
1

>  <s_m_source_file>  (395) 
/var/tmp/pbs.5076255.sched01/tmpgahbdy6u/1388ql836nh.sdf

>  <i_m_source_file_index>  (395) 
23

>  <i_lp_mmshare_version>  (395) 
48012

>  <i_f3d_flags>  (395) 
0

>  <s_epik_input>  (395) 
W0NIM11PW0NAQEhdMVtDSDJdW0NAXShbT0hdKShbQ0BASF0oW09IXSlbQ0BASF0yW0NAQF0xMzQpW0NAQEhdNFtDQEBIXShbT0hdKVtDSF01W0NAQEhdNltDSDJdW0NASF0oW0NASF0oW0NIMl1bT0hdKVtDSDJdTjJbQ0gzXSlbQ0BAXShbQ0gzXSkoW0NASF02W09IXSlbQ0gyXU4oW0NIM10pW0NAQEhdM1tDSDJdNQ==

>  <s_epik_cmdline>  (395) 
J2VwaWtfcHl0aG9uJywgJy1waHQnLCAnMi4wJywgJy1waCcsICc3LjAnLCAnLXRuJywgJzgnLCAnLW1hJywgJzIwMCcsICctaW1hZScsICc8aW5maWxlLm1hZT4nLCAnLW9tYWUnLCAnPG91dGZpbGUubWFlPic=

>  <r_epik_Ionization_Penalty>  (395) 
1.014

>  <r_epik_Ionization_Penalty_Charging>  (395) 
0.000602639

>  <r_epik_Ionization_Penalty_Neutral>  (395) 
1.0134

>  <r_epik_State_Penalty>  (395) 
1.07241

>  <r_epik_Charging_Adjusted_Penalty>  (395) 
1.07301

>  <i_epik_Tot_Q>  (395) 
1

>  <i_epik_Tot_abs_Q>  (395) 
1

>  <s_lp_Force_Field>  (395) 
OPLS3e

>  <r_lp_Energy>  (395) 
171.896

>  <b_lp_Chiralities_Consistent>  (395) 
1

>  <s_lp_Variant>  (395) 
98:0-4

>  <s_i_glide_gridfile>  (395) 
pfpi4k_grid

>  <i_i_glide_lignum>  (395) 
23

>  <i_i_glide_rotatable_bonds>  (395) 
7

>  <r_i_docking_score>  (395) 
-2.60277

>  <r_i_glide_ligand_efficiency>  (395) 
-0.0813364

>  <r_i_glide_ligand_efficiency_sa>  (395) 
-0.258227

>  <r_i_glide_ligand_efficiency_ln>  (395) 
-0.58283

>  <r_i_glide_gscore>  (395) 
-2.60277

>  <r_i_glide_lipo>  (395) 
-0.0777895

>  <r_i_glide_hbond>  (395) 
-0.16

>  <r_i_glide_metal>  (395) 
-0

>  <r_i_glide_rewards>  (395) 
-0.316417

>  <r_i_glide_evdw>  (395) 
-16.638

>  <r_i_glide_ecoul>  (395) 
-8.63173

>  <r_i_glide_erotb>  (395) 
0.0975687

>  <r_i_glide_esite>  (395) 
-0.0194648

>  <r_i_glide_emodel>  (395) 
-28.3659

>  <r_i_glide_energy>  (395) 
-25.2698

>  <r_i_glide_einternal>  (395) 
2.31831

>  <r_i_glide_intrahb_reward>  (395) 
-0

>  <i_i_glide_confnum>  (395) 
2

>  <i_i_glide_posenum>  (395) 
10

>  <r_i_glide_eff_state_penalty>  (395) 
0

>  <ligand_id>  (395) 
98

>  <original_smiles>  (395) 
COC1CC2(O)C(O)C3N(C)CC(CO)C4CC5C6CC(N(C)CC4(C)C5O)C13C2C6O

>  <smiles>  (395) 
[H]OC([H])([H])C1([H])C([H])([H])N(C([H])([H])[H])C2([H])C([H])(O[H])C3(O[H])C([H])([H])C([H])(OC([H])([H])[H])C24C3([H])C([H])(O[H])C2([H])C([H])([H])C4([H])[N+]([H])(C([H])([H])[H])C([H])([H])C3(C([H])([H])[H])C([H])(O[H])C2([H])C([H])([H])C13[H]

$$$$
98:3:1
     RDKit          3D

 73 78  0  0  1  0  0  0  0  0999 V2000
   -0.5905    1.7412   11.5746 C   0  0  0  0  0  0  0  0  0  0  0  0
   -0.4798    2.1883   10.2333 O   0  0  0  0  0  0  0  0  0  0  0  0
    0.4155    1.4436    9.4259 C   0  0  2  0  0  0  0  0  0  0  0  0
    1.8905    1.5269    9.9342 C   0  0  0  0  0  0  0  0  0  0  0  0
    2.7027    1.9321    8.6765 C   0  0  2  0  0  0  0  0  0  0  0  0
    4.0423    1.4891    8.7707 O   0  0  0  0  0  0  0  0  0  0  0  0
    2.5217    3.4494    8.4491 C   0  0  1  0  0  0  0  0  0  0  0  0
    3.3962    3.9031    7.4340 O   0  0  0  0  0  0  0  0  0  0  0  0
    0.9920    3.5238    8.1355 C   0  0  1  0  0  0  0  0  0  0  0  0
    0.4152    4.5401    7.2203 N   0  0  0  0  0  0  0  0  0  0  0  0
    0.2507    5.8446    7.8553 C   0  0  0  0  0  0  0  0  0  0  0  0
    1.0786    4.6800    5.9304 C   0  0  0  0  0  0  0  0  0  0  0  0
    0.1656    4.9691    4.7207 C   0  0  1  0  0  0  0  0  0  0  0  0
    0.8004    6.0618    3.8314 C   0  0  0  0  0  0  0  0  0  0  0  0
    0.7010    7.3247    4.4812 O   0  0  0  0  0  0  0  0  0  0  0  0
   -0.1941    3.6893    3.8918 C   0  0  1  0  0  0  0  0  0  0  0  0
    0.9330    2.6542    3.6100 C   0  0  0  0  0  0  0  0  0  0  0  0
    0.4140    1.2351    3.9449 C   0  0  1  0  0  0  0  0  0  0  0  0
    0.9392    0.5032    5.2673 C   0  0  2  0  0  0  0  0  0  0  0  0
   -0.2276    0.2867    6.2479 C   0  0  0  0  0  0  0  0  0  0  0  0
   -0.4624    1.6796    6.8372 C   0  0  1  0  0  0  0  0  0  0  0  0
   -1.8626    2.1118    6.7606 N   0  0  1  0  0  0  0  0  0  0  0  0
   -2.4825    2.4972    8.0309 C   0  0  0  0  0  0  0  0  0  0  0  0
   -2.1776    3.0521    5.6446 C   0  0  0  0  0  0  0  0  0  0  0  0
   -1.5292    2.9021    4.1804 C   0  0  1  0  0  0  0  0  0  0  0  0
   -2.6275    3.4905    3.2388 C   0  0  0  0  0  0  0  0  0  0  0  0
   -1.1380    1.4410    3.7496 C   0  0  1  0  0  0  0  0  0  0  0  0
   -1.3668    1.2299    2.3701 O   0  0  0  0  0  0  0  0  0  0  0  0
    0.5565    2.0141    7.9842 C   0  0  2  0  0  0  0  0  0  0  0  0
    1.8545    1.2326    7.6221 C   0  0  1  0  0  0  0  0  0  0  0  0
    2.1750    1.1071    6.0900 C   0  0  1  0  0  0  0  0  0  0  0  0
    3.2706    0.2268    5.9602 O   0  0  0  0  0  0  0  0  0  0  0  0
   -1.2801    2.4191   12.0624 H   0  0  0  0  0  0  0  0  0  0  0  0
    0.3485    1.7969   12.1301 H   0  0  0  0  0  0  0  0  0  0  0  0
   -0.9690    0.7178   11.6414 H   0  0  0  0  0  0  0  0  0  0  0  0
    0.0781    0.4057    9.3968 H   0  0  0  0  0  0  0  0  0  0  0  0
    2.0383    2.2637   10.7238 H   0  0  0  0  0  0  0  0  0  0  0  0
    2.1878    0.5544   10.3350 H   0  0  0  0  0  0  0  0  0  0  0  0
    4.0516    0.5713    8.9741 H   0  0  0  0  0  0  0  0  0  0  0  0
    2.7669    4.0140    9.3469 H   0  0  0  0  0  0  0  0  0  0  0  0
    3.2763    3.3702    6.6734 H   0  0  0  0  0  0  0  0  0  0  0  0
    0.5861    3.8207    9.1018 H   0  0  0  0  0  0  0  0  0  0  0  0
   -0.2250    6.5523    7.1758 H   0  0  0  0  0  0  0  0  0  0  0  0
    1.2099    6.2691    8.1597 H   0  0  0  0  0  0  0  0  0  0  0  0
   -0.3830    5.7703    8.7378 H   0  0  0  0  0  0  0  0  0  0  0  0
    1.8379    5.4608    6.0108 H   0  0  0  0  0  0  0  0  0  0  0  0
    1.6559    3.8023    5.7275 H   0  0  0  0  0  0  0  0  0  0  0  0
   -0.7578    5.4220    5.0755 H   0  0  0  0  0  0  0  0  0  0  0  0
    1.8353    5.8423    3.5645 H   0  0  0  0  0  0  0  0  0  0  0  0
    0.2591    6.1659    2.8912 H   0  0  0  0  0  0  0  0  0  0  0  0
    0.6134    7.9714    3.7733 H   0  0  0  0  0  0  0  0  0  0  0  0
   -0.3527    4.0938    2.8922 H   0  0  0  0  0  0  0  0  0  0  0  0
    1.0789    2.6653    2.5291 H   0  0  0  0  0  0  0  0  0  0  0  0
    1.9324    2.9124    3.9477 H   0  0  0  0  0  0  0  0  0  0  0  0
    0.7745    0.5867    3.1442 H   0  0  0  0  0  0  0  0  0  0  0  0
    1.2165   -0.5040    4.9536 H   0  0  0  0  0  0  0  0  0  0  0  0
   -1.1054   -0.1763    5.8067 H   0  0  0  0  0  0  0  0  0  0  0  0
    0.0263   -0.4422    7.0180 H   0  0  0  0  0  0  0  0  0  0  0  0
   -0.0359    2.3619    6.1252 H   0  0  0  0  0  0  0  0  0  0  0  0
   -2.0095    3.3827    8.4692 H   0  0  0  0  0  0  0  0  0  0  0  0
   -2.4224    1.6859    8.7617 H   0  0  0  0  0  0  0  0  0  0  0  0
   -3.5469    2.7168    7.9023 H   0  0  0  0  0  0  0  0  0  0  0  0
   -3.2589    2.9557    5.5219 H   0  0  0  0  0  0  0  0  0  0  0  0
   -2.0576    4.0722    6.0038 H   0  0  0  0  0  0  0  0  0  0  0  0
   -3.5536    2.9132    3.2687 H   0  0  0  0  0  0  0  0  0  0  0  0
   -2.3191    3.5323    2.1940 H   0  0  0  0  0  0  0  0  0  0  0  0
   -2.8636    4.5183    3.5063 H   0  0  0  0  0  0  0  0  0  0  0  0
   -1.8069    0.7044    4.1824 H   0  0  0  0  0  0  0  0  0  0  0  0
   -2.3000    1.2006    2.2230 H   0  0  0  0  0  0  0  0  0  0  0  0
    1.7974    0.1863    7.9436 H   0  0  0  0  0  0  0  0  0  0  0  0
    2.5390    2.0390    5.6988 H   0  0  0  0  0  0  0  0  0  0  0  0
    4.0241    0.6277    6.3655 H   0  0  0  0  0  0  0  0  0  0  0  0
   -2.3459    1.2717    6.4743 H   0  0  0  0  0  0  0  0  0  0  0  0
  1  2  1  0
  1 33  1  0
  1 34  1  0
  1 35  1  0
  2  3  1  0
 29  3  1  1
  3  4  1  0
  3 36  1  6
  4  5  1  0
  4 37  1  0
  4 38  1  0
  5 30  1  0
  5  6  1  1
  5  7  1  0
  6 39  1  0
  7  8  1  0
  7  9  1  0
  7 40  1  1
  8 41  1  0
  9 29  1  0
  9 10  1  0
  9 42  1  1
 10 11  1  0
 10 12  1  0
 11 43  1  0
 11 44  1  0
 11 45  1  0
 12 13  1  0
 12 46  1  0
 12 47  1  0
 13 14  1  0
 13 16  1  0
 13 48  1  1
 14 15  1  0
 14 49  1  0
 14 50  1  0
 15 51  1  0
 16 25  1  0
 16 17  1  0
 16 52  1  6
 17 18  1  0
 17 53  1  0
 17 54  1  0
 18 27  1  0
 18 19  1  0
 18 55  1  6
 19 31  1  0
 19 20  1  0
 19 56  1  6
 20 21  1  0
 20 57  1  0
 20 58  1  0
 21 22  1  0
 21 29  1  0
 21 59  1  6
 22 23  1  0
 22 24  1  0
 22 73  1  6
 23 60  1  0
 23 61  1  0
 23 62  1  0
 24 25  1  0
 24 63  1  0
 24 64  1  0
 25 26  1  6
 25 27  1  0
 26 65  1  0
 26 66  1  0
 26 67  1  0
 27 28  1  0
 27 68  1  1
 28 69  1  0
 29 30  1  0
 30 31  1  0
 30 70  1  1
 31 32  1  0
 31 71  1  6
 32 72  1  0
M  CHG  1  22   1
M  END
>  <i_m_ct_stereo_status>  (396) 
1

>  <s_m_source_file>  (396) 
/var/tmp/pbs.5076255.sched01/tmpgahbdy6u/1388ql836nh.sdf

>  <i_m_source_file_index>  (396) 
23

>  <i_lp_mmshare_version>  (396) 
48012

>  <i_f3d_flags>  (396) 
0

>  <s_epik_input>  (396) 
W0NIM11PW0NAQEhdMVtDSDJdW0NAXShbT0hdKShbQ0BASF0oW09IXSlbQ0BASF0yW0NAQF0xMzQpW0NAQEhdNFtDQEBIXShbT0hdKVtDSF01W0NAQEhdNltDSDJdW0NASF0oW0NASF0oW0NIMl1bT0hdKVtDSDJdTjJbQ0gzXSlbQ0BAXShbQ0gzXSkoW0NASF02W09IXSlbQ0gyXU4oW0NIM10pW0NAQEhdM1tDSDJdNQ==

>  <s_epik_cmdline>  (396) 
J2VwaWtfcHl0aG9uJywgJy1waHQnLCAnMi4wJywgJy1waCcsICc3LjAnLCAnLXRuJywgJzgnLCAnLW1hJywgJzIwMCcsICctaW1hZScsICc8aW5maWxlLm1hZT4nLCAnLW9tYWUnLCAnPG91dGZpbGUubWFlPic=

>  <r_epik_Ionization_Penalty>  (396) 
1.014

>  <r_epik_Ionization_Penalty_Charging>  (396) 
0.000602639

>  <r_epik_Ionization_Penalty_Neutral>  (396) 
1.0134

>  <r_epik_State_Penalty>  (396) 
1.07241

>  <r_epik_Charging_Adjusted_Penalty>  (396) 
1.07301

>  <i_epik_Tot_Q>  (396) 
1

>  <i_epik_Tot_abs_Q>  (396) 
1

>  <s_lp_Force_Field>  (396) 
OPLS3e

>  <r_lp_Energy>  (396) 
171.896

>  <b_lp_Chiralities_Consistent>  (396) 
1

>  <s_lp_Variant>  (396) 
98:0-4

>  <s_i_glide_gridfile>  (396) 
pfpi4k_grid

>  <i_i_glide_lignum>  (396) 
23

>  <i_i_glide_rotatable_bonds>  (396) 
7

>  <r_i_docking_score>  (396) 
-2.4901

>  <r_i_glide_ligand_efficiency>  (396) 
-0.0778158

>  <r_i_glide_ligand_efficiency_sa>  (396) 
-0.24705

>  <r_i_glide_ligand_efficiency_ln>  (396) 
-0.557602

>  <r_i_glide_gscore>  (396) 
-2.4901

>  <r_i_glide_lipo>  (396) 
-0.059605

>  <r_i_glide_hbond>  (396) 
-0.424607

>  <r_i_glide_metal>  (396) 
-0

>  <r_i_glide_rewards>  (396) 
-0.316417

>  <r_i_glide_evdw>  (396) 
-16.7755

>  <r_i_glide_ecoul>  (396) 
-6.25093

>  <r_i_glide_erotb>  (396) 
0.0975687

>  <r_i_glide_esite>  (396) 
-0.0106271

>  <r_i_glide_emodel>  (396) 
-25.7516

>  <r_i_glide_energy>  (396) 
-23.0265

>  <r_i_glide_einternal>  (396) 
2.33046

>  <r_i_glide_intrahb_reward>  (396) 
-0

>  <i_i_glide_confnum>  (396) 
4

>  <i_i_glide_posenum>  (396) 
9

>  <r_i_glide_eff_state_penalty>  (396) 
0

>  <ligand_id>  (396) 
98

>  <original_smiles>  (396) 
COC1CC2(O)C(O)C3N(C)CC(CO)C4CC5C6CC(N(C)CC4(C)C5O)C13C2C6O

>  <smiles>  (396) 
[H]OC([H])([H])C1([H])C([H])([H])N(C([H])([H])[H])C2([H])C([H])(O[H])C3(O[H])C([H])([H])C([H])(OC([H])([H])[H])C24C3([H])C([H])(O[H])C2([H])C([H])([H])C4([H])[N+]([H])(C([H])([H])[H])C([H])([H])C3(C([H])([H])[H])C([H])(O[H])C2([H])C([H])([H])C13[H]

$$$$
98:3:2
     RDKit          3D

 73 78  0  0  1  0  0  0  0  0999 V2000
   -0.0215   -4.8025    5.2721 C   0  0  0  0  0  0  0  0  0  0  0  0
    0.2215   -3.4149    5.4567 O   0  0  0  0  0  0  0  0  0  0  0  0
    1.0120   -2.8000    4.4380 C   0  0  2  0  0  0  0  0  0  0  0  0
    2.4511   -3.4069    4.3479 C   0  0  0  0  0  0  0  0  0  0  0  0
    3.3906   -2.1771    4.3828 C   0  0  2  0  0  0  0  0  0  0  0  0
    4.6335   -2.4787    3.7824 O   0  0  0  0  0  0  0  0  0  0  0  0
    3.5039   -1.6923    5.8397 C   0  0  1  0  0  0  0  0  0  0  0  0
    4.5041   -0.6976    5.9028 O   0  0  0  0  0  0  0  0  0  0  0  0
    2.0349   -1.2424    6.1189 C   0  0  1  0  0  0  0  0  0  0  0  0
    1.7068   -0.1325    7.0490 N   0  0  0  0  0  0  0  0  0  0  0  0
    1.7585   -0.5327    8.4519 C   0  0  0  0  0  0  0  0  0  0  0  0
    2.4588    1.0979    6.8358 C   0  0  0  0  0  0  0  0  0  0  0  0
    1.6925    2.4160    7.0588 C   0  0  1  0  0  0  0  0  0  0  0  0
    2.5611    3.4094    7.8677 C   0  0  0  0  0  0  0  0  0  0  0  0
    3.6670    3.8834    7.1310 O   0  0  0  0  0  0  0  0  0  0  0  0
    1.1307    3.0610    5.7457 C   0  0  1  0  0  0  0  0  0  0  0  0
    2.0580    3.0741    4.4955 C   0  0  0  0  0  0  0  0  0  0  0  0
    1.2732    2.5655    3.2653 C   0  0  1  0  0  0  0  0  0  0  0  0
    1.5866    1.0994    2.6953 C   0  0  2  0  0  0  0  0  0  0  0  0
    0.3509    0.2007    2.8603 C   0  0  0  0  0  0  0  0  0  0  0  0
    0.3434   -0.1368    4.3529 C   0  0  1  0  0  0  0  0  0  0  0  0
   -0.9510    0.1283    4.9860 N   0  0  1  0  0  0  0  0  0  0  0  0
   -1.5493   -1.0098    5.6727 C   0  0  0  0  0  0  0  0  0  0  0  0
   -1.0213    1.3948    5.7655 C   0  0  0  0  0  0  0  0  0  0  0  0
   -0.3373    2.7572    5.2601 C   0  0  1  0  0  0  0  0  0  0  0  0
   -1.2577    3.8616    5.8697 C   0  0  0  0  0  0  0  0  0  0  0  0
   -0.2062    2.9231    3.6984 C   0  0  1  0  0  0  0  0  0  0  0  0
   -0.4214    4.2673    3.2948 O   0  0  0  0  0  0  0  0  0  0  0  0
    1.3362   -1.2975    4.7053 C   0  0  2  0  0  0  0  0  0  0  0  0
    2.4867   -1.1825    3.6575 C   0  0  1  0  0  0  0  0  0  0  0  0
    2.8683    0.2714    3.2019 C   0  0  1  0  0  0  0  0  0  0  0  0
    3.7894    0.1488    2.1291 O   0  0  0  0  0  0  0  0  0  0  0  0
   -0.6586   -5.1668    6.0749 H   0  0  0  0  0  0  0  0  0  0  0  0
    0.8865   -5.4028    5.2740 H   0  0  0  0  0  0  0  0  0  0  0  0
   -0.5086   -4.9973    4.3213 H   0  0  0  0  0  0  0  0  0  0  0  0
    0.5004   -2.9086    3.4797 H   0  0  0  0  0  0  0  0  0  0  0  0
    2.6971   -4.0792    5.1710 H   0  0  0  0  0  0  0  0  0  0  0  0
    2.5480   -3.9754    3.4173 H   0  0  0  0  0  0  0  0  0  0  0  0
    4.4931   -2.6471    2.8672 H   0  0  0  0  0  0  0  0  0  0  0  0
    3.8120   -2.5038    6.5011 H   0  0  0  0  0  0  0  0  0  0  0  0
    5.2809   -1.0826    5.5305 H   0  0  0  0  0  0  0  0  0  0  0  0
    1.6451   -2.1130    6.6439 H   0  0  0  0  0  0  0  0  0  0  0  0
    1.4580    0.2876    9.1044 H   0  0  0  0  0  0  0  0  0  0  0  0
    2.7630   -0.8427    8.7467 H   0  0  0  0  0  0  0  0  0  0  0  0
    1.0800   -1.3606    8.6458 H   0  0  0  0  0  0  0  0  0  0  0  0
    3.3397    1.0768    7.4815 H   0  0  0  0  0  0  0  0  0  0  0  0
    2.8842    1.0990    5.8513 H   0  0  0  0  0  0  0  0  0  0  0  0
    0.8680    2.2179    7.7430 H   0  0  0  0  0  0  0  0  0  0  0  0
    1.9601    4.2631    8.1923 H   0  0  0  0  0  0  0  0  0  0  0  0
    2.9152    2.9403    8.7885 H   0  0  0  0  0  0  0  0  0  0  0  0
    4.2002    3.1593    6.8640 H   0  0  0  0  0  0  0  0  0  0  0  0
    1.1112    4.1205    6.0112 H   0  0  0  0  0  0  0  0  0  0  0  0
    2.2655    4.1249    4.2950 H   0  0  0  0  0  0  0  0  0  0  0  0
    3.0652    2.6881    4.6264 H   0  0  0  0  0  0  0  0  0  0  0  0
    1.5549    3.2187    2.4364 H   0  0  0  0  0  0  0  0  0  0  0  0
    1.6745    1.2245    1.6177 H   0  0  0  0  0  0  0  0  0  0  0  0
   -0.5763    0.6244    2.4869 H   0  0  0  0  0  0  0  0  0  0  0  0
    0.4311   -0.6928    2.2434 H   0  0  0  0  0  0  0  0  0  0  0  0
    0.9304    0.6355    4.8186 H   0  0  0  0  0  0  0  0  0  0  0  0
   -0.9495   -1.3363    6.5249 H   0  0  0  0  0  0  0  0  0  0  0  0
   -1.6726   -1.8569    4.9978 H   0  0  0  0  0  0  0  0  0  0  0  0
   -2.5481   -0.7572    6.0306 H   0  0  0  0  0  0  0  0  0  0  0  0
   -2.0906    1.5959    5.8391 H   0  0  0  0  0  0  0  0  0  0  0  0
   -0.7363    1.2081    6.7969 H   0  0  0  0  0  0  0  0  0  0  0  0
   -2.2731    3.8158    5.4682 H   0  0  0  0  0  0  0  0  0  0  0  0
   -0.8923    4.8727    5.6819 H   0  0  0  0  0  0  0  0  0  0  0  0
   -1.3265    3.7640    6.9563 H   0  0  0  0  0  0  0  0  0  0  0  0
   -1.0153    2.4232    3.1737 H   0  0  0  0  0  0  0  0  0  0  0  0
   -0.2090    4.3231    2.3382 H   0  0  0  0  0  0  0  0  0  0  0  0
    2.2196   -1.6673    2.7129 H   0  0  0  0  0  0  0  0  0  0  0  0
    3.4225    0.7669    3.9780 H   0  0  0  0  0  0  0  0  0  0  0  0
    3.3433   -0.1677    1.3640 H   0  0  0  0  0  0  0  0  0  0  0  0
   -1.5557    0.3061    4.1964 H   0  0  0  0  0  0  0  0  0  0  0  0
  1  2  1  0
  1 33  1  0
  1 34  1  0
  1 35  1  0
  2  3  1  0
 29  3  1  6
  3  4  1  0
  3 36  1  6
  4  5  1  0
  4 37  1  0
  4 38  1  0
  5 30  1  0
  5  6  1  6
  5  7  1  0
  6 39  1  0
  7  8  1  0
  7  9  1  0
  7 40  1  1
  8 41  1  0
  9 29  1  0
  9 10  1  0
  9 42  1  1
 10 11  1  0
 10 12  1  0
 11 43  1  0
 11 44  1  0
 11 45  1  0
 12 13  1  0
 12 46  1  0
 12 47  1  0
 13 14  1  0
 13 16  1  0
 13 48  1  1
 14 15  1  0
 14 49  1  0
 14 50  1  0
 15 51  1  0
 16 25  1  0
 16 17  1  0
 16 52  1  1
 17 18  1  0
 17 53  1  0
 17 54  1  0
 18 27  1  0
 18 19  1  0
 18 55  1  6
 19 31  1  0
 19 20  1  0
 19 56  1  6
 20 21  1  0
 20 57  1  0
 20 58  1  0
 21 22  1  0
 21 29  1  0
 21 59  1  1
 22 23  1  0
 22 24  1  0
 22 73  1  6
 23 60  1  0
 23 61  1  0
 23 62  1  0
 24 25  1  0
 24 63  1  0
 24 64  1  0
 25 26  1  1
 25 27  1  0
 26 65  1  0
 26 66  1  0
 26 67  1  0
 27 28  1  0
 27 68  1  6
 28 69  1  0
 29 30  1  0
 30 31  1  0
 30 70  1  6
 31 32  1  0
 31 71  1  1
 32 72  1  0
M  CHG  1  22   1
M  END
>  <i_m_ct_stereo_status>  (397) 
1

>  <s_m_source_file>  (397) 
/var/tmp/pbs.5076255.sched01/tmpgahbdy6u/1388ql836nh.sdf

>  <i_m_source_file_index>  (397) 
23

>  <i_lp_mmshare_version>  (397) 
48012

>  <i_f3d_flags>  (397) 
0

>  <s_epik_input>  (397) 
W0NIM11PW0NAQEhdMVtDSDJdW0NAXShbT0hdKShbQ0BASF0oW09IXSlbQ0BASF0yW0NAQF0xMzQpW0NAQEhdNFtDQEBIXShbT0hdKVtDSF01W0NAQEhdNltDSDJdW0NASF0oW0NASF0oW0NIMl1bT0hdKVtDSDJdTjJbQ0gzXSlbQ0BAXShbQ0gzXSkoW0NASF02W09IXSlbQ0gyXU4oW0NIM10pW0NAQEhdM1tDSDJdNQ==

>  <s_epik_cmdline>  (397) 
J2VwaWtfcHl0aG9uJywgJy1waHQnLCAnMi4wJywgJy1waCcsICc3LjAnLCAnLXRuJywgJzgnLCAnLW1hJywgJzIwMCcsICctaW1hZScsICc8aW5maWxlLm1hZT4nLCAnLW9tYWUnLCAnPG91dGZpbGUubWFlPic=

>  <r_epik_Ionization_Penalty>  (397) 
1.014

>  <r_epik_Ionization_Penalty_Charging>  (397) 
0.000602639

>  <r_epik_Ionization_Penalty_Neutral>  (397) 
1.0134

>  <r_epik_State_Penalty>  (397) 
1.07241

>  <r_epik_Charging_Adjusted_Penalty>  (397) 
1.07301

>  <i_epik_Tot_Q>  (397) 
1

>  <i_epik_Tot_abs_Q>  (397) 
1

>  <s_lp_Force_Field>  (397) 
OPLS3e

>  <r_lp_Energy>  (397) 
171.896

>  <b_lp_Chiralities_Consistent>  (397) 
1

>  <s_lp_Variant>  (397) 
98:0-4

>  <s_i_glide_gridfile>  (397) 
pfpi4k_grid

>  <i_i_glide_lignum>  (397) 
23

>  <i_i_glide_rotatable_bonds>  (397) 
7

>  <r_i_docking_score>  (397) 
-2.438

>  <r_i_glide_ligand_efficiency>  (397) 
-0.0761875

>  <r_i_glide_ligand_efficiency_sa>  (397) 
-0.24188

>  <r_i_glide_ligand_efficiency_ln>  (397) 
-0.545935

>  <r_i_glide_gscore>  (397) 
-2.438

>  <r_i_glide_lipo>  (397) 
-0.0151699

>  <r_i_glide_hbond>  (397) 
-0.16

>  <r_i_glide_metal>  (397) 
-0

>  <r_i_glide_rewards>  (397) 
-0.316417

>  <r_i_glide_evdw>  (397) 
-15.9608

>  <r_i_glide_ecoul>  (397) 
-8.12095

>  <r_i_glide_erotb>  (397) 
0.0975687

>  <r_i_glide_esite>  (397) 
-0.0277993

>  <r_i_glide_emodel>  (397) 
-26.9425

>  <r_i_glide_energy>  (397) 
-24.0817

>  <r_i_glide_einternal>  (397) 
2.04964

>  <r_i_glide_intrahb_reward>  (397) 
-0

>  <i_i_glide_confnum>  (397) 
5

>  <i_i_glide_posenum>  (397) 
2

>  <r_i_glide_eff_state_penalty>  (397) 
0

>  <ligand_id>  (397) 
98

>  <original_smiles>  (397) 
COC1CC2(O)C(O)C3N(C)CC(CO)C4CC5C6CC(N(C)CC4(C)C5O)C13C2C6O

>  <smiles>  (397) 
[H]OC([H])([H])C1([H])C([H])([H])N(C([H])([H])[H])C2([H])C([H])(O[H])C3(O[H])C([H])([H])C([H])(OC([H])([H])[H])C24C3([H])C([H])(O[H])C2([H])C([H])([H])C4([H])[N+]([H])(C([H])([H])[H])C([H])([H])C3(C([H])([H])[H])C([H])(O[H])C2([H])C([H])([H])C13[H]

$$$$
98:4:0
     RDKit          3D

 73 78  0  0  1  0  0  0  0  0999 V2000
    6.0539   -9.4554    1.2348 C   0  0  0  0  0  0  0  0  0  0  0  0
    5.3717   -8.2205    1.0810 O   0  0  0  0  0  0  0  0  0  0  0  0
    4.8060   -7.7048    2.2853 C   0  0  2  0  0  0  0  0  0  0  0  0
    3.5089   -8.4494    2.7313 C   0  0  0  0  0  0  0  0  0  0  0  0
    2.4763   -7.3077    2.9757 C   0  0  2  0  0  0  0  0  0  0  0  0
    1.4888   -7.6861    3.9155 O   0  0  0  0  0  0  0  0  0  0  0  0
    1.9313   -6.8204    1.6091 C   0  0  1  0  0  0  0  0  0  0  0  0
    0.9189   -5.8589    1.8377 O   0  0  0  0  0  0  0  0  0  0  0  0
    3.2316   -6.2679    0.9472 C   0  0  1  0  0  0  0  0  0  0  0  0
    3.1411   -5.2572   -0.1780 N   0  0  0  0  0  0  0  0  0  0  0  0
    1.8197   -4.8530   -0.7032 C   0  0  0  0  0  0  0  0  0  0  0  0
    4.3565   -4.6452   -0.8110 C   0  0  0  0  0  0  0  0  0  0  0  0
    4.4949   -3.0988   -0.9154 C   0  0  1  0  0  0  0  0  0  0  0  0
    3.5155   -2.4420   -1.9348 C   0  0  0  0  0  0  0  0  0  0  0  0
    4.0259   -1.2164   -2.4326 O   0  0  0  0  0  0  0  0  0  0  0  0
    4.6031   -2.2587    0.3857 C   0  0  1  0  0  0  0  0  0  0  0  0
    3.4105   -2.2629    1.3805 C   0  0  0  0  0  0  0  0  0  0  0  0
    3.9651   -2.3071    2.8491 C   0  0  1  0  0  0  0  0  0  0  0  0
    4.0050   -3.7306    3.5571 C   0  0  1  0  0  0  0  0  0  0  0  0
    5.3721   -4.4189    3.5297 C   0  0  0  0  0  0  0  0  0  0  0  0
    5.3425   -5.0936    2.1675 C   0  0  1  0  0  0  0  0  0  0  0  0
    6.5230   -4.9265    1.3575 N   0  0  0  0  0  0  0  0  0  0  0  0
    7.6439   -5.7450    1.8002 C   0  0  0  0  0  0  0  0  0  0  0  0
    6.9053   -3.5041    1.2062 C   0  0  0  0  0  0  0  0  0  0  0  0
    5.9358   -2.2162    1.1872 C   0  0  1  0  0  0  0  0  0  0  0  0
    6.8667   -1.1445    0.5489 C   0  0  0  0  0  0  0  0  0  0  0  0
    5.3786   -1.6908    2.5727 C   0  0  1  0  0  0  0  0  0  0  0  0
    5.1793   -0.2906    2.5647 O   0  0  0  0  0  0  0  0  0  0  0  0
    4.2939   -6.2477    2.1217 C   0  0  2  0  0  0  0  0  0  0  0  0
    3.4172   -6.2055    3.4442 C   0  0  1  0  0  0  0  0  0  0  0  0
    2.9441   -4.7775    4.0069 C   0  0  1  0  0  0  0  0  0  0  0  0
    2.9644   -4.8023    5.4182 O   0  0  0  0  0  0  0  0  0  0  0  0
    6.4724   -9.7607    0.2775 H   0  0  0  0  0  0  0  0  0  0  0  0
    5.3908  -10.2485    1.5802 H   0  0  0  0  0  0  0  0  0  0  0  0
    6.8911   -9.3612    1.9244 H   0  0  0  0  0  0  0  0  0  0  0  0
    5.5543   -7.7431    3.0842 H   0  0  0  0  0  0  0  0  0  0  0  0
    3.1527   -9.1578    1.9816 H   0  0  0  0  0  0  0  0  0  0  0  0
    3.7088   -9.0194    3.6403 H   0  0  0  0  0  0  0  0  0  0  0  0
    1.0912   -8.5003    3.6435 H   0  0  0  0  0  0  0  0  0  0  0  0
    1.4842   -7.6431    1.0452 H   0  0  0  0  0  0  0  0  0  0  0  0
    1.2168   -5.2735    2.5116 H   0  0  0  0  0  0  0  0  0  0  0  0
    3.5281   -7.1113    0.3458 H   0  0  0  0  0  0  0  0  0  0  0  0
    1.8142   -4.5278   -1.7397 H   0  0  0  0  0  0  0  0  0  0  0  0
    1.4147   -4.0057   -0.1711 H   0  0  0  0  0  0  0  0  0  0  0  0
    1.0915   -5.6712   -0.6818 H   0  0  0  0  0  0  0  0  0  0  0  0
    5.2531   -5.1798   -0.5522 H   0  0  0  0  0  0  0  0  0  0  0  0
    4.4416   -4.8840   -1.8588 H   0  0  0  0  0  0  0  0  0  0  0  0
    5.4644   -2.9933   -1.4072 H   0  0  0  0  0  0  0  0  0  0  0  0
    3.3314   -3.0720   -2.8078 H   0  0  0  0  0  0  0  0  0  0  0  0
    2.5589   -2.2519   -1.4548 H   0  0  0  0  0  0  0  0  0  0  0  0
    3.2947   -0.6823   -2.7132 H   0  0  0  0  0  0  0  0  0  0  0  0
    4.5374   -1.2438   -0.0020 H   0  0  0  0  0  0  0  0  0  0  0  0
    2.8773   -1.3223    1.2444 H   0  0  0  0  0  0  0  0  0  0  0  0
    2.6585   -3.0061    1.1518 H   0  0  0  0  0  0  0  0  0  0  0  0
    3.3662   -1.6539    3.4863 H   0  0  0  0  0  0  0  0  0  0  0  0
    3.4495   -4.0162    2.6894 H   0  0  0  0  0  0  0  0  0  0  0  0
    6.2095   -3.7560    3.7176 H   0  0  0  0  0  0  0  0  0  0  0  0
    5.4990   -5.1385    4.3352 H   0  0  0  0  0  0  0  0  0  0  0  0
    4.8267   -4.4245    1.5167 H   0  0  0  0  0  0  0  0  0  0  0  0
    8.5000   -5.6129    1.1387 H   0  0  0  0  0  0  0  0  0  0  0  0
    7.3770   -6.7975    1.7737 H   0  0  0  0  0  0  0  0  0  0  0  0
    7.9584   -5.4990    2.8152 H   0  0  0  0  0  0  0  0  0  0  0  0
    7.5875   -3.3808    2.0376 H   0  0  0  0  0  0  0  0  0  0  0  0
    7.5507   -3.4788    0.3265 H   0  0  0  0  0  0  0  0  0  0  0  0
    7.7508   -0.9781    1.1627 H   0  0  0  0  0  0  0  0  0  0  0  0
    6.3975   -0.1723    0.3911 H   0  0  0  0  0  0  0  0  0  0  0  0
    7.2202   -1.4746   -0.4251 H   0  0  0  0  0  0  0  0  0  0  0  0
    6.0880   -1.7847    3.3809 H   0  0  0  0  0  0  0  0  0  0  0  0
    4.5084   -0.0787    1.9354 H   0  0  0  0  0  0  0  0  0  0  0  0
    3.9861   -6.6326    4.2783 H   0  0  0  0  0  0  0  0  0  0  0  0
    1.9235   -4.5115    3.7289 H   0  0  0  0  0  0  0  0  0  0  0  0
    2.7948   -3.9348    5.7543 H   0  0  0  0  0  0  0  0  0  0  0  0
    3.1714   -5.9914   -0.8803 H   0  0  0  0  0  0  0  0  0  0  0  0
  1  2  1  0
  1 33  1  0
  1 34  1  0
  1 35  1  0
  2  3  1  0
 29  3  1  1
  3  4  1  0
  3 36  1  1
  4  5  1  0
  4 37  1  0
  4 38  1  0
  5 30  1  0
  5  6  1  1
  5  7  1  0
  6 39  1  0
  7  8  1  0
  7  9  1  0
  7 40  1  6
  8 41  1  0
  9 29  1  0
  9 10  1  0
  9 42  1  6
 10 11  1  0
 10 12  1  0
 10 73  1  0
 11 43  1  0
 11 44  1  0
 11 45  1  0
 12 13  1  0
 12 46  1  0
 12 47  1  0
 13 14  1  0
 13 16  1  0
 13 48  1  6
 14 15  1  0
 14 49  1  0
 14 50  1  0
 15 51  1  0
 16 25  1  0
 16 17  1  0
 16 52  1  6
 17 18  1  0
 17 53  1  0
 17 54  1  0
 18 27  1  0
 18 19  1  0
 18 55  1  1
 19 31  1  0
 19 20  1  0
 19 56  1  1
 20 21  1  0
 20 57  1  0
 20 58  1  0
 21 22  1  0
 21 29  1  0
 21 59  1  6
 22 23  1  0
 22 24  1  0
 23 60  1  0
 23 61  1  0
 23 62  1  0
 24 25  1  0
 24 63  1  0
 24 64  1  0
 25 26  1  6
 25 27  1  0
 26 65  1  0
 26 66  1  0
 26 67  1  0
 27 28  1  0
 27 68  1  1
 28 69  1  0
 29 30  1  0
 30 31  1  0
 30 70  1  1
 31 32  1  0
 31 71  1  1
 32 72  1  0
M  CHG  1  10   1
M  END
>  <i_m_ct_stereo_status>  (398) 
1

>  <s_m_source_file>  (398) 
/var/tmp/pbs.5076255.sched01/tmpgahbdy6u/1388ql836nh.sdf

>  <i_m_source_file_index>  (398) 
24

>  <i_lp_mmshare_version>  (398) 
48012

>  <i_f3d_flags>  (398) 
0

>  <s_epik_input>  (398) 
W0NIM11PW0NAQEhdMVtDSDJdW0NAXShbT0hdKShbQ0BASF0oW09IXSlbQ0BASF0yW0NAQF0xMzQpW0NAQEhdNFtDQEBIXShbT0hdKVtDSF01W0NAQEhdNltDSDJdW0NASF0oW0NASF0oW0NIMl1bT0hdKVtDSDJdTjJbQ0gzXSlbQ0BAXShbQ0gzXSkoW0NASF02W09IXSlbQ0gyXU4oW0NIM10pW0NAQEhdM1tDSDJdNQ==

>  <s_epik_cmdline>  (398) 
J2VwaWtfcHl0aG9uJywgJy1waHQnLCAnMi4wJywgJy1waCcsICc3LjAnLCAnLXRuJywgJzgnLCAnLW1hJywgJzIwMCcsICctaW1hZScsICc8aW5maWxlLm1hZT4nLCAnLW9tYWUnLCAnPG91dGZpbGUubWFlPic=

>  <r_epik_Ionization_Penalty>  (398) 
2.22009

>  <r_epik_Ionization_Penalty_Charging>  (398) 
0.00887587

>  <r_epik_Ionization_Penalty_Neutral>  (398) 
2.21122

>  <r_epik_State_Penalty>  (398) 
2.46133

>  <r_epik_Charging_Adjusted_Penalty>  (398) 
2.47021

>  <i_epik_Tot_Q>  (398) 
1

>  <i_epik_Tot_abs_Q>  (398) 
1

>  <s_lp_Force_Field>  (398) 
OPLS3e

>  <r_lp_Energy>  (398) 
230.89

>  <b_lp_Chiralities_Consistent>  (398) 
1

>  <s_lp_Variant>  (398) 
98:0-5

>  <s_i_glide_gridfile>  (398) 
pfpi4k_grid

>  <i_i_glide_lignum>  (398) 
24

>  <i_i_glide_rotatable_bonds>  (398) 
7

>  <r_i_docking_score>  (398) 
-2.99032

>  <r_i_glide_ligand_efficiency>  (398) 
-0.0934475

>  <r_i_glide_ligand_efficiency_sa>  (398) 
-0.296677

>  <r_i_glide_ligand_efficiency_ln>  (398) 
-0.669614

>  <r_i_glide_gscore>  (398) 
-2.99032

>  <r_i_glide_lipo>  (398) 
-0.399136

>  <r_i_glide_hbond>  (398) 
-0.0664749

>  <r_i_glide_metal>  (398) 
-0

>  <r_i_glide_rewards>  (398) 
-0.316417

>  <r_i_glide_evdw>  (398) 
-12.336

>  <r_i_glide_ecoul>  (398) 
-10.9344

>  <r_i_glide_erotb>  (398) 
0.0975687

>  <r_i_glide_esite>  (398) 
-0.0489056

>  <r_i_glide_emodel>  (398) 
-27.3403

>  <r_i_glide_energy>  (398) 
-23.2704

>  <r_i_glide_einternal>  (398) 
1.49588

>  <r_i_glide_intrahb_reward>  (398) 
-0

>  <i_i_glide_confnum>  (398) 
2

>  <i_i_glide_posenum>  (398) 
4

>  <r_i_glide_eff_state_penalty>  (398) 
0

>  <ligand_id>  (398) 
98

>  <original_smiles>  (398) 
COC1CC2(O)C(O)C3N(C)CC(CO)C4CC5C6CC(N(C)CC4(C)C5O)C13C2C6O

>  <smiles>  (398) 
[H]OC([H])([H])C1([H])C2([H])C([H])([H])C3([H])C([H])(O[H])C2(C([H])([H])[H])C([H])([H])N(C([H])([H])[H])C2([H])C([H])([H])C3([H])C([H])(O[H])C3([H])C4(O[H])C([H])([H])C([H])(OC([H])([H])[H])C23C([H])(C4([H])O[H])[N+]([H])(C([H])([H])[H])C1([H])[H]

$$$$
98:4:1
     RDKit          3D

 73 78  0  0  1  0  0  0  0  0999 V2000
    2.2377   -3.5289    7.2010 C   0  0  0  0  0  0  0  0  0  0  0  0
    1.3108   -2.8205    6.3789 O   0  0  0  0  0  0  0  0  0  0  0  0
    1.7629   -2.4077    5.0718 C   0  0  2  0  0  0  0  0  0  0  0  0
    3.2164   -2.7852    4.6319 C   0  0  0  0  0  0  0  0  0  0  0  0
    3.8173   -1.4377    4.1398 C   0  0  2  0  0  0  0  0  0  0  0  0
    4.8957   -1.6650    3.2528 O   0  0  0  0  0  0  0  0  0  0  0  0
    4.1494   -0.5387    5.3547 C   0  0  1  0  0  0  0  0  0  0  0  0
    4.8216    0.6309    4.9416 O   0  0  0  0  0  0  0  0  0  0  0  0
    2.7499   -0.2794    5.9614 C   0  0  1  0  0  0  0  0  0  0  0  0
    2.5135    0.8259    6.9784 N   0  0  1  0  0  0  0  0  0  0  0  0
    3.6332    1.7689    7.3083 C   0  0  0  0  0  0  0  0  0  0  0  0
    1.1617    1.1817    7.5209 C   0  0  0  0  0  0  0  0  0  0  0  0
    0.5255    2.5872    7.2598 C   0  0  1  0  0  0  0  0  0  0  0  0
    1.2059    3.7295    8.0704 C   0  0  0  0  0  0  0  0  0  0  0  0
    0.3372    4.8161    8.3179 O   0  0  0  0  0  0  0  0  0  0  0  0
    0.1796    3.0676    5.8011 C   0  0  1  0  0  0  0  0  0  0  0  0
    1.3333    3.2575    4.7774 C   0  0  0  0  0  0  0  0  0  0  0  0
    0.8422    2.7528    3.3700 C   0  0  1  0  0  0  0  0  0  0  0  0
    1.2379    1.2781    2.9482 C   0  0  1  0  0  0  0  0  0  0  0  0
    0.1415    0.2290    3.1845 C   0  0  0  0  0  0  0  0  0  0  0  0
    0.3660   -0.1198    4.6536 C   0  0  1  0  0  0  0  0  0  0  0  0
   -0.8379   -0.1446    5.4575 N   0  0  0  0  0  0  0  0  0  0  0  0
   -1.6224   -1.3473    5.2284 C   0  0  0  0  0  0  0  0  0  0  0  0
   -1.6645    1.0816    5.2657 C   0  0  0  0  0  0  0  0  0  0  0  0
   -1.1004    2.5732    5.0439 C   0  0  1  0  0  0  0  0  0  0  0  0
   -2.3228    3.4246    5.4959 C   0  0  0  0  0  0  0  0  0  0  0  0
   -0.7036    2.9693    3.5477 C   0  0  1  0  0  0  0  0  0  0  0  0
   -0.9231    4.3439    3.2843 O   0  0  0  0  0  0  0  0  0  0  0  0
    1.7328   -0.8558    4.8868 C   0  0  2  0  0  0  0  0  0  0  0  0
    2.5669   -0.8228    3.5260 C   0  0  1  0  0  0  0  0  0  0  0  0
    2.5816    0.5338    2.6674 C   0  0  1  0  0  0  0  0  0  0  0  0
    2.6557    0.2139    1.2903 O   0  0  0  0  0  0  0  0  0  0  0  0
    1.7458   -3.7597    8.1634 H   0  0  0  0  0  0  0  0  0  0  0  0
    3.1152   -2.9383    7.4313 H   0  0  0  0  0  0  0  0  0  0  0  0
    2.5329   -4.4679    6.7533 H   0  0  0  0  0  0  0  0  0  0  0  0
    1.0516   -2.8347    4.3601 H   0  0  0  0  0  0  0  0  0  0  0  0
    3.8672   -3.2043    5.4030 H   0  0  0  0  0  0  0  0  0  0  0  0
    3.1513   -3.5074    3.8039 H   0  0  0  0  0  0  0  0  0  0  0  0
    4.5658   -2.1380    2.4959 H   0  0  0  0  0  0  0  0  0  0  0  0
    4.7864   -1.0656    6.0633 H   0  0  0  0  0  0  0  0  0  0  0  0
    4.2979    1.0695    4.2789 H   0  0  0  0  0  0  0  0  0  0  0  0
    2.6949   -1.0134    6.7472 H   0  0  0  0  0  0  0  0  0  0  0  0
    3.4534    2.2347    8.2767 H   0  0  0  0  0  0  0  0  0  0  0  0
    3.7697    2.5365    6.5542 H   0  0  0  0  0  0  0  0  0  0  0  0
    4.5606    1.2064    7.4203 H   0  0  0  0  0  0  0  0  0  0  0  0
    0.4580    0.3661    7.3706 H   0  0  0  0  0  0  0  0  0  0  0  0
    1.2794    1.1267    8.6039 H   0  0  0  0  0  0  0  0  0  0  0  0
   -0.4524    2.4922    7.7392 H   0  0  0  0  0  0  0  0  0  0  0  0
    1.5607    3.3699    9.0427 H   0  0  0  0  0  0  0  0  0  0  0  0
    2.0797    4.1098    7.5353 H   0  0  0  0  0  0  0  0  0  0  0  0
   -0.2999    4.5570    8.9753 H   0  0  0  0  0  0  0  0  0  0  0  0
   -0.0692    4.1135    5.9720 H   0  0  0  0  0  0  0  0  0  0  0  0
    1.5409    4.3237    4.6954 H   0  0  0  0  0  0  0  0  0  0  0  0
    2.2751    2.8355    5.1124 H   0  0  0  0  0  0  0  0  0  0  0  0
    1.2483    3.4033    2.5944 H   0  0  0  0  0  0  0  0  0  0  0  0
    1.8371    1.3544    3.8284 H   0  0  0  0  0  0  0  0  0  0  0  0
   -0.8658    0.5300    2.9130 H   0  0  0  0  0  0  0  0  0  0  0  0
    0.2618   -0.6381    2.5394 H   0  0  0  0  0  0  0  0  0  0  0  0
    0.6331    0.7894    5.1532 H   0  0  0  0  0  0  0  0  0  0  0  0
   -2.5041   -1.3582    5.8697 H   0  0  0  0  0  0  0  0  0  0  0  0
   -1.0373   -2.2362    5.4512 H   0  0  0  0  0  0  0  0  0  0  0  0
   -1.9523   -1.4047    4.1931 H   0  0  0  0  0  0  0  0  0  0  0  0
   -2.3687    0.8970    4.4530 H   0  0  0  0  0  0  0  0  0  0  0  0
   -2.2882    1.0910    6.1631 H   0  0  0  0  0  0  0  0  0  0  0  0
   -3.2038    3.2026    4.8947 H   0  0  0  0  0  0  0  0  0  0  0  0
   -2.1432    4.4918    5.4176 H   0  0  0  0  0  0  0  0  0  0  0  0
   -2.5845    3.2342    6.5404 H   0  0  0  0  0  0  0  0  0  0  0  0
   -1.3206    2.4862    2.7984 H   0  0  0  0  0  0  0  0  0  0  0  0
   -0.5842    4.5046    2.3681 H   0  0  0  0  0  0  0  0  0  0  0  0
    2.1541   -1.5557    2.8275 H   0  0  0  0  0  0  0  0  0  0  0  0
    3.4675    1.1432    2.8660 H   0  0  0  0  0  0  0  0  0  0  0  0
    1.8347   -0.1668    0.9905 H   0  0  0  0  0  0  0  0  0  0  0  0
    2.7134    0.2025    7.7407 H   0  0  0  0  0  0  0  0  0  0  0  0
  1  2  1  0
  1 33  1  0
  1 34  1  0
  1 35  1  0
  2  3  1  0
 29  3  1  1
  3  4  1  0
  3 36  1  6
  4  5  1  0
  4 37  1  0
  4 38  1  0
  5 30  1  0
  5  6  1  6
  5  7  1  0
  6 39  1  0
  7  8  1  0
  7  9  1  0
  7 40  1  1
  8 41  1  0
  9 29  1  0
  9 10  1  0
  9 42  1  1
 10 11  1  0
 10 12  1  0
 10 73  1  1
 11 43  1  0
 11 44  1  0
 11 45  1  0
 12 13  1  0
 12 46  1  0
 12 47  1  0
 13 14  1  0
 13 16  1  0
 13 48  1  1
 14 15  1  0
 14 49  1  0
 14 50  1  0
 15 51  1  0
 16 25  1  0
 16 17  1  0
 16 52  1  1
 17 18  1  0
 17 53  1  0
 17 54  1  0
 18 27  1  0
 18 19  1  0
 18 55  1  6
 19 31  1  0
 19 20  1  0
 19 56  1  6
 20 21  1  0
 20 57  1  0
 20 58  1  0
 21 22  1  0
 21 29  1  0
 21 59  1  1
 22 23  1  0
 22 24  1  0
 23 60  1  0
 23 61  1  0
 23 62  1  0
 24 25  1  0
 24 63  1  0
 24 64  1  0
 25 26  1  1
 25 27  1  0
 26 65  1  0
 26 66  1  0
 26 67  1  0
 27 28  1  0
 27 68  1  6
 28 69  1  0
 29 30  1  0
 30 31  1  0
 30 70  1  6
 31 32  1  0
 31 71  1  1
 32 72  1  0
M  CHG  1  10   1
M  END
>  <i_m_ct_stereo_status>  (399) 
1

>  <s_m_source_file>  (399) 
/var/tmp/pbs.5076255.sched01/tmpgahbdy6u/1388ql836nh.sdf

>  <i_m_source_file_index>  (399) 
24

>  <i_lp_mmshare_version>  (399) 
48012

>  <i_f3d_flags>  (399) 
0

>  <s_epik_input>  (399) 
W0NIM11PW0NAQEhdMVtDSDJdW0NAXShbT0hdKShbQ0BASF0oW09IXSlbQ0BASF0yW0NAQF0xMzQpW0NAQEhdNFtDQEBIXShbT0hdKVtDSF01W0NAQEhdNltDSDJdW0NASF0oW0NASF0oW0NIMl1bT0hdKVtDSDJdTjJbQ0gzXSlbQ0BAXShbQ0gzXSkoW0NASF02W09IXSlbQ0gyXU4oW0NIM10pW0NAQEhdM1tDSDJdNQ==

>  <s_epik_cmdline>  (399) 
J2VwaWtfcHl0aG9uJywgJy1waHQnLCAnMi4wJywgJy1waCcsICc3LjAnLCAnLXRuJywgJzgnLCAnLW1hJywgJzIwMCcsICctaW1hZScsICc8aW5maWxlLm1hZT4nLCAnLW9tYWUnLCAnPG91dGZpbGUubWFlPic=

>  <r_epik_Ionization_Penalty>  (399) 
2.22009

>  <r_epik_Ionization_Penalty_Charging>  (399) 
0.00887587

>  <r_epik_Ionization_Penalty_Neutral>  (399) 
2.21122

>  <r_epik_State_Penalty>  (399) 
2.46133

>  <r_epik_Charging_Adjusted_Penalty>  (399) 
2.47021

>  <i_epik_Tot_Q>  (399) 
1

>  <i_epik_Tot_abs_Q>  (399) 
1

>  <s_lp_Force_Field>  (399) 
OPLS3e

>  <r_lp_Energy>  (399) 
230.89

>  <b_lp_Chiralities_Consistent>  (399) 
1

>  <s_lp_Variant>  (399) 
98:0-5

>  <s_i_glide_gridfile>  (399) 
pfpi4k_grid

>  <i_i_glide_lignum>  (399) 
24

>  <i_i_glide_rotatable_bonds>  (399) 
7

>  <r_i_docking_score>  (399) 
-2.859

>  <r_i_glide_ligand_efficiency>  (399) 
-0.0893436

>  <r_i_glide_ligand_efficiency_sa>  (399) 
-0.283648

>  <r_i_glide_ligand_efficiency_ln>  (399) 
-0.640207

>  <r_i_glide_gscore>  (399) 
-2.859

>  <r_i_glide_lipo>  (399) 
-0.00495917

>  <r_i_glide_hbond>  (399) 
-0.229935

>  <r_i_glide_metal>  (399) 
-0

>  <r_i_glide_rewards>  (399) 
-0.316417

>  <r_i_glide_evdw>  (399) 
-17.9603

>  <r_i_glide_ecoul>  (399) 
-10.0482

>  <r_i_glide_erotb>  (399) 
0.0975687

>  <r_i_glide_esite>  (399) 
0

>  <r_i_glide_emodel>  (399) 
-25.503

>  <r_i_glide_energy>  (399) 
-28.0086

>  <r_i_glide_einternal>  (399) 
13.648

>  <r_i_glide_intrahb_reward>  (399) 
-0

>  <i_i_glide_confnum>  (399) 
3

>  <i_i_glide_posenum>  (399) 
28

>  <r_i_glide_eff_state_penalty>  (399) 
0

>  <ligand_id>  (399) 
98

>  <original_smiles>  (399) 
COC1CC2(O)C(O)C3N(C)CC(CO)C4CC5C6CC(N(C)CC4(C)C5O)C13C2C6O

>  <smiles>  (399) 
[H]OC([H])([H])C1([H])C2([H])C([H])([H])C3([H])C([H])(O[H])C2(C([H])([H])[H])C([H])([H])N(C([H])([H])[H])C2([H])C([H])([H])C3([H])C([H])(O[H])C3([H])C4(O[H])C([H])([H])C([H])(OC([H])([H])[H])C23C([H])(C4([H])O[H])[N+]([H])(C([H])([H])[H])C1([H])[H]

$$$$
98:4:2
     RDKit          3D

 73 78  0  0  1  0  0  0  0  0999 V2000
    0.9092   -4.3723    6.2551 C   0  0  0  0  0  0  0  0  0  0  0  0
    1.1388   -2.9779    6.1514 O   0  0  0  0  0  0  0  0  0  0  0  0
    1.5907   -2.5528    4.8657 C   0  0  2  0  0  0  0  0  0  0  0  0
    3.0564   -2.9971    4.5367 C   0  0  0  0  0  0  0  0  0  0  0  0
    3.7659   -1.6910    4.0735 C   0  0  2  0  0  0  0  0  0  0  0  0
    4.8562   -1.9967    3.2252 O   0  0  0  0  0  0  0  0  0  0  0  0
    4.1356   -0.8390    5.3077 C   0  0  1  0  0  0  0  0  0  0  0  0
    4.7902    0.3322    4.8603 O   0  0  0  0  0  0  0  0  0  0  0  0
    2.7322   -0.5691    5.9262 C   0  0  1  0  0  0  0  0  0  0  0  0
    2.5645    0.5459    6.9198 N   0  0  1  0  0  0  0  0  0  0  0  0
    3.7244    1.3688    7.2931 C   0  0  0  0  0  0  0  0  0  0  0  0
    1.2413    0.9741    7.4434 C   0  0  0  0  0  0  0  0  0  0  0  0
    0.6898    2.4291    7.2052 C   0  0  1  0  0  0  0  0  0  0  0  0
    1.3436    3.5244    8.1076 C   0  0  0  0  0  0  0  0  0  0  0  0
    2.4892    4.1283    7.5383 O   0  0  0  0  0  0  0  0  0  0  0  0
    0.3584    2.9742    5.7741 C   0  0  1  0  0  0  0  0  0  0  0  0
    1.5248    3.1325    4.7593 C   0  0  0  0  0  0  0  0  0  0  0  0
    1.0265    2.6966    3.3341 C   0  0  1  0  0  0  0  0  0  0  0  0
    1.3676    1.2093    2.8891 C   0  0  1  0  0  0  0  0  0  0  0  0
    0.2155    0.2147    3.0808 C   0  0  0  0  0  0  0  0  0  0  0  0
    0.4000   -0.1797    4.5484 C   0  0  1  0  0  0  0  0  0  0  0  0
   -0.8182   -0.1695    5.3307 N   0  0  0  0  0  0  0  0  0  0  0  0
   -1.6570   -1.3221    5.0611 C   0  0  0  0  0  0  0  0  0  0  0  0
   -1.5796    1.0973    5.1591 C   0  0  0  0  0  0  0  0  0  0  0  0
   -0.9375    2.5611    4.9852 C   0  0  1  0  0  0  0  0  0  0  0  0
   -2.1251    3.4523    5.4525 C   0  0  0  0  0  0  0  0  0  0  0  0
   -0.5097    2.9638    3.5151 C   0  0  1  0  0  0  0  0  0  0  0  0
   -0.6696    4.3624    3.2849 O   0  0  0  0  0  0  0  0  0  0  0  0
    1.7074   -1.0065    4.7772 C   0  0  2  0  0  0  0  0  0  0  0  0
    2.5742   -0.9711    3.4449 C   0  0  1  0  0  0  0  0  0  0  0  0
    2.6823    0.4054    2.6378 C   0  0  1  0  0  0  0  0  0  0  0  0
    2.7669    0.1220    1.2594 O   0  0  0  0  0  0  0  0  0  0  0  0
    0.5720   -4.5950    7.2669 H   0  0  0  0  0  0  0  0  0  0  0  0
    1.8123   -4.9536    6.0698 H   0  0  0  0  0  0  0  0  0  0  0  0
    0.1323   -4.6889    5.5613 H   0  0  0  0  0  0  0  0  0  0  0  0
    0.9057   -2.9176    4.0950 H   0  0  0  0  0  0  0  0  0  0  0  0
    3.5771   -3.4397    5.3914 H   0  0  0  0  0  0  0  0  0  0  0  0
    3.0342   -3.7436    3.7350 H   0  0  0  0  0  0  0  0  0  0  0  0
    4.5180   -2.3953    2.4387 H   0  0  0  0  0  0  0  0  0  0  0  0
    4.7811   -1.3859    5.9877 H   0  0  0  0  0  0  0  0  0  0  0  0
    5.1333    0.8079    5.5986 H   0  0  0  0  0  0  0  0  0  0  0  0
    2.6697   -1.3667    6.6582 H   0  0  0  0  0  0  0  0  0  0  0  0
    3.5597    1.8406    8.2679 H   0  0  0  0  0  0  0  0  0  0  0  0
    3.9400    2.1462    6.5499 H   0  0  0  0  0  0  0  0  0  0  0  0
    4.6293    0.7648    7.4246 H   0  0  0  0  0  0  0  0  0  0  0  0
    0.4708    0.2223    7.2696 H   0  0  0  0  0  0  0  0  0  0  0  0
    1.3179    0.9025    8.5294 H   0  0  0  0  0  0  0  0  0  0  0  0
   -0.2966    2.3651    7.6647 H   0  0  0  0  0  0  0  0  0  0  0  0
    0.6423    4.3510    8.2685 H   0  0  0  0  0  0  0  0  0  0  0  0
    1.5861    3.1310    9.0992 H   0  0  0  0  0  0  0  0  0  0  0  0
    3.1135    3.4579    7.3247 H   0  0  0  0  0  0  0  0  0  0  0  0
    0.1545    4.0232    6.0001 H   0  0  0  0  0  0  0  0  0  0  0  0
    1.7812    4.1954    4.7129 H   0  0  0  0  0  0  0  0  0  0  0  0
    2.4405    2.6578    5.0951 H   0  0  0  0  0  0  0  0  0  0  0  0
    1.4673    3.3510    2.5841 H   0  0  0  0  0  0  0  0  0  0  0  0
    1.9519    1.2324    3.7810 H   0  0  0  0  0  0  0  0  0  0  0  0
   -0.7710    0.5678    2.8088 H   0  0  0  0  0  0  0  0  0  0  0  0
    0.3126   -0.6336    2.4083 H   0  0  0  0  0  0  0  0  0  0  0  0
    0.7136    0.6960    5.0730 H   0  0  0  0  0  0  0  0  0  0  0  0
   -2.5475   -1.3107    5.6863 H   0  0  0  0  0  0  0  0  0  0  0  0
   -1.1213   -2.2494    5.2564 H   0  0  0  0  0  0  0  0  0  0  0  0
   -1.9752   -1.3223    4.0258 H   0  0  0  0  0  0  0  0  0  0  0  0
   -2.2709    0.9707    4.3280 H   0  0  0  0  0  0  0  0  0  0  0  0
   -2.2164    1.1111    6.0412 H   0  0  0  0  0  0  0  0  0  0  0  0
   -3.0034    3.2977    4.8247 H   0  0  0  0  0  0  0  0  0  0  0  0
   -1.8860    4.5100    5.4158 H   0  0  0  0  0  0  0  0  0  0  0  0
   -2.4154    3.2405    6.4805 H   0  0  0  0  0  0  0  0  0  0  0  0
   -1.1402    2.5403    2.7332 H   0  0  0  0  0  0  0  0  0  0  0  0
   -0.4033    4.5075    2.3643 H   0  0  0  0  0  0  0  0  0  0  0  0
    2.1521   -1.6653    2.7118 H   0  0  0  0  0  0  0  0  0  0  0  0
    3.5894    0.9732    2.8634 H   0  0  0  0  0  0  0  0  0  0  0  0
    1.9427   -0.2253    0.9363 H   0  0  0  0  0  0  0  0  0  0  0  0
    2.6907   -0.1021    7.6858 H   0  0  0  0  0  0  0  0  0  0  0  0
  1  2  1  0
  1 33  1  0
  1 34  1  0
  1 35  1  0
  2  3  1  0
 29  3  1  1
  3  4  1  0
  3 36  1  6
  4  5  1  0
  4 37  1  0
  4 38  1  0
  5 30  1  0
  5  6  1  6
  5  7  1  0
  6 39  1  0
  7  8  1  0
  7  9  1  0
  7 40  1  1
  8 41  1  0
  9 29  1  0
  9 10  1  0
  9 42  1  1
 10 11  1  0
 10 12  1  0
 10 73  1  1
 11 43  1  0
 11 44  1  0
 11 45  1  0
 12 13  1  0
 12 46  1  0
 12 47  1  0
 13 14  1  0
 13 16  1  0
 13 48  1  1
 14 15  1  0
 14 49  1  0
 14 50  1  0
 15 51  1  0
 16 25  1  0
 16 17  1  0
 16 52  1  1
 17 18  1  0
 17 53  1  0
 17 54  1  0
 18 27  1  0
 18 19  1  0
 18 55  1  6
 19 31  1  0
 19 20  1  0
 19 56  1  6
 20 21  1  0
 20 57  1  0
 20 58  1  0
 21 22  1  0
 21 29  1  0
 21 59  1  1
 22 23  1  0
 22 24  1  0
 23 60  1  0
 23 61  1  0
 23 62  1  0
 24 25  1  0
 24 63  1  0
 24 64  1  0
 25 26  1  1
 25 27  1  0
 26 65  1  0
 26 66  1  0
 26 67  1  0
 27 28  1  0
 27 68  1  6
 28 69  1  0
 29 30  1  0
 30 31  1  0
 30 70  1  6
 31 32  1  0
 31 71  1  1
 32 72  1  0
M  CHG  1  10   1
M  END
>  <i_m_ct_stereo_status>  (400) 
1

>  <s_m_source_file>  (400) 
/var/tmp/pbs.5076255.sched01/tmpgahbdy6u/1388ql836nh.sdf

>  <i_m_source_file_index>  (400) 
24

>  <i_lp_mmshare_version>  (400) 
48012

>  <i_f3d_flags>  (400) 
0

>  <s_epik_input>  (400) 
W0NIM11PW0NAQEhdMVtDSDJdW0NAXShbT0hdKShbQ0BASF0oW09IXSlbQ0BASF0yW0NAQF0xMzQpW0NAQEhdNFtDQEBIXShbT0hdKVtDSF01W0NAQEhdNltDSDJdW0NASF0oW0NASF0oW0NIMl1bT0hdKVtDSDJdTjJbQ0gzXSlbQ0BAXShbQ0gzXSkoW0NASF02W09IXSlbQ0gyXU4oW0NIM10pW0NAQEhdM1tDSDJdNQ==

>  <s_epik_cmdline>  (400) 
J2VwaWtfcHl0aG9uJywgJy1waHQnLCAnMi4wJywgJy1waCcsICc3LjAnLCAnLXRuJywgJzgnLCAnLW1hJywgJzIwMCcsICctaW1hZScsICc8aW5maWxlLm1hZT4nLCAnLW9tYWUnLCAnPG91dGZpbGUubWFlPic=

>  <r_epik_Ionization_Penalty>  (400) 
2.22009

>  <r_epik_Ionization_Penalty_Charging>  (400) 
0.00887587

>  <r_epik_Ionization_Penalty_Neutral>  (400) 
2.21122

>  <r_epik_State_Penalty>  (400) 
2.46133

>  <r_epik_Charging_Adjusted_Penalty>  (400) 
2.47021

>  <i_epik_Tot_Q>  (400) 
1

>  <i_epik_Tot_abs_Q>  (400) 
1

>  <s_lp_Force_Field>  (400) 
OPLS3e

>  <r_lp_Energy>  (400) 
230.89

>  <b_lp_Chiralities_Consistent>  (400) 
1

>  <s_lp_Variant>  (400) 
98:0-5

>  <s_i_glide_gridfile>  (400) 
pfpi4k_grid

>  <i_i_glide_lignum>  (400) 
24

>  <i_i_glide_rotatable_bonds>  (400) 
7

>  <r_i_docking_score>  (400) 
-2.70807

>  <r_i_glide_ligand_efficiency>  (400) 
-0.084627

>  <r_i_glide_ligand_efficiency_sa>  (400) 
-0.268674

>  <r_i_glide_ligand_efficiency_ln>  (400) 
-0.60641

>  <r_i_glide_gscore>  (400) 
-2.70807

>  <r_i_glide_lipo>  (400) 
-0.00971793

>  <r_i_glide_hbond>  (400) 
-0.237548

>  <r_i_glide_metal>  (400) 
-0

>  <r_i_glide_rewards>  (400) 
-0.316417

>  <r_i_glide_evdw>  (400) 
-17.8332

>  <r_i_glide_ecoul>  (400) 
-9.00195

>  <r_i_glide_erotb>  (400) 
0.0975687

>  <r_i_glide_esite>  (400) 
0

>  <r_i_glide_emodel>  (400) 
-30.1946

>  <r_i_glide_energy>  (400) 
-26.8351

>  <r_i_glide_einternal>  (400) 
2.59049

>  <r_i_glide_intrahb_reward>  (400) 
-0

>  <i_i_glide_confnum>  (400) 
1

>  <i_i_glide_posenum>  (400) 
10

>  <r_i_glide_eff_state_penalty>  (400) 
0

>  <ligand_id>  (400) 
98

>  <original_smiles>  (400) 
COC1CC2(O)C(O)C3N(C)CC(CO)C4CC5C6CC(N(C)CC4(C)C5O)C13C2C6O

>  <smiles>  (400) 
[H]OC([H])([H])C1([H])C2([H])C([H])([H])C3([H])C([H])(O[H])C2(C([H])([H])[H])C([H])([H])N(C([H])([H])[H])C2([H])C([H])([H])C3([H])C([H])(O[H])C3([H])C4(O[H])C([H])([H])C([H])(OC([H])([H])[H])C23C([H])(C4([H])O[H])[N+]([H])(C([H])([H])[H])C1([H])[H]

$$$$
98:5:0
     RDKit          3D

 73 78  0  0  1  0  0  0  0  0999 V2000
    0.0803   -6.9210    3.4618 C   0  0  0  0  0  0  0  0  0  0  0  0
    1.0367   -5.9090    3.1945 O   0  0  0  0  0  0  0  0  0  0  0  0
    2.3797   -6.3824    3.1297 C   0  0  2  0  0  0  0  0  0  0  0  0
    2.9524   -6.8541    4.5057 C   0  0  0  0  0  0  0  0  0  0  0  0
    4.2975   -6.0846    4.6448 C   0  0  2  0  0  0  0  0  0  0  0  0
    5.2174   -6.7931    5.4511 O   0  0  0  0  0  0  0  0  0  0  0  0
    4.0142   -4.6405    5.0972 C   0  0  1  0  0  0  0  0  0  0  0  0
    5.2343   -3.9787    5.3764 O   0  0  0  0  0  0  0  0  0  0  0  0
    3.2226   -4.0962    3.8684 C   0  0  1  0  0  0  0  0  0  0  0  0
    3.1297   -2.6117    3.6350 N   0  0  1  0  0  0  0  0  0  0  0  0
    3.8875   -1.6812    4.4723 C   0  0  0  0  0  0  0  0  0  0  0  0
    2.4901   -2.0560    2.4279 C   0  0  0  0  0  0  0  0  0  0  0  0
    3.3246   -1.1647    1.4166 C   0  0  1  0  0  0  0  0  0  0  0  0
    3.6683    0.2552    1.9324 C   0  0  0  0  0  0  0  0  0  0  0  0
    2.5237    0.9055    2.4590 O   0  0  0  0  0  0  0  0  0  0  0  0
    4.5313   -1.7769    0.6366 C   0  0  1  0  0  0  0  0  0  0  0  0
    5.6858   -2.4500    1.4298 C   0  0  0  0  0  0  0  0  0  0  0  0
    6.2458   -3.6331    0.5805 C   0  0  1  0  0  0  0  0  0  0  0  0
    5.9776   -5.1194    1.0823 C   0  0  2  0  0  0  0  0  0  0  0  0
    4.6623   -5.6883    0.5206 C   0  0  0  0  0  0  0  0  0  0  0  0
    3.5591   -4.9079    1.2516 C   0  0  1  0  0  0  0  0  0  0  0  0
    2.5267   -4.4176    0.3773 N   0  0  0  0  0  0  0  0  0  0  0  0
    1.6433   -5.4680   -0.1092 C   0  0  0  0  0  0  0  0  0  0  0  0
    3.0297   -3.5910   -0.7472 C   0  0  0  0  0  0  0  0  0  0  0  0
    4.2818   -2.6033   -0.6628 C   0  0  1  0  0  0  0  0  0  0  0  0
    4.0208   -1.6359   -1.8511 C   0  0  0  0  0  0  0  0  0  0  0  0
    5.6790   -3.3099   -0.8392 C   0  0  1  0  0  0  0  0  0  0  0  0
    6.6432   -2.4493   -1.4465 O   0  0  0  0  0  0  0  0  0  0  0  0
    3.3734   -5.2520    2.7486 C   0  0  2  0  0  0  0  0  0  0  0  0
    4.6741   -5.9928    3.1737 C   0  0  1  0  0  0  0  0  0  0  0  0
    6.0007   -5.3430    2.6468 C   0  0  1  0  0  0  0  0  0  0  0  0
    7.0772   -6.2022    2.9644 O   0  0  0  0  0  0  0  0  0  0  0  0
   -0.9128   -6.4725    3.4955 H   0  0  0  0  0  0  0  0  0  0  0  0
    0.2521   -7.4067    4.4238 H   0  0  0  0  0  0  0  0  0  0  0  0
    0.0880   -7.6765    2.6755 H   0  0  0  0  0  0  0  0  0  0  0  0
    2.4483   -7.1911    2.3980 H   0  0  0  0  0  0  0  0  0  0  0  0
    2.2806   -6.6463    5.3474 H   0  0  0  0  0  0  0  0  0  0  0  0
    3.1132   -7.9353    4.4686 H   0  0  0  0  0  0  0  0  0  0  0  0
    4.8172   -6.9649    6.2825 H   0  0  0  0  0  0  0  0  0  0  0  0
    3.4097   -4.6122    6.0010 H   0  0  0  0  0  0  0  0  0  0  0  0
    5.8470   -4.1347    4.6864 H   0  0  0  0  0  0  0  0  0  0  0  0
    2.1956   -4.2171    4.2137 H   0  0  0  0  0  0  0  0  0  0  0  0
    4.9395   -1.5768    4.1734 H   0  0  0  0  0  0  0  0  0  0  0  0
    3.8630   -1.9589    5.5324 H   0  0  0  0  0  0  0  0  0  0  0  0
    3.4357   -0.6838    4.4604 H   0  0  0  0  0  0  0  0  0  0  0  0
    1.8629   -2.7743    1.9111 H   0  0  0  0  0  0  0  0  0  0  0  0
    1.7025   -1.4016    2.8101 H   0  0  0  0  0  0  0  0  0  0  0  0
    2.6112   -0.9476    0.6220 H   0  0  0  0  0  0  0  0  0  0  0  0
    4.4683    0.2452    2.6773 H   0  0  0  0  0  0  0  0  0  0  0  0
    4.0404    0.8828    1.1169 H   0  0  0  0  0  0  0  0  0  0  0  0
    1.9097    1.0679    1.7676 H   0  0  0  0  0  0  0  0  0  0  0  0
    5.0454   -0.8957    0.2491 H   0  0  0  0  0  0  0  0  0  0  0  0
    6.4768   -1.7199    1.6213 H   0  0  0  0  0  0  0  0  0  0  0  0
    5.3565   -2.7544    2.4079 H   0  0  0  0  0  0  0  0  0  0  0  0
    7.3320   -3.5395    0.5820 H   0  0  0  0  0  0  0  0  0  0  0  0
    6.7645   -5.7313    0.6388 H   0  0  0  0  0  0  0  0  0  0  0  0
    4.5994   -5.6645   -0.5611 H   0  0  0  0  0  0  0  0  0  0  0  0
    4.5911   -6.7605    0.7154 H   0  0  0  0  0  0  0  0  0  0  0  0
    3.9689   -3.9559    1.4562 H   0  0  0  0  0  0  0  0  0  0  0  0
    0.8596   -5.0567   -0.7426 H   0  0  0  0  0  0  0  0  0  0  0  0
    1.1689   -5.9989    0.7138 H   0  0  0  0  0  0  0  0  0  0  0  0
    2.1872   -6.2010   -0.6907 H   0  0  0  0  0  0  0  0  0  0  0  0
    3.2140   -4.2551   -1.5891 H   0  0  0  0  0  0  0  0  0  0  0  0
    2.1567   -3.0081   -1.0470 H   0  0  0  0  0  0  0  0  0  0  0  0
    3.9896   -2.1780   -2.7968 H   0  0  0  0  0  0  0  0  0  0  0  0
    4.7740   -0.8541   -1.9537 H   0  0  0  0  0  0  0  0  0  0  0  0
    3.0635   -1.1199   -1.7432 H   0  0  0  0  0  0  0  0  0  0  0  0
    5.6373   -4.1609   -1.5171 H   0  0  0  0  0  0  0  0  0  0  0  0
    7.3717   -2.9886   -1.7019 H   0  0  0  0  0  0  0  0  0  0  0  0
    4.6999   -7.0209    2.8046 H   0  0  0  0  0  0  0  0  0  0  0  0
    6.2064   -4.4224    3.1676 H   0  0  0  0  0  0  0  0  0  0  0  0
    7.0523   -6.4029    3.8864 H   0  0  0  0  0  0  0  0  0  0  0  0
    2.2833   -2.5442    4.1888 H   0  0  0  0  0  0  0  0  0  0  0  0
  1  2  1  0
  1 33  1  0
  1 34  1  0
  1 35  1  0
  2  3  1  0
 29  3  1  6
  3  4  1  0
  3 36  1  6
  4  5  1  0
  4 37  1  0
  4 38  1  0
  5 30  1  0
  5  6  1  1
  5  7  1  0
  6 39  1  0
  7  8  1  0
  7  9  1  0
  7 40  1  1
  8 41  1  0
  9 29  1  0
  9 10  1  0
  9 42  1  1
 10 11  1  0
 10 12  1  0
 10 73  1  1
 11 43  1  0
 11 44  1  0
 11 45  1  0
 12 13  1  0
 12 46  1  0
 12 47  1  0
 13 14  1  0
 13 16  1  0
 13 48  1  6
 14 15  1  0
 14 49  1  0
 14 50  1  0
 15 51  1  0
 16 25  1  0
 16 17  1  0
 16 52  1  6
 17 18  1  0
 17 53  1  0
 17 54  1  0
 18 27  1  0
 18 19  1  0
 18 55  1  6
 19 31  1  0
 19 20  1  0
 19 56  1  6
 20 21  1  0
 20 57  1  0
 20 58  1  0
 21 22  1  0
 21 29  1  0
 21 59  1  1
 22 23  1  0
 22 24  1  0
 23 60  1  0
 23 61  1  0
 23 62  1  0
 24 25  1  0
 24 63  1  0
 24 64  1  0
 25 26  1  6
 25 27  1  0
 26 65  1  0
 26 66  1  0
 26 67  1  0
 27 28  1  0
 27 68  1  6
 28 69  1  0
 29 30  1  0
 30 31  1  0
 30 70  1  6
 31 32  1  0
 31 71  1  1
 32 72  1  0
M  CHG  1  10   1
M  END
>  <i_m_ct_stereo_status>  (401) 
1

>  <s_m_source_file>  (401) 
/var/tmp/pbs.5076255.sched01/tmpgahbdy6u/1388ql836nh.sdf

>  <i_m_source_file_index>  (401) 
25

>  <i_lp_mmshare_version>  (401) 
48012

>  <i_f3d_flags>  (401) 
0

>  <s_epik_input>  (401) 
W0NIM11PW0NAQEhdMVtDSDJdW0NAXShbT0hdKShbQ0BASF0oW09IXSlbQ0BASF0yW0NAQF0xMzQpW0NAQEhdNFtDQEBIXShbT0hdKVtDSF01W0NAQEhdNltDSDJdW0NASF0oW0NASF0oW0NIMl1bT0hdKVtDSDJdTjJbQ0gzXSlbQ0BAXShbQ0gzXSkoW0NASF02W09IXSlbQ0gyXU4oW0NIM10pW0NAQEhdM1tDSDJdNQ==

>  <s_epik_cmdline>  (401) 
J2VwaWtfcHl0aG9uJywgJy1waHQnLCAnMi4wJywgJy1waCcsICc3LjAnLCAnLXRuJywgJzgnLCAnLW1hJywgJzIwMCcsICctaW1hZScsICc8aW5maWxlLm1hZT4nLCAnLW9tYWUnLCAnPG91dGZpbGUubWFlPic=

>  <r_epik_Ionization_Penalty>  (401) 
2.22009

>  <r_epik_Ionization_Penalty_Charging>  (401) 
0.00887587

>  <r_epik_Ionization_Penalty_Neutral>  (401) 
2.21122

>  <r_epik_State_Penalty>  (401) 
2.46133

>  <r_epik_Charging_Adjusted_Penalty>  (401) 
2.47021

>  <i_epik_Tot_Q>  (401) 
1

>  <i_epik_Tot_abs_Q>  (401) 
1

>  <s_lp_Force_Field>  (401) 
OPLS3e

>  <r_lp_Energy>  (401) 
166.37

>  <b_lp_Chiralities_Consistent>  (401) 
1

>  <s_lp_Variant>  (401) 
98:0-6

>  <s_i_glide_gridfile>  (401) 
pfpi4k_grid

>  <i_i_glide_lignum>  (401) 
25

>  <i_i_glide_rotatable_bonds>  (401) 
7

>  <r_i_docking_score>  (401) 
-2.9827

>  <r_i_glide_ligand_efficiency>  (401) 
-0.0932095

>  <r_i_glide_ligand_efficiency_sa>  (401) 
-0.295922

>  <r_i_glide_ligand_efficiency_ln>  (401) 
-0.667908

>  <r_i_glide_gscore>  (401) 
-2.9827

>  <r_i_glide_lipo>  (401) 
-0.507399

>  <r_i_glide_hbond>  (401) 
-0.108443

>  <r_i_glide_metal>  (401) 
-0

>  <r_i_glide_rewards>  (401) 
-0.816417

>  <r_i_glide_evdw>  (401) 
-20.9233

>  <r_i_glide_ecoul>  (401) 
-4.0123

>  <r_i_glide_erotb>  (401) 
0.0975687

>  <r_i_glide_esite>  (401) 
0

>  <r_i_glide_emodel>  (401) 
-34.4967

>  <r_i_glide_energy>  (401) 
-24.9356

>  <r_i_glide_einternal>  (401) 
1.25544

>  <r_i_glide_intrahb_reward>  (401) 
-0.5

>  <i_i_glide_confnum>  (401) 
2

>  <i_i_glide_posenum>  (401) 
11

>  <r_i_glide_eff_state_penalty>  (401) 
0

>  <ligand_id>  (401) 
98

>  <original_smiles>  (401) 
COC1CC2(O)C(O)C3N(C)CC(CO)C4CC5C6CC(N(C)CC4(C)C5O)C13C2C6O

>  <smiles>  (401) 
[H]OC([H])([H])C1([H])C2([H])C([H])([H])C3([H])C([H])(O[H])C2(C([H])([H])[H])C([H])([H])N(C([H])([H])[H])C2([H])C([H])([H])C3([H])C([H])(O[H])C3([H])C4(O[H])C([H])([H])C([H])(OC([H])([H])[H])C23C([H])(C4([H])O[H])[N+]([H])(C([H])([H])[H])C1([H])[H]

$$$$
98:5:1
     RDKit          3D

 73 78  0  0  1  0  0  0  0  0999 V2000
   -0.1055   -7.2450    3.2125 C   0  0  0  0  0  0  0  0  0  0  0  0
    0.8996   -6.2606    3.0314 O   0  0  0  0  0  0  0  0  0  0  0  0
    2.2133   -6.7953    2.8540 C   0  0  2  0  0  0  0  0  0  0  0  0
    2.8169   -7.4287    4.1496 C   0  0  0  0  0  0  0  0  0  0  0  0
    4.2098   -6.7467    4.2963 C   0  0  2  0  0  0  0  0  0  0  0  0
    5.1282   -7.5731    4.9877 O   0  0  0  0  0  0  0  0  0  0  0  0
    4.0271   -5.3435    4.8987 C   0  0  1  0  0  0  0  0  0  0  0  0
    5.3020   -4.7844    5.1732 O   0  0  0  0  0  0  0  0  0  0  0  0
    3.2083   -4.6402    3.7679 C   0  0  1  0  0  0  0  0  0  0  0  0
    3.1851   -3.1383    3.6959 N   0  0  1  0  0  0  0  0  0  0  0  0
    4.0237   -2.3598    4.5988 C   0  0  0  0  0  0  0  0  0  0  0  0
    2.5448   -2.4166    2.5792 C   0  0  0  0  0  0  0  0  0  0  0  0
    3.3950   -1.4900    1.6218 C   0  0  1  0  0  0  0  0  0  0  0  0
    3.8100   -0.1241    2.2368 C   0  0  0  0  0  0  0  0  0  0  0  0
    5.0878   -0.1476    2.8566 O   0  0  0  0  0  0  0  0  0  0  0  0
    4.5070   -2.0835    0.7012 C   0  0  1  0  0  0  0  0  0  0  0  0
    5.6537   -2.8940    1.3686 C   0  0  0  0  0  0  0  0  0  0  0  0
    6.1039   -4.0098    0.3816 C   0  0  1  0  0  0  0  0  0  0  0  0
    5.7829   -5.5192    0.7662 C   0  0  2  0  0  0  0  0  0  0  0  0
    4.4118   -5.9623    0.2254 C   0  0  0  0  0  0  0  0  0  0  0  0
    3.3855   -5.2039    1.0785 C   0  0  1  0  0  0  0  0  0  0  0  0
    2.3326   -4.5951    0.2994 N   0  0  0  0  0  0  0  0  0  0  0  0
    1.3552   -5.5407   -0.2067 C   0  0  0  0  0  0  0  0  0  0  0  0
    2.8264   -3.6802   -0.7612 C   0  0  0  0  0  0  0  0  0  0  0  0
    4.1406   -2.7684   -0.6545 C   0  0  1  0  0  0  0  0  0  0  0  0
    3.8888   -1.6728   -1.7308 C   0  0  0  0  0  0  0  0  0  0  0  0
    5.4891   -3.5181   -0.9682 C   0  0  1  0  0  0  0  0  0  0  0  0
    6.4721   -2.6386   -1.5207 O   0  0  0  0  0  0  0  0  0  0  0  0
    3.2525   -5.6832    2.5382 C   0  0  2  0  0  0  0  0  0  0  0  0
    4.5333   -6.5187    2.8262 C   0  0  1  0  0  0  0  0  0  0  0  0
    5.8742   -5.8897    2.2985 C   0  0  1  0  0  0  0  0  0  0  0  0
    6.9082   -6.8393    2.4666 O   0  0  0  0  0  0  0  0  0  0  0  0
   -1.0678   -6.7471    3.3402 H   0  0  0  0  0  0  0  0  0  0  0  0
    0.0730   -7.8537    4.0994 H   0  0  0  0  0  0  0  0  0  0  0  0
   -0.1701   -7.8951    2.3403 H   0  0  0  0  0  0  0  0  0  0  0  0
    2.2032   -7.5294    2.0448 H   0  0  0  0  0  0  0  0  0  0  0  0
    2.1932   -7.2713    5.0373 H   0  0  0  0  0  0  0  0  0  0  0  0
    2.9154   -8.5086    3.9998 H   0  0  0  0  0  0  0  0  0  0  0  0
    4.7637   -7.7872    5.8217 H   0  0  0  0  0  0  0  0  0  0  0  0
    3.4672   -5.3702    5.8270 H   0  0  0  0  0  0  0  0  0  0  0  0
    5.8793   -4.9362    4.4584 H   0  0  0  0  0  0  0  0  0  0  0  0
    2.1962   -4.7449    4.1485 H   0  0  0  0  0  0  0  0  0  0  0  0
    5.0756   -2.3156    4.2688 H   0  0  0  0  0  0  0  0  0  0  0  0
    4.0089   -2.7390    5.6287 H   0  0  0  0  0  0  0  0  0  0  0  0
    3.6475   -1.3307    4.6876 H   0  0  0  0  0  0  0  0  0  0  0  0
    1.8463   -3.0394    2.0187 H   0  0  0  0  0  0  0  0  0  0  0  0
    1.8325   -1.7282    3.0448 H   0  0  0  0  0  0  0  0  0  0  0  0
    2.6398   -1.1598    0.9065 H   0  0  0  0  0  0  0  0  0  0  0  0
    3.8397    0.6453    1.4602 H   0  0  0  0  0  0  0  0  0  0  0  0
    3.0693    0.2268    2.9595 H   0  0  0  0  0  0  0  0  0  0  0  0
    5.1392    0.5493    3.4785 H   0  0  0  0  0  0  0  0  0  0  0  0
    5.0418   -1.1871    0.3733 H   0  0  0  0  0  0  0  0  0  0  0  0
    6.4921   -2.2272    1.5846 H   0  0  0  0  0  0  0  0  0  0  0  0
    5.3467   -3.2738    2.3281 H   0  0  0  0  0  0  0  0  0  0  0  0
    7.1916   -3.9716    0.3387 H   0  0  0  0  0  0  0  0  0  0  0  0
    6.5102   -6.1237    0.2249 H   0  0  0  0  0  0  0  0  0  0  0  0
    4.3139   -5.8124   -0.8359 H   0  0  0  0  0  0  0  0  0  0  0  0
    4.2845   -7.0465    0.3095 H   0  0  0  0  0  0  0  0  0  0  0  0
    3.8497   -4.2934    1.3455 H   0  0  0  0  0  0  0  0  0  0  0  0
    0.5744   -5.0477   -0.7747 H   0  0  0  0  0  0  0  0  0  0  0  0
    0.8956   -6.1089    0.5963 H   0  0  0  0  0  0  0  0  0  0  0  0
    1.7777   -6.2594   -0.8734 H   0  0  0  0  0  0  0  0  0  0  0  0
    2.9263   -4.2572   -1.6765 H   0  0  0  0  0  0  0  0  0  0  0  0
    1.9763   -3.0258   -0.9550 H   0  0  0  0  0  0  0  0  0  0  0  0
    3.7745   -2.1127   -2.7221 H   0  0  0  0  0  0  0  0  0  0  0  0
    4.6819   -0.9274   -1.7983 H   0  0  0  0  0  0  0  0  0  0  0  0
    2.9816   -1.1102   -1.5181 H   0  0  0  0  0  0  0  0  0  0  0  0
    5.3767   -4.2920   -1.7267 H   0  0  0  0  0  0  0  0  0  0  0  0
    7.1865   -3.1619   -1.8262 H   0  0  0  0  0  0  0  0  0  0  0  0
    4.4848   -7.5046    2.3586 H   0  0  0  0  0  0  0  0  0  0  0  0
    6.1929   -5.0393    2.8846 H   0  0  0  0  0  0  0  0  0  0  0  0
    6.9414   -7.0979    3.3709 H   0  0  0  0  0  0  0  0  0  0  0  0
    2.3578   -3.0925    4.2832 H   0  0  0  0  0  0  0  0  0  0  0  0
  1  2  1  0
  1 33  1  0
  1 34  1  0
  1 35  1  0
  2  3  1  0
 29  3  1  6
  3  4  1  0
  3 36  1  6
  4  5  1  0
  4 37  1  0
  4 38  1  0
  5 30  1  0
  5  6  1  1
  5  7  1  0
  6 39  1  0
  7  8  1  0
  7  9  1  0
  7 40  1  1
  8 41  1  0
  9 29  1  0
  9 10  1  0
  9 42  1  1
 10 11  1  0
 10 12  1  0
 10 73  1  1
 11 43  1  0
 11 44  1  0
 11 45  1  0
 12 13  1  0
 12 46  1  0
 12 47  1  0
 13 14  1  0
 13 16  1  0
 13 48  1  6
 14 15  1  0
 14 49  1  0
 14 50  1  0
 15 51  1  0
 16 25  1  0
 16 17  1  0
 16 52  1  6
 17 18  1  0
 17 53  1  0
 17 54  1  0
 18 27  1  0
 18 19  1  0
 18 55  1  6
 19 31  1  0
 19 20  1  0
 19 56  1  6
 20 21  1  0
 20 57  1  0
 20 58  1  0
 21 22  1  0
 21 29  1  0
 21 59  1  1
 22 23  1  0
 22 24  1  0
 23 60  1  0
 23 61  1  0
 23 62  1  0
 24 25  1  0
 24 63  1  0
 24 64  1  0
 25 26  1  6
 25 27  1  0
 26 65  1  0
 26 66  1  0
 26 67  1  0
 27 28  1  0
 27 68  1  6
 28 69  1  0
 29 30  1  0
 30 31  1  0
 30 70  1  6
 31 32  1  0
 31 71  1  1
 32 72  1  0
M  CHG  1  10   1
M  END
>  <i_m_ct_stereo_status>  (402) 
1

>  <s_m_source_file>  (402) 
/var/tmp/pbs.5076255.sched01/tmpgahbdy6u/1388ql836nh.sdf

>  <i_m_source_file_index>  (402) 
25

>  <i_lp_mmshare_version>  (402) 
48012

>  <i_f3d_flags>  (402) 
0

>  <s_epik_input>  (402) 
W0NIM11PW0NAQEhdMVtDSDJdW0NAXShbT0hdKShbQ0BASF0oW09IXSlbQ0BASF0yW0NAQF0xMzQpW0NAQEhdNFtDQEBIXShbT0hdKVtDSF01W0NAQEhdNltDSDJdW0NASF0oW0NASF0oW0NIMl1bT0hdKVtDSDJdTjJbQ0gzXSlbQ0BAXShbQ0gzXSkoW0NASF02W09IXSlbQ0gyXU4oW0NIM10pW0NAQEhdM1tDSDJdNQ==

>  <s_epik_cmdline>  (402) 
J2VwaWtfcHl0aG9uJywgJy1waHQnLCAnMi4wJywgJy1waCcsICc3LjAnLCAnLXRuJywgJzgnLCAnLW1hJywgJzIwMCcsICctaW1hZScsICc8aW5maWxlLm1hZT4nLCAnLW9tYWUnLCAnPG91dGZpbGUubWFlPic=

>  <r_epik_Ionization_Penalty>  (402) 
2.22009

>  <r_epik_Ionization_Penalty_Charging>  (402) 
0.00887587

>  <r_epik_Ionization_Penalty_Neutral>  (402) 
2.21122

>  <r_epik_State_Penalty>  (402) 
2.46133

>  <r_epik_Charging_Adjusted_Penalty>  (402) 
2.47021

>  <i_epik_Tot_Q>  (402) 
1

>  <i_epik_Tot_abs_Q>  (402) 
1

>  <s_lp_Force_Field>  (402) 
OPLS3e

>  <r_lp_Energy>  (402) 
166.37

>  <b_lp_Chiralities_Consistent>  (402) 
1

>  <s_lp_Variant>  (402) 
98:0-6

>  <s_i_glide_gridfile>  (402) 
pfpi4k_grid

>  <i_i_glide_lignum>  (402) 
25

>  <i_i_glide_rotatable_bonds>  (402) 
7

>  <r_i_docking_score>  (402) 
-2.89929

>  <r_i_glide_ligand_efficiency>  (402) 
-0.0906028

>  <r_i_glide_ligand_efficiency_sa>  (402) 
-0.287646

>  <r_i_glide_ligand_efficiency_ln>  (402) 
-0.64923

>  <r_i_glide_gscore>  (402) 
-2.89929

>  <r_i_glide_lipo>  (402) 
-0.464824

>  <r_i_glide_hbond>  (402) 
-0.0626344

>  <r_i_glide_metal>  (402) 
-0

>  <r_i_glide_rewards>  (402) 
-0.816417

>  <r_i_glide_evdw>  (402) 
-18.8887

>  <r_i_glide_ecoul>  (402) 
-4.72364

>  <r_i_glide_erotb>  (402) 
0.0975687

>  <r_i_glide_esite>  (402) 
0

>  <r_i_glide_emodel>  (402) 
-31.7623

>  <r_i_glide_energy>  (402) 
-23.6124

>  <r_i_glide_einternal>  (402) 
3.36957

>  <r_i_glide_intrahb_reward>  (402) 
-0.5

>  <i_i_glide_confnum>  (402) 
3

>  <i_i_glide_posenum>  (402) 
20

>  <r_i_glide_eff_state_penalty>  (402) 
0

>  <ligand_id>  (402) 
98

>  <original_smiles>  (402) 
COC1CC2(O)C(O)C3N(C)CC(CO)C4CC5C6CC(N(C)CC4(C)C5O)C13C2C6O

>  <smiles>  (402) 
[H]OC([H])([H])C1([H])C2([H])C([H])([H])C3([H])C([H])(O[H])C2(C([H])([H])[H])C([H])([H])N(C([H])([H])[H])C2([H])C([H])([H])C3([H])C([H])(O[H])C3([H])C4(O[H])C([H])([H])C([H])(OC([H])([H])[H])C23C([H])(C4([H])O[H])[N+]([H])(C([H])([H])[H])C1([H])[H]

$$$$
98:5:2
     RDKit          3D

 73 78  0  0  1  0  0  0  0  0999 V2000
    0.6253   -4.3423    5.8281 C   0  0  0  0  0  0  0  0  0  0  0  0
    0.9459   -2.9621    5.7887 O   0  0  0  0  0  0  0  0  0  0  0  0
    1.3623   -2.4866    4.5101 C   0  0  2  0  0  0  0  0  0  0  0  0
    2.7572   -3.0297    4.0703 C   0  0  0  0  0  0  0  0  0  0  0  0
    3.5620   -1.7564    3.6807 C   0  0  2  0  0  0  0  0  0  0  0  0
    4.5744   -2.0849    2.7482 O   0  0  0  0  0  0  0  0  0  0  0  0
    4.0684   -1.0611    4.9577 C   0  0  1  0  0  0  0  0  0  0  0  0
    4.9265    0.0118    4.6141 O   0  0  0  0  0  0  0  0  0  0  0  0
    2.7223   -0.6630    5.6320 C   0  0  1  0  0  0  0  0  0  0  0  0
    2.7060    0.4190    6.6810 N   0  0  1  0  0  0  0  0  0  0  0  0
    3.9227    1.2061    6.9570 C   0  0  0  0  0  0  0  0  0  0  0  0
    1.4459    0.9329    7.2639 C   0  0  0  0  0  0  0  0  0  0  0  0
    1.0228    2.4394    7.0801 C   0  0  1  0  0  0  0  0  0  0  0  0
    1.8510    3.4618    7.9130 C   0  0  0  0  0  0  0  0  0  0  0  0
    1.8234    3.1540    9.2983 O   0  0  0  0  0  0  0  0  0  0  0  0
    0.7184    3.0088    5.6522 C   0  0  1  0  0  0  0  0  0  0  0  0
    1.8045    2.8891    4.5481 C   0  0  0  0  0  0  0  0  0  0  0  0
    1.0894    2.7127    3.1738 C   0  0  1  0  0  0  0  0  0  0  0  0
    1.2019    1.3139    2.4437 C   0  0  2  0  0  0  0  0  0  0  0  0
    0.0706    0.3589    2.8685 C   0  0  0  0  0  0  0  0  0  0  0  0
    0.3841   -0.0216    4.3217 C   0  0  1  0  0  0  0  0  0  0  0  0
   -0.7585    0.0587    5.2133 N   0  0  0  0  0  0  0  0  0  0  0  0
   -1.7187   -1.0167    5.0078 C   0  0  0  0  0  0  0  0  0  0  0  0
   -1.4336    1.3800    5.1783 C   0  0  0  0  0  0  0  0  0  0  0  0
   -0.6846    2.7797    4.9945 C   0  0  1  0  0  0  0  0  0  0  0  0
   -1.7052    3.7799    5.6017 C   0  0  0  0  0  0  0  0  0  0  0  0
   -0.3711    3.1647    3.4985 C   0  0  1  0  0  0  0  0  0  0  0  0
   -0.3986    4.5675    3.2854 O   0  0  0  0  0  0  0  0  0  0  0  0
    1.6077   -0.9511    4.5122 C   0  0  2  0  0  0  0  0  0  0  0  0
    2.4112   -0.8850    3.1791 C   0  0  1  0  0  0  0  0  0  0  0  0
    2.5818    0.5542    2.5715 C   0  0  1  0  0  0  0  0  0  0  0  0
    3.1755    0.4249    1.2978 O   0  0  0  0  0  0  0  0  0  0  0  0
    0.3115   -4.6022    6.8367 H   0  0  0  0  0  0  0  0  0  0  0  0
    1.4805   -4.9699    5.5748 H   0  0  0  0  0  0  0  0  0  0  0  0
   -0.1915   -4.5721    5.1455 H   0  0  0  0  0  0  0  0  0  0  0  0
    0.6109   -2.7414    3.7609 H   0  0  0  0  0  0  0  0  0  0  0  0
    3.2717   -3.5937    4.8522 H   0  0  0  0  0  0  0  0  0  0  0  0
    2.6260   -3.7048    3.2162 H   0  0  0  0  0  0  0  0  0  0  0  0
    4.1690   -2.4444    1.9750 H   0  0  0  0  0  0  0  0  0  0  0  0
    4.6368   -1.7519    5.5780 H   0  0  0  0  0  0  0  0  0  0  0  0
    4.5448    0.5261    3.9225 H   0  0  0  0  0  0  0  0  0  0  0  0
    2.5946   -1.4801    6.3352 H   0  0  0  0  0  0  0  0  0  0  0  0
    4.0940    2.0098    6.2356 H   0  0  0  0  0  0  0  0  0  0  0  0
    4.8200    0.5792    6.9950 H   0  0  0  0  0  0  0  0  0  0  0  0
    3.8843    1.6474    7.9558 H   0  0  0  0  0  0  0  0  0  0  0  0
    0.6140    0.2505    7.1098 H   0  0  0  0  0  0  0  0  0  0  0  0
    1.5648    0.8003    8.3409 H   0  0  0  0  0  0  0  0  0  0  0  0
    0.0462    2.4967    7.5675 H   0  0  0  0  0  0  0  0  0  0  0  0
    2.8748    3.5779    7.5528 H   0  0  0  0  0  0  0  0  0  0  0  0
    1.4222    4.4641    7.8358 H   0  0  0  0  0  0  0  0  0  0  0  0
    2.2205    2.3130    9.4635 H   0  0  0  0  0  0  0  0  0  0  0  0
    0.7157    4.0872    5.8086 H   0  0  0  0  0  0  0  0  0  0  0  0
    2.4118    3.7975    4.5349 H   0  0  0  0  0  0  0  0  0  0  0  0
    2.4997    2.0951    4.7627 H   0  0  0  0  0  0  0  0  0  0  0  0
    1.5528    3.4170    2.4791 H   0  0  0  0  0  0  0  0  0  0  0  0
    1.0191    1.5128    1.3873 H   0  0  0  0  0  0  0  0  0  0  0  0
   -0.9285    0.7550    2.7006 H   0  0  0  0  0  0  0  0  0  0  0  0
    0.0796   -0.5141    2.2242 H   0  0  0  0  0  0  0  0  0  0  0  0
    0.8825    0.8129    4.7334 H   0  0  0  0  0  0  0  0  0  0  0  0
   -2.5248   -0.9539    5.7336 H   0  0  0  0  0  0  0  0  0  0  0  0
   -1.2457   -1.9878    5.1229 H   0  0  0  0  0  0  0  0  0  0  0  0
   -2.1608   -0.9688    4.0155 H   0  0  0  0  0  0  0  0  0  0  0  0
   -2.2179    1.3424    4.4240 H   0  0  0  0  0  0  0  0  0  0  0  0
   -1.9677    1.4067    6.1283 H   0  0  0  0  0  0  0  0  0  0  0  0
   -2.6513    3.7452    5.0609 H   0  0  0  0  0  0  0  0  0  0  0  0
   -1.3499    4.8094    5.5826 H   0  0  0  0  0  0  0  0  0  0  0  0
   -1.9222    3.5560    6.6469 H   0  0  0  0  0  0  0  0  0  0  0  0
   -1.1202    2.8011    2.7963 H   0  0  0  0  0  0  0  0  0  0  0  0
   -0.1900    4.6636    2.3363 H   0  0  0  0  0  0  0  0  0  0  0  0
    1.9267   -1.4635    2.3842 H   0  0  0  0  0  0  0  0  0  0  0  0
    3.2895    1.1507    3.1277 H   0  0  0  0  0  0  0  0  0  0  0  0
    2.5935   -0.0465    0.7138 H   0  0  0  0  0  0  0  0  0  0  0  0
    2.8703   -0.2392    7.4211 H   0  0  0  0  0  0  0  0  0  0  0  0
  1  2  1  0
  1 33  1  0
  1 34  1  0
  1 35  1  0
  2  3  1  0
 29  3  1  1
  3  4  1  0
  3 36  1  6
  4  5  1  0
  4 37  1  0
  4 38  1  0
  5 30  1  0
  5  6  1  6
  5  7  1  0
  6 39  1  0
  7  8  1  0
  7  9  1  0
  7 40  1  1
  8 41  1  0
  9 29  1  0
  9 10  1  0
  9 42  1  1
 10 11  1  0
 10 12  1  0
 10 73  1  1
 11 43  1  0
 11 44  1  0
 11 45  1  0
 12 13  1  0
 12 46  1  0
 12 47  1  0
 13 14  1  0
 13 16  1  0
 13 48  1  1
 14 15  1  0
 14 49  1  0
 14 50  1  0
 15 51  1  0
 16 25  1  0
 16 17  1  0
 16 52  1  1
 17 18  1  0
 17 53  1  0
 17 54  1  0
 18 27  1  0
 18 19  1  0
 18 55  1  6
 19 31  1  0
 19 20  1  0
 19 56  1  6
 20 21  1  0
 20 57  1  0
 20 58  1  0
 21 22  1  0
 21 29  1  0
 21 59  1  1
 22 23  1  0
 22 24  1  0
 23 60  1  0
 23 61  1  0
 23 62  1  0
 24 25  1  0
 24 63  1  0
 24 64  1  0
 25 26  1  1
 25 27  1  0
 26 65  1  0
 26 66  1  0
 26 67  1  0
 27 28  1  0
 27 68  1  6
 28 69  1  0
 29 30  1  0
 30 31  1  0
 30 70  1  6
 31 32  1  0
 31 71  1  1
 32 72  1  0
M  CHG  1  10   1
M  END
>  <i_m_ct_stereo_status>  (403) 
1

>  <s_m_source_file>  (403) 
/var/tmp/pbs.5076255.sched01/tmpgahbdy6u/1388ql836nh.sdf

>  <i_m_source_file_index>  (403) 
25

>  <i_lp_mmshare_version>  (403) 
48012

>  <i_f3d_flags>  (403) 
0

>  <s_epik_input>  (403) 
W0NIM11PW0NAQEhdMVtDSDJdW0NAXShbT0hdKShbQ0BASF0oW09IXSlbQ0BASF0yW0NAQF0xMzQpW0NAQEhdNFtDQEBIXShbT0hdKVtDSF01W0NAQEhdNltDSDJdW0NASF0oW0NASF0oW0NIMl1bT0hdKVtDSDJdTjJbQ0gzXSlbQ0BAXShbQ0gzXSkoW0NASF02W09IXSlbQ0gyXU4oW0NIM10pW0NAQEhdM1tDSDJdNQ==

>  <s_epik_cmdline>  (403) 
J2VwaWtfcHl0aG9uJywgJy1waHQnLCAnMi4wJywgJy1waCcsICc3LjAnLCAnLXRuJywgJzgnLCAnLW1hJywgJzIwMCcsICctaW1hZScsICc8aW5maWxlLm1hZT4nLCAnLW9tYWUnLCAnPG91dGZpbGUubWFlPic=

>  <r_epik_Ionization_Penalty>  (403) 
2.22009

>  <r_epik_Ionization_Penalty_Charging>  (403) 
0.00887587

>  <r_epik_Ionization_Penalty_Neutral>  (403) 
2.21122

>  <r_epik_State_Penalty>  (403) 
2.46133

>  <r_epik_Charging_Adjusted_Penalty>  (403) 
2.47021

>  <i_epik_Tot_Q>  (403) 
1

>  <i_epik_Tot_abs_Q>  (403) 
1

>  <s_lp_Force_Field>  (403) 
OPLS3e

>  <r_lp_Energy>  (403) 
166.37

>  <b_lp_Chiralities_Consistent>  (403) 
1

>  <s_lp_Variant>  (403) 
98:0-6

>  <s_i_glide_gridfile>  (403) 
pfpi4k_grid

>  <i_i_glide_lignum>  (403) 
25

>  <i_i_glide_rotatable_bonds>  (403) 
7

>  <r_i_docking_score>  (403) 
-2.75916

>  <r_i_glide_ligand_efficiency>  (403) 
-0.0862239

>  <r_i_glide_ligand_efficiency_sa>  (403) 
-0.273744

>  <r_i_glide_ligand_efficiency_ln>  (403) 
-0.617852

>  <r_i_glide_gscore>  (403) 
-2.75916

>  <r_i_glide_lipo>  (403) 
-0.00908195

>  <r_i_glide_hbond>  (403) 
-0.16

>  <r_i_glide_metal>  (403) 
-0

>  <r_i_glide_rewards>  (403) 
-0.316417

>  <r_i_glide_evdw>  (403) 
-18.377

>  <r_i_glide_ecoul>  (403) 
-9.68256

>  <r_i_glide_erotb>  (403) 
0.0975687

>  <r_i_glide_esite>  (403) 
0

>  <r_i_glide_emodel>  (403) 
-32.588

>  <r_i_glide_energy>  (403) 
-28.0596

>  <r_i_glide_einternal>  (403) 
0.551959

>  <r_i_glide_intrahb_reward>  (403) 
-0

>  <i_i_glide_confnum>  (403) 
5

>  <i_i_glide_posenum>  (403) 
10

>  <r_i_glide_eff_state_penalty>  (403) 
0

>  <ligand_id>  (403) 
98

>  <original_smiles>  (403) 
COC1CC2(O)C(O)C3N(C)CC(CO)C4CC5C6CC(N(C)CC4(C)C5O)C13C2C6O

>  <smiles>  (403) 
[H]OC([H])([H])C1([H])C2([H])C([H])([H])C3([H])C([H])(O[H])C2(C([H])([H])[H])C([H])([H])N(C([H])([H])[H])C2([H])C([H])([H])C3([H])C([H])(O[H])C3([H])C4(O[H])C([H])([H])C([H])(OC([H])([H])[H])C23C([H])(C4([H])O[H])[N+]([H])(C([H])([H])[H])C1([H])[H]

$$$$
99:0:0
     RDKit          3D

 88 94  0  0  1  0  0  0  0  0999 V2000
    3.7571   -2.5174    7.4981 C   0  0  0  0  0  0  0  0  0  0  0  0
    3.4874   -2.4818    6.0853 O   0  0  0  0  0  0  0  0  0  0  0  0
    2.8430   -3.5911    5.4286 C   0  0  2  0  0  0  0  0  0  0  0  0
    3.5410   -4.8796    5.9527 C   0  0  0  0  0  0  0  0  0  0  0  0
    3.4193   -6.1760    5.0911 C   0  0  1  0  0  0  0  0  0  0  0  0
    2.0346   -6.8984    5.3233 C   0  0  2  0  0  0  0  0  0  0  0  0
    2.0674   -7.8429    6.5725 C   0  0  0  0  0  0  0  0  0  0  0  0
    2.2186   -7.1688    7.9409 C   0  0  0  0  0  0  0  0  0  0  0  0
    3.0098   -9.0547    6.4476 C   0  0  0  0  0  0  0  0  0  0  0  0
    1.4137   -7.6072    4.0810 C   0  0  1  0  0  0  0  0  0  0  0  0
    0.4062   -8.7831    4.1781 C   0  0  0  0  0  0  0  0  0  0  0  0
    0.8441   -6.2372    3.7070 C   0  0  2  0  0  0  0  0  0  0  0  0
    1.5968   -5.2932    2.7457 C   0  0  0  0  0  0  0  0  0  0  0  0
    3.0841   -4.7211    2.9405 C   0  0  2  0  0  0  0  0  0  0  0  0
    3.5481   -4.4423    1.4907 C   0  0  0  0  0  0  0  0  0  0  0  0
    4.8757   -4.2563    1.1125 N   0  0  0  0  0  0  0  0  0  0  0  0
    4.8635   -3.8953   -0.1418 N   0  0  0  0  0  0  0  0  0  0  0  0
    3.5629   -3.8918   -0.5149 N   0  0  0  0  0  0  0  0  0  0  0  0
    3.1383   -3.6700   -1.8658 C   0  0  0  0  0  0  0  0  0  0  0  0
    3.0167   -2.2460   -2.1428 N   0  0  0  0  0  0  0  0  0  0  0  0
    3.6075   -1.6315   -3.1694 C   0  0  0  0  0  0  0  0  0  0  0  0
    3.2177   -0.1909   -3.4252 C   0  0  0  0  0  0  0  0  0  0  0  0
    4.4090   -2.1890   -3.9228 O   0  0  0  0  0  0  0  0  0  0  0  0
    2.7209   -4.1692    0.4985 N   0  0  0  0  0  0  0  0  0  0  0  0
    3.9678   -5.8551    3.6265 C   0  0  1  0  0  0  0  0  0  0  0  0
    5.3574   -5.3913    3.9091 N   0  0  0  0  0  0  0  0  0  0  0  0
    6.3320   -6.2755    3.7324 C   0  0  0  0  0  0  0  0  0  0  0  0
    7.5211   -6.1788    4.0784 O   0  0  0  0  0  0  0  0  0  0  0  0
    5.7470   -7.3526    2.9330 C   0  0  0  0  0  0  0  0  0  0  0  0
    6.4436   -8.3413    2.3401 N   0  0  0  0  0  0  0  0  0  0  0  0
    5.7679   -9.0784    1.4334 C   0  0  0  0  0  0  0  0  0  0  0  0
    4.4465   -8.7828    1.0376 C   0  0  0  0  0  0  0  0  0  0  0  0
    3.7549   -7.7318    1.6718 C   0  0  0  0  0  0  0  0  0  0  0  0
    4.4032   -7.0492    2.7304 C   0  0  0  0  0  0  0  0  0  0  0  0
    3.0994   -3.3534    3.8574 C   0  0  0  0  0  0  0  0  0  0  0  0
    2.0731   -2.3123    3.3209 C   0  0  0  0  0  0  0  0  0  0  0  0
    4.4527   -2.5450    3.7407 C   0  0  0  0  0  0  0  0  0  0  0  0
    0.7459   -6.0521    5.2064 C   0  0  2  0  0  0  0  0  0  0  0  0
    0.5353   -4.6381    5.7152 C   0  0  0  0  0  0  0  0  0  0  0  0
    1.3303   -3.5778    5.8310 C   0  0  0  0  0  0  0  0  0  0  0  0
    0.7004   -2.2738    6.4384 C   0  0  0  0  0  0  0  0  0  0  0  0
    0.3781   -2.3603    7.9755 C   0  0  0  0  0  0  0  0  0  0  0  0
   -0.6069   -1.8482    5.7266 C   0  0  0  0  0  0  0  0  0  0  0  0
    3.7902   -1.4771    7.8566 H   0  0  0  0  0  0  0  0  0  0  0  0
    4.7435   -2.9609    7.7122 H   0  0  0  0  0  0  0  0  0  0  0  0
    3.0221   -3.0646    8.0289 H   0  0  0  0  0  0  0  0  0  0  0  0
    4.5947   -4.6597    6.1208 H   0  0  0  0  0  0  0  0  0  0  0  0
    3.1928   -5.0648    6.9591 H   0  0  0  0  0  0  0  0  0  0  0  0
    4.1684   -6.8479    5.5088 H   0  0  0  0  0  0  0  0  0  0  0  0
    1.0794   -8.2847    6.6389 H   0  0  0  0  0  0  0  0  0  0  0  0
    3.2540   -6.9000    8.1422 H   0  0  0  0  0  0  0  0  0  0  0  0
    1.9161   -7.8586    8.7300 H   0  0  0  0  0  0  0  0  0  0  0  0
    1.5863   -6.2857    8.0343 H   0  0  0  0  0  0  0  0  0  0  0  0
    4.0525   -8.7848    6.6049 H   0  0  0  0  0  0  0  0  0  0  0  0
    2.9344   -9.5480    5.4794 H   0  0  0  0  0  0  0  0  0  0  0  0
    2.7514   -9.8031    7.1996 H   0  0  0  0  0  0  0  0  0  0  0  0
    2.1963   -7.9317    3.4424 H   0  0  0  0  0  0  0  0  0  0  0  0
   -0.4480   -8.5772    4.8248 H   0  0  0  0  0  0  0  0  0  0  0  0
    0.8820   -9.6823    4.5565 H   0  0  0  0  0  0  0  0  0  0  0  0
    0.0104   -9.0424    3.1978 H   0  0  0  0  0  0  0  0  0  0  0  0
   -0.1546   -6.3914    3.3122 H   0  0  0  0  0  0  0  0  0  0  0  0
    1.5804   -5.8888    1.8388 H   0  0  0  0  0  0  0  0  0  0  0  0
    0.9328   -4.4852    2.4779 H   0  0  0  0  0  0  0  0  0  0  0  0
    3.8357   -4.1871   -2.5464 H   0  0  0  0  0  0  0  0  0  0  0  0
    2.1582   -4.1228   -2.0260 H   0  0  0  0  0  0  0  0  0  0  0  0
    2.3642   -1.7354   -1.5558 H   0  0  0  0  0  0  0  0  0  0  0  0
    2.4440    0.1264   -2.7278 H   0  0  0  0  0  0  0  0  0  0  0  0
    2.8163   -0.0918   -4.4318 H   0  0  0  0  0  0  0  0  0  0  0  0
    4.0804    0.4681   -3.3262 H   0  0  0  0  0  0  0  0  0  0  0  0
    5.5304   -4.4815    4.3076 H   0  0  0  0  0  0  0  0  0  0  0  0
    6.3061   -9.9017    0.9820 H   0  0  0  0  0  0  0  0  0  0  0  0
    3.9718   -9.3672    0.2718 H   0  0  0  0  0  0  0  0  0  0  0  0
    2.7567   -7.4884    1.3557 H   0  0  0  0  0  0  0  0  0  0  0  0
    2.2870   -2.0312    2.2881 H   0  0  0  0  0  0  0  0  0  0  0  0
    2.0955   -1.3985    3.9168 H   0  0  0  0  0  0  0  0  0  0  0  0
    1.0377   -2.6392    3.3596 H   0  0  0  0  0  0  0  0  0  0  0  0
    4.8211   -2.4040    2.7286 H   0  0  0  0  0  0  0  0  0  0  0  0
    5.2511   -2.9657    4.3483 H   0  0  0  0  0  0  0  0  0  0  0  0
    4.3386   -1.5197    4.1084 H   0  0  0  0  0  0  0  0  0  0  0  0
   -0.1087   -6.6176    5.5975 H   0  0  0  0  0  0  0  0  0  0  0  0
   -0.4911   -4.5373    6.0321 H   0  0  0  0  0  0  0  0  0  0  0  0
    1.3852   -1.4412    6.2722 H   0  0  0  0  0  0  0  0  0  0  0  0
    1.2009   -2.5405    8.6374 H   0  0  0  0  0  0  0  0  0  0  0  0
   -0.3883   -3.1356    8.1527 H   0  0  0  0  0  0  0  0  0  0  0  0
   -0.0581   -1.3977    8.2937 H   0  0  0  0  0  0  0  0  0  0  0  0
   -0.4583   -1.5772    4.6810 H   0  0  0  0  0  0  0  0  0  0  0  0
   -1.0424   -0.9737    6.2174 H   0  0  0  0  0  0  0  0  0  0  0  0
   -1.3882   -2.6116    5.7617 H   0  0  0  0  0  0  0  0  0  0  0  0
  1  2  1  0
  1 44  1  0
  1 45  1  0
  1 46  1  0
  3  2  1  1
  3 35  1  0
  3 40  1  0
  3  4  1  0
  4  5  1  0
  4 47  1  0
  4 48  1  0
  5 25  1  0
  5  6  1  0
  5 49  1  1
  6 38  1  0
  6  7  1  1
  6 10  1  0
  7  8  1  0
  7  9  1  0
  7 50  1  0
  8 51  1  0
  8 52  1  0
  8 53  1  0
  9 54  1  0
  9 55  1  0
  9 56  1  0
 10 11  1  0
 10 12  1  0
 10 57  1  6
 11 58  1  0
 11 59  1  0
 11 60  1  0
 12 13  1  0
 12 38  1  0
 12 61  1  6
 13 14  1  0
 13 62  1  0
 13 63  1  0
 14 15  1  6
 14 25  1  0
 14 35  1  0
 15 24  2  0
 15 16  1  0
 16 17  2  0
 17 18  1  0
 18 19  1  0
 18 24  1  0
 19 20  1  0
 19 64  1  0
 19 65  1  0
 20 21  1  0
 20 66  1  0
 21 22  1  0
 21 23  2  0
 22 67  1  0
 22 68  1  0
 22 69  1  0
 25 34  1  0
 25 26  1  1
 26 27  1  0
 26 70  1  0
 27 28  2  0
 27 29  1  0
 29 34  2  0
 29 30  1  0
 30 31  2  0
 31 32  1  0
 31 71  1  0
 32 33  2  0
 32 72  1  0
 33 34  1  0
 33 73  1  0
 35 36  1  0
 35 37  1  0
 36 74  1  0
 36 75  1  0
 36 76  1  0
 37 77  1  0
 37 78  1  0
 37 79  1  0
 38 39  1  0
 38 80  1  1
 39 40  2  0
 39 81  1  0
 40 41  1  0
 41 42  1  0
 41 43  1  0
 41 82  1  0
 42 83  1  0
 42 84  1  0
 42 85  1  0
 43 86  1  0
 43 87  1  0
 43 88  1  0
M  END
>  <i_m_ct_stereo_status>  (404) 
1

>  <s_m_source_file>  (404) 
/var/tmp/pbs.5076255.sched01/tmpgahbdy6u/1388ql836nh.sdf

>  <i_m_source_file_index>  (404) 
26

>  <i_lp_mmshare_version>  (404) 
48012

>  <i_f3d_flags>  (404) 
0

>  <s_epik_input>  (404) 
W0NIM11DKD1PKVtOSF1bQ0gyXW4objEpbm5jMVtDQEBdMihDKFtDSDNdKShbQ0gzXSlbQ0BAXShbQ0gyXTMpKE9bQ0gzXSlDKD1bQ0hdNClbQ0hdKFtDSDNdKVtDSDNdKVtDSDJdW0NAQEhdKFtDQEBIXTVbQ0gzXSlbQ0BIXTRbQ0BdNShbQ0hdKFtDSDNdKVtDSDNdKVtDQEhdM1tDQEBdMjZjN2MoQyg9TylbTkhdNiluW2NIXVtjSF1bY0hdNw==

>  <s_epik_cmdline>  (404) 
J2VwaWtfcHl0aG9uJywgJy1waHQnLCAnMi4wJywgJy1waCcsICc3LjAnLCAnLXRuJywgJzgnLCAnLW1hJywgJzIwMCcsICctaW1hZScsICc8aW5maWxlLm1hZT4nLCAnLW9tYWUnLCAnPG91dGZpbGUubWFlPic=

>  <r_lp_tautomer_probability>  (404) 
1

>  <r_epik_Ionization_Penalty>  (404) 
0.00359269

>  <r_epik_Ionization_Penalty_Charging>  (404) 
0

>  <r_epik_Ionization_Penalty_Neutral>  (404) 
0.00359269

>  <r_epik_State_Penalty>  (404) 
-0

>  <r_epik_Charging_Adjusted_Penalty>  (404) 
0

>  <i_epik_Tot_Q>  (404) 
0

>  <i_epik_Tot_abs_Q>  (404) 
0

>  <s_epik_Chemistry_Notes>  (404) 
This compound contains an acetal/aminal-like group ( X-CH(R)-Y where X, Y are N, S, or O) that may be acid/base labile, releasing an aldehyde.

>  <s_lp_Force_Field>  (404) 
OPLS3e

>  <r_lp_Energy>  (404) 
125.472

>  <b_lp_Chiralities_Consistent>  (404) 
1

>  <s_lp_Variant>  (404) 
99:0-1

>  <s_i_glide_gridfile>  (404) 
pfpi4k_grid

>  <i_i_glide_lignum>  (404) 
26

>  <i_i_glide_rotatable_bonds>  (404) 
7

>  <r_i_docking_score>  (404) 
-3.27654

>  <r_i_glide_ligand_efficiency>  (404) 
-0.0761986

>  <r_i_glide_ligand_efficiency_sa>  (404) 
-0.266954

>  <r_i_glide_ligand_efficiency_ln>  (404) 
-0.688175

>  <r_i_glide_gscore>  (404) 
-3.27654

>  <r_i_glide_lipo>  (404) 
-0.190321

>  <r_i_glide_hbond>  (404) 
-0.317605

>  <r_i_glide_metal>  (404) 
-0

>  <r_i_glide_rewards>  (404) 
-0.133364

>  <r_i_glide_evdw>  (404) 
-32.0567

>  <r_i_glide_ecoul>  (404) 
-6.89703

>  <r_i_glide_erotb>  (404) 
0.0754512

>  <r_i_glide_esite>  (404) 
-0.0733122

>  <r_i_glide_emodel>  (404) 
-44.548

>  <r_i_glide_energy>  (404) 
-38.9537

>  <r_i_glide_einternal>  (404) 
2.85837

>  <r_i_glide_intrahb_reward>  (404) 
-0

>  <i_i_glide_confnum>  (404) 
3

>  <i_i_glide_posenum>  (404) 
9

>  <r_i_glide_eff_state_penalty>  (404) 
0

>  <ligand_id>  (404) 
99

>  <original_smiles>  (404) 
COC12CC3C4(C(C)C)C(C)C(CC(c5nnn(CNC(C)=O)n5)(C35NC(=O)c3ncccc35)C1(C)C)C4C=C2C(C)C

>  <smiles>  (404) 
[H]C1=C(C([H])(C([H])([H])[H])C([H])([H])[H])C2(OC([H])([H])[H])C([H])([H])C3([H])C4(c5c(nc([H])c([H])c5[H])C(=O)N4[H])C(c4nnn(C([H])([H])N([H])C(=O)C([H])([H])[H])n4)(C([H])([H])C4([H])C1([H])C3(C([H])(C([H])([H])[H])C([H])([H])[H])C4([H])C([H])([H])[H])C2(C([H])([H])[H])C([H])([H])[H]

$$$$
99:0:1
     RDKit          3D

 88 94  0  0  1  0  0  0  0  0999 V2000
    7.0918   -7.8913    6.0604 C   0  0  0  0  0  0  0  0  0  0  0  0
    6.4228   -7.0366    5.1295 O   0  0  0  0  0  0  0  0  0  0  0  0
    5.0872   -6.5666    5.3915 C   0  0  2  0  0  0  0  0  0  0  0  0
    4.2759   -7.7927    5.8821 C   0  0  0  0  0  0  0  0  0  0  0  0
    2.7249   -7.7278    5.7674 C   0  0  1  0  0  0  0  0  0  0  0  0
    2.0794   -6.8888    6.9326 C   0  0  2  0  0  0  0  0  0  0  0  0
    1.8486   -7.7631    8.2178 C   0  0  0  0  0  0  0  0  0  0  0  0
    3.1042   -8.2649    8.9410 C   0  0  0  0  0  0  0  0  0  0  0  0
    0.8138   -8.8964    8.0592 C   0  0  0  0  0  0  0  0  0  0  0  0
    0.8055   -6.0483    6.5841 C   0  0  1  0  0  0  0  0  0  0  0  0
   -0.2533   -5.6213    7.6182 C   0  0  0  0  0  0  0  0  0  0  0  0
    1.7695   -4.9624    6.0599 C   0  0  2  0  0  0  0  0  0  0  0  0
    2.1916   -4.8657    4.5678 C   0  0  0  0  0  0  0  0  0  0  0  0
    2.9311   -6.0266    3.7720 C   0  0  2  0  0  0  0  0  0  0  0  0
    2.5771   -5.7136    2.2851 C   0  0  0  0  0  0  0  0  0  0  0  0
    1.8254   -6.4774    1.4232 N   0  0  0  0  0  0  0  0  0  0  0  0
    1.8026   -5.8612    0.2920 N   0  0  0  0  0  0  0  0  0  0  0  0
    2.5457   -4.7609    0.4357 N   0  0  0  0  0  0  0  0  0  0  0  0
    2.9276   -3.9044   -0.6812 C   0  0  0  0  0  0  0  0  0  0  0  0
    3.0189   -2.5045   -0.2912 N   0  0  0  0  0  0  0  0  0  0  0  0
    4.1205   -1.9206    0.2014 C   0  0  0  0  0  0  0  0  0  0  0  0
    3.9887   -0.4580    0.6419 C   0  0  0  0  0  0  0  0  0  0  0  0
    5.2006   -2.4907    0.3171 O   0  0  0  0  0  0  0  0  0  0  0  0
    2.9723   -4.5870    1.7091 N   0  0  0  0  0  0  0  0  0  0  0  0
    2.3438   -7.4427    4.2393 C   0  0  1  0  0  0  0  0  0  0  0  0
    2.9974   -8.5770    3.5284 N   0  0  0  0  0  0  0  0  0  0  0  0
    2.2311   -9.6255    3.2232 C   0  0  0  0  0  0  0  0  0  0  0  0
    2.5924  -10.7289    2.8263 O   0  0  0  0  0  0  0  0  0  0  0  0
    0.8522   -9.1445    3.3579 C   0  0  0  0  0  0  0  0  0  0  0  0
   -0.2272   -9.7711    2.8675 N   0  0  0  0  0  0  0  0  0  0  0  0
   -1.3639   -9.0530    2.7793 C   0  0  0  0  0  0  0  0  0  0  0  0
   -1.4202   -7.6797    3.0977 C   0  0  0  0  0  0  0  0  0  0  0  0
   -0.2597   -7.0536    3.5978 C   0  0  0  0  0  0  0  0  0  0  0  0
    0.8938   -7.8351    3.8198 C   0  0  0  0  0  0  0  0  0  0  0  0
    4.5619   -6.0106    3.9640 C   0  0  0  0  0  0  0  0  0  0  0  0
    5.1827   -4.5790    3.7729 C   0  0  0  0  0  0  0  0  0  0  0  0
    5.2849   -6.8368    2.8377 C   0  0  0  0  0  0  0  0  0  0  0  0
    2.6442   -5.4754    7.2075 C   0  0  2  0  0  0  0  0  0  0  0  0
    4.1055   -5.0744    7.2105 C   0  0  0  0  0  0  0  0  0  0  0  0
    5.1703   -5.4701    6.4926 C   0  0  0  0  0  0  0  0  0  0  0  0
    6.5313   -4.7765    6.8143 C   0  0  0  0  0  0  0  0  0  0  0  0
    7.1582   -5.1656    8.1960 C   0  0  0  0  0  0  0  0  0  0  0  0
    6.4562   -3.2319    6.8068 C   0  0  0  0  0  0  0  0  0  0  0  0
    8.1700   -7.7242    5.9616 H   0  0  0  0  0  0  0  0  0  0  0  0
    6.9001   -8.9390    5.8769 H   0  0  0  0  0  0  0  0  0  0  0  0
    6.8000   -7.6651    7.0834 H   0  0  0  0  0  0  0  0  0  0  0  0
    4.6340   -8.6783    5.3670 H   0  0  0  0  0  0  0  0  0  0  0  0
    4.5649   -7.9915    6.9068 H   0  0  0  0  0  0  0  0  0  0  0  0
    2.4013   -8.7524    5.9324 H   0  0  0  0  0  0  0  0  0  0  0  0
    1.4062   -7.1006    8.9588 H   0  0  0  0  0  0  0  0  0  0  0  0
    3.5301   -9.1376    8.4461 H   0  0  0  0  0  0  0  0  0  0  0  0
    2.8511   -8.5735    9.9552 H   0  0  0  0  0  0  0  0  0  0  0  0
    3.8628   -7.4863    9.0269 H   0  0  0  0  0  0  0  0  0  0  0  0
    1.2206   -9.7578    7.5287 H   0  0  0  0  0  0  0  0  0  0  0  0
   -0.0862   -8.5761    7.5336 H   0  0  0  0  0  0  0  0  0  0  0  0
    0.5023   -9.2503    9.0432 H   0  0  0  0  0  0  0  0  0  0  0  0
    0.2750   -6.5458    5.8034 H   0  0  0  0  0  0  0  0  0  0  0  0
    0.1607   -5.1113    8.4887 H   0  0  0  0  0  0  0  0  0  0  0  0
   -0.8040   -6.4724    8.0000 H   0  0  0  0  0  0  0  0  0  0  0  0
   -0.9901   -4.9532    7.1754 H   0  0  0  0  0  0  0  0  0  0  0  0
    1.3665   -3.9920    6.3677 H   0  0  0  0  0  0  0  0  0  0  0  0
    1.2853   -4.6464    4.0141 H   0  0  0  0  0  0  0  0  0  0  0  0
    2.7111   -3.9291    4.4220 H   0  0  0  0  0  0  0  0  0  0  0  0
    3.8623   -4.2680   -1.1246 H   0  0  0  0  0  0  0  0  0  0  0  0
    2.1704   -3.9943   -1.4607 H   0  0  0  0  0  0  0  0  0  0  0  0
    2.1753   -1.9311   -0.3971 H   0  0  0  0  0  0  0  0  0  0  0  0
    2.9802   -0.0797    0.4856 H   0  0  0  0  0  0  0  0  0  0  0  0
    4.6916    0.1434    0.0764 H   0  0  0  0  0  0  0  0  0  0  0  0
    4.2267   -0.3691    1.6976 H   0  0  0  0  0  0  0  0  0  0  0  0
    3.9971   -8.6190    3.4236 H   0  0  0  0  0  0  0  0  0  0  0  0
   -2.2443   -9.5728    2.4255 H   0  0  0  0  0  0  0  0  0  0  0  0
   -2.3225   -7.1301    2.9346 H   0  0  0  0  0  0  0  0  0  0  0  0
   -0.2715   -5.9963    3.7757 H   0  0  0  0  0  0  0  0  0  0  0  0
    5.1063   -4.1732    2.7638 H   0  0  0  0  0  0  0  0  0  0  0  0
    6.2558   -4.6209    3.9462 H   0  0  0  0  0  0  0  0  0  0  0  0
    4.7843   -3.8333    4.4613 H   0  0  0  0  0  0  0  0  0  0  0  0
    4.8688   -6.6977    1.8426 H   0  0  0  0  0  0  0  0  0  0  0  0
    5.3110   -7.9071    3.0323 H   0  0  0  0  0  0  0  0  0  0  0  0
    6.3350   -6.5623    2.7515 H   0  0  0  0  0  0  0  0  0  0  0  0
    2.2699   -5.1146    8.1659 H   0  0  0  0  0  0  0  0  0  0  0  0
    4.2601   -4.3116    7.9633 H   0  0  0  0  0  0  0  0  0  0  0  0
    7.2430   -5.0117    6.0302 H   0  0  0  0  0  0  0  0  0  0  0  0
    7.3954   -6.2257    8.3513 H   0  0  0  0  0  0  0  0  0  0  0  0
    6.5085   -4.8507    9.0129 H   0  0  0  0  0  0  0  0  0  0  0  0
    8.1051   -4.6377    8.3280 H   0  0  0  0  0  0  0  0  0  0  0  0
    6.2056   -2.8105    5.8317 H   0  0  0  0  0  0  0  0  0  0  0  0
    7.4160   -2.7884    7.0983 H   0  0  0  0  0  0  0  0  0  0  0  0
    5.7387   -2.8261    7.5266 H   0  0  0  0  0  0  0  0  0  0  0  0
  1  2  1  0
  1 44  1  0
  1 45  1  0
  1 46  1  0
  3  2  1  6
  3 35  1  0
  3 40  1  0
  3  4  1  0
  4  5  1  0
  4 47  1  0
  4 48  1  0
  5 25  1  0
  5  6  1  0
  5 49  1  1
  6 38  1  0
  6  7  1  1
  6 10  1  0
  7  8  1  0
  7  9  1  0
  7 50  1  0
  8 51  1  0
  8 52  1  0
  8 53  1  0
  9 54  1  0
  9 55  1  0
  9 56  1  0
 10 11  1  0
 10 12  1  0
 10 57  1  6
 11 58  1  0
 11 59  1  0
 11 60  1  0
 12 13  1  0
 12 38  1  0
 12 61  1  1
 13 14  1  0
 13 62  1  0
 13 63  1  0
 14 15  1  6
 14 25  1  0
 14 35  1  0
 15 24  2  0
 15 16  1  0
 16 17  2  0
 17 18  1  0
 18 19  1  0
 18 24  1  0
 19 20  1  0
 19 64  1  0
 19 65  1  0
 20 21  1  0
 20 66  1  0
 21 22  1  0
 21 23  2  0
 22 67  1  0
 22 68  1  0
 22 69  1  0
 25 34  1  0
 25 26  1  6
 26 27  1  0
 26 70  1  0
 27 28  2  0
 27 29  1  0
 29 34  2  0
 29 30  1  0
 30 31  2  0
 31 32  1  0
 31 71  1  0
 32 33  2  0
 32 72  1  0
 33 34  1  0
 33 73  1  0
 35 36  1  0
 35 37  1  0
 36 74  1  0
 36 75  1  0
 36 76  1  0
 37 77  1  0
 37 78  1  0
 37 79  1  0
 38 39  1  0
 38 80  1  1
 39 40  2  0
 39 81  1  0
 40 41  1  0
 41 42  1  0
 41 43  1  0
 41 82  1  0
 42 83  1  0
 42 84  1  0
 42 85  1  0
 43 86  1  0
 43 87  1  0
 43 88  1  0
M  END
>  <i_m_ct_stereo_status>  (405) 
1

>  <s_m_source_file>  (405) 
/var/tmp/pbs.5076255.sched01/tmpgahbdy6u/1388ql836nh.sdf

>  <i_m_source_file_index>  (405) 
26

>  <i_lp_mmshare_version>  (405) 
48012

>  <i_f3d_flags>  (405) 
0

>  <s_epik_input>  (405) 
W0NIM11DKD1PKVtOSF1bQ0gyXW4objEpbm5jMVtDQEBdMihDKFtDSDNdKShbQ0gzXSlbQ0BAXShbQ0gyXTMpKE9bQ0gzXSlDKD1bQ0hdNClbQ0hdKFtDSDNdKVtDSDNdKVtDSDJdW0NAQEhdKFtDQEBIXTVbQ0gzXSlbQ0BIXTRbQ0BdNShbQ0hdKFtDSDNdKVtDSDNdKVtDQEhdM1tDQEBdMjZjN2MoQyg9TylbTkhdNiluW2NIXVtjSF1bY0hdNw==

>  <s_epik_cmdline>  (405) 
J2VwaWtfcHl0aG9uJywgJy1waHQnLCAnMi4wJywgJy1waCcsICc3LjAnLCAnLXRuJywgJzgnLCAnLW1hJywgJzIwMCcsICctaW1hZScsICc8aW5maWxlLm1hZT4nLCAnLW9tYWUnLCAnPG91dGZpbGUubWFlPic=

>  <r_lp_tautomer_probability>  (405) 
1

>  <r_epik_Ionization_Penalty>  (405) 
0.00359269

>  <r_epik_Ionization_Penalty_Charging>  (405) 
0

>  <r_epik_Ionization_Penalty_Neutral>  (405) 
0.00359269

>  <r_epik_State_Penalty>  (405) 
-0

>  <r_epik_Charging_Adjusted_Penalty>  (405) 
0

>  <i_epik_Tot_Q>  (405) 
0

>  <i_epik_Tot_abs_Q>  (405) 
0

>  <s_epik_Chemistry_Notes>  (405) 
This compound contains an acetal/aminal-like group ( X-CH(R)-Y where X, Y are N, S, or O) that may be acid/base labile, releasing an aldehyde.

>  <s_lp_Force_Field>  (405) 
OPLS3e

>  <r_lp_Energy>  (405) 
125.472

>  <b_lp_Chiralities_Consistent>  (405) 
1

>  <s_lp_Variant>  (405) 
99:0-1

>  <s_i_glide_gridfile>  (405) 
pfpi4k_grid

>  <i_i_glide_lignum>  (405) 
26

>  <i_i_glide_rotatable_bonds>  (405) 
7

>  <r_i_docking_score>  (405) 
-2.67963

>  <r_i_glide_ligand_efficiency>  (405) 
-0.062317

>  <r_i_glide_ligand_efficiency_sa>  (405) 
-0.218321

>  <r_i_glide_ligand_efficiency_ln>  (405) 
-0.562806

>  <r_i_glide_gscore>  (405) 
-2.67963

>  <r_i_glide_lipo>  (405) 
-0.132406

>  <r_i_glide_hbond>  (405) 
-0.16

>  <r_i_glide_metal>  (405) 
-0

>  <r_i_glide_rewards>  (405) 
0

>  <r_i_glide_evdw>  (405) 
-32.8571

>  <r_i_glide_ecoul>  (405) 
-3.61956

>  <r_i_glide_erotb>  (405) 
0.0754512

>  <r_i_glide_esite>  (405) 
-0.276888

>  <r_i_glide_emodel>  (405) 
-39.7447

>  <r_i_glide_energy>  (405) 
-36.4767

>  <r_i_glide_einternal>  (405) 
3.35029

>  <r_i_glide_intrahb_reward>  (405) 
-0

>  <i_i_glide_confnum>  (405) 
1

>  <i_i_glide_posenum>  (405) 
28

>  <r_i_glide_eff_state_penalty>  (405) 
0

>  <ligand_id>  (405) 
99

>  <original_smiles>  (405) 
COC12CC3C4(C(C)C)C(C)C(CC(c5nnn(CNC(C)=O)n5)(C35NC(=O)c3ncccc35)C1(C)C)C4C=C2C(C)C

>  <smiles>  (405) 
[H]C1=C(C([H])(C([H])([H])[H])C([H])([H])[H])C2(OC([H])([H])[H])C([H])([H])C3([H])C4(c5c(nc([H])c([H])c5[H])C(=O)N4[H])C(c4nnn(C([H])([H])N([H])C(=O)C([H])([H])[H])n4)(C([H])([H])C4([H])C1([H])C3(C([H])(C([H])([H])[H])C([H])([H])[H])C4([H])C([H])([H])[H])C2(C([H])([H])[H])C([H])([H])[H]

$$$$
99:0:2
     RDKit          3D

 88 94  0  0  1  0  0  0  0  0999 V2000
    7.1491   -8.2592    6.1852 C   0  0  0  0  0  0  0  0  0  0  0  0
    6.5368   -7.3198    5.2960 O   0  0  0  0  0  0  0  0  0  0  0  0
    5.2287   -6.7868    5.5833 C   0  0  2  0  0  0  0  0  0  0  0  0
    4.3575   -8.0003    6.0039 C   0  0  0  0  0  0  0  0  0  0  0  0
    2.8100   -7.8464    5.9001 C   0  0  1  0  0  0  0  0  0  0  0  0
    2.2073   -7.0592    7.1269 C   0  0  2  0  0  0  0  0  0  0  0  0
    1.9277   -8.0081    8.3362 C   0  0  0  0  0  0  0  0  0  0  0  0
    3.1493   -8.6543    8.9981 C   0  0  0  0  0  0  0  0  0  0  0  0
    0.8117   -9.0462    8.1099 C   0  0  0  0  0  0  0  0  0  0  0  0
    0.9891   -6.1348    6.8221 C   0  0  1  0  0  0  0  0  0  0  0  0
   -0.0583   -5.7154    7.8906 C   0  0  0  0  0  0  0  0  0  0  0  0
    2.0016   -5.0695    6.3925 C   0  0  2  0  0  0  0  0  0  0  0  0
    2.4392   -4.8923    4.9050 C   0  0  0  0  0  0  0  0  0  0  0  0
    3.1086   -6.0346    4.0202 C   0  0  2  0  0  0  0  0  0  0  0  0
    2.7664   -5.5873    2.5851 C   0  0  0  0  0  0  0  0  0  0  0  0
    2.3044   -6.4074    1.5649 N   0  0  0  0  0  0  0  0  0  0  0  0
    2.2239   -5.6727    0.4943 N   0  0  0  0  0  0  0  0  0  0  0  0
    2.7154   -4.4592    0.8453 N   0  0  0  0  0  0  0  0  0  0  0  0
    2.8445   -3.3714   -0.0905 C   0  0  0  0  0  0  0  0  0  0  0  0
    3.6833   -3.7536   -1.2269 N   0  0  0  0  0  0  0  0  0  0  0  0
    4.7172   -3.0554   -1.7050 C   0  0  0  0  0  0  0  0  0  0  0  0
    5.4099   -3.6130   -2.9418 C   0  0  0  0  0  0  0  0  0  0  0  0
    5.1153   -1.9985   -1.2143 O   0  0  0  0  0  0  0  0  0  0  0  0
    2.9655   -4.3546    2.1569 N   0  0  0  0  0  0  0  0  0  0  0  0
    2.4465   -7.4406    4.4065 C   0  0  1  0  0  0  0  0  0  0  0  0
    3.0430   -8.5571    3.6306 N   0  0  0  0  0  0  0  0  0  0  0  0
    2.2227   -9.5225    3.2392 C   0  0  0  0  0  0  0  0  0  0  0  0
    2.5264  -10.6156    2.7393 O   0  0  0  0  0  0  0  0  0  0  0  0
    0.8754   -8.9862    3.3973 C   0  0  0  0  0  0  0  0  0  0  0  0
   -0.2319   -9.5352    2.8637 N   0  0  0  0  0  0  0  0  0  0  0  0
   -1.3313   -8.7584    2.8280 C   0  0  0  0  0  0  0  0  0  0  0  0
   -1.3113   -7.4076    3.2345 C   0  0  0  0  0  0  0  0  0  0  0  0
   -0.1300   -6.8612    3.7670 C   0  0  0  0  0  0  0  0  0  0  0  0
    0.9869   -7.7071    3.9400 C   0  0  0  0  0  0  0  0  0  0  0  0
    4.7362   -6.1139    4.2116 C   0  0  0  0  0  0  0  0  0  0  0  0
    5.4217   -4.7172    4.0932 C   0  0  0  0  0  0  0  0  0  0  0  0
    5.4169   -6.8883    3.0265 C   0  0  0  0  0  0  0  0  0  0  0  0
    2.8430   -5.7023    7.4943 C   0  0  2  0  0  0  0  0  0  0  0  0
    4.3248   -5.3768    7.5147 C   0  0  0  0  0  0  0  0  0  0  0  0
    5.3551   -5.7706    6.7680 C   0  0  0  0  0  0  0  0  0  0  0  0
    6.7623   -5.1853    7.1402 C   0  0  0  0  0  0  0  0  0  0  0  0
    7.3237   -5.6673    8.5223 C   0  0  0  0  0  0  0  0  0  0  0  0
    6.7806   -3.6308    7.1696 C   0  0  0  0  0  0  0  0  0  0  0  0
    8.2309   -8.1577    6.0626 H   0  0  0  0  0  0  0  0  0  0  0  0
    6.9029   -9.2980    5.8852 H   0  0  0  0  0  0  0  0  0  0  0  0
    6.8805   -8.0803    7.2091 H   0  0  0  0  0  0  0  0  0  0  0  0
    4.6825   -8.8657    5.4266 H   0  0  0  0  0  0  0  0  0  0  0  0
    4.6460   -8.2848    7.0055 H   0  0  0  0  0  0  0  0  0  0  0  0
    2.4401   -8.8680    5.9984 H   0  0  0  0  0  0  0  0  0  0  0  0
    1.5425   -7.3714    9.1235 H   0  0  0  0  0  0  0  0  0  0  0  0
    3.5047   -9.5143    8.4297 H   0  0  0  0  0  0  0  0  0  0  0  0
    2.8789   -9.0194    9.9875 H   0  0  0  0  0  0  0  0  0  0  0  0
    3.9624   -7.9408    9.1370 H   0  0  0  0  0  0  0  0  0  0  0  0
    1.1527   -9.8846    7.5040 H   0  0  0  0  0  0  0  0  0  0  0  0
   -0.0741   -8.6338    7.6247 H   0  0  0  0  0  0  0  0  0  0  0  0
    0.4954   -9.4483    9.0728 H   0  0  0  0  0  0  0  0  0  0  0  0
    0.4559   -6.5497    6.0142 H   0  0  0  0  0  0  0  0  0  0  0  0
    0.3665   -5.2932    8.8069 H   0  0  0  0  0  0  0  0  0  0  0  0
   -0.6640   -6.5612    8.1944 H   0  0  0  0  0  0  0  0  0  0  0  0
   -0.7589   -4.9800    7.4945 H   0  0  0  0  0  0  0  0  0  0  0  0
    1.6561   -4.1106    6.7591 H   0  0  0  0  0  0  0  0  0  0  0  0
    1.5423   -4.5889    4.3659 H   0  0  0  0  0  0  0  0  0  0  0  0
    3.0005   -3.9675    4.8141 H   0  0  0  0  0  0  0  0  0  0  0  0
    1.8475   -3.1298   -0.4637 H   0  0  0  0  0  0  0  0  0  0  0  0
    3.2088   -2.4818    0.4302 H   0  0  0  0  0  0  0  0  0  0  0  0
    3.4083   -4.6028   -1.7131 H   0  0  0  0  0  0  0  0  0  0  0  0
    4.9545   -4.5429   -3.2897 H   0  0  0  0  0  0  0  0  0  0  0  0
    6.4607   -3.7932   -2.7238 H   0  0  0  0  0  0  0  0  0  0  0  0
    5.3469   -2.8799   -3.7424 H   0  0  0  0  0  0  0  0  0  0  0  0
    4.0394   -8.6403    3.5253 H   0  0  0  0  0  0  0  0  0  0  0  0
   -2.2354   -9.2130    2.4479 H   0  0  0  0  0  0  0  0  0  0  0  0
   -2.1955   -6.8076    3.1274 H   0  0  0  0  0  0  0  0  0  0  0  0
   -0.0836   -5.8176    4.0274 H   0  0  0  0  0  0  0  0  0  0  0  0
    5.3096   -4.2656    3.1083 H   0  0  0  0  0  0  0  0  0  0  0  0
    6.4982   -4.8099    4.2486 H   0  0  0  0  0  0  0  0  0  0  0  0
    5.0692   -3.9994    4.8269 H   0  0  0  0  0  0  0  0  0  0  0  0
    5.0026   -6.6491    2.0515 H   0  0  0  0  0  0  0  0  0  0  0  0
    5.3911   -7.9671    3.1452 H   0  0  0  0  0  0  0  0  0  0  0  0
    6.4835   -6.6611    2.9587 H   0  0  0  0  0  0  0  0  0  0  0  0
    2.4592   -5.3758    8.4705 H   0  0  0  0  0  0  0  0  0  0  0  0
    4.5058   -4.6764    8.3152 H   0  0  0  0  0  0  0  0  0  0  0  0
    7.4751   -5.4402    6.3562 H   0  0  0  0  0  0  0  0  0  0  0  0
    7.4674   -6.7375    8.6333 H   0  0  0  0  0  0  0  0  0  0  0  0
    6.6799   -5.2852    9.3343 H   0  0  0  0  0  0  0  0  0  0  0  0
    8.3000   -5.1786    8.6895 H   0  0  0  0  0  0  0  0  0  0  0  0
    6.5829   -3.1716    6.2003 H   0  0  0  0  0  0  0  0  0  0  0  0
    7.7566   -3.2650    7.4942 H   0  0  0  0  0  0  0  0  0  0  0  0
    6.0719   -3.2136    7.8844 H   0  0  0  0  0  0  0  0  0  0  0  0
  1  2  1  0
  1 44  1  0
  1 45  1  0
  1 46  1  0
  3  2  1  6
  3 35  1  0
  3 40  1  0
  3  4  1  0
  4  5  1  0
  4 47  1  0
  4 48  1  0
  5 25  1  0
  5  6  1  0
  5 49  1  1
  6 38  1  0
  6  7  1  1
  6 10  1  0
  7  8  1  0
  7  9  1  0
  7 50  1  0
  8 51  1  0
  8 52  1  0
  8 53  1  0
  9 54  1  0
  9 55  1  0
  9 56  1  0
 10 11  1  0
 10 12  1  0
 10 57  1  6
 11 58  1  0
 11 59  1  0
 11 60  1  0
 12 13  1  0
 12 38  1  0
 12 61  1  1
 13 14  1  0
 13 62  1  0
 13 63  1  0
 14 15  1  6
 14 25  1  0
 14 35  1  0
 15 24  2  0
 15 16  1  0
 16 17  2  0
 17 18  1  0
 18 19  1  0
 18 24  1  0
 19 20  1  0
 19 64  1  0
 19 65  1  0
 20 21  1  0
 20 66  1  0
 21 22  1  0
 21 23  2  0
 22 67  1  0
 22 68  1  0
 22 69  1  0
 25 34  1  0
 25 26  1  6
 26 27  1  0
 26 70  1  0
 27 28  2  0
 27 29  1  0
 29 34  2  0
 29 30  1  0
 30 31  2  0
 31 32  1  0
 31 71  1  0
 32 33  2  0
 32 72  1  0
 33 34  1  0
 33 73  1  0
 35 36  1  0
 35 37  1  0
 36 74  1  0
 36 75  1  0
 36 76  1  0
 37 77  1  0
 37 78  1  0
 37 79  1  0
 38 39  1  0
 38 80  1  1
 39 40  2  0
 39 81  1  0
 40 41  1  0
 41 42  1  0
 41 43  1  0
 41 82  1  0
 42 83  1  0
 42 84  1  0
 42 85  1  0
 43 86  1  0
 43 87  1  0
 43 88  1  0
M  END
>  <i_m_ct_stereo_status>  (406) 
1

>  <s_m_source_file>  (406) 
/var/tmp/pbs.5076255.sched01/tmpgahbdy6u/1388ql836nh.sdf

>  <i_m_source_file_index>  (406) 
26

>  <i_lp_mmshare_version>  (406) 
48012

>  <i_f3d_flags>  (406) 
0

>  <s_epik_input>  (406) 
W0NIM11DKD1PKVtOSF1bQ0gyXW4objEpbm5jMVtDQEBdMihDKFtDSDNdKShbQ0gzXSlbQ0BAXShbQ0gyXTMpKE9bQ0gzXSlDKD1bQ0hdNClbQ0hdKFtDSDNdKVtDSDNdKVtDSDJdW0NAQEhdKFtDQEBIXTVbQ0gzXSlbQ0BIXTRbQ0BdNShbQ0hdKFtDSDNdKVtDSDNdKVtDQEhdM1tDQEBdMjZjN2MoQyg9TylbTkhdNiluW2NIXVtjSF1bY0hdNw==

>  <s_epik_cmdline>  (406) 
J2VwaWtfcHl0aG9uJywgJy1waHQnLCAnMi4wJywgJy1waCcsICc3LjAnLCAnLXRuJywgJzgnLCAnLW1hJywgJzIwMCcsICctaW1hZScsICc8aW5maWxlLm1hZT4nLCAnLW9tYWUnLCAnPG91dGZpbGUubWFlPic=

>  <r_lp_tautomer_probability>  (406) 
1

>  <r_epik_Ionization_Penalty>  (406) 
0.00359269

>  <r_epik_Ionization_Penalty_Charging>  (406) 
0

>  <r_epik_Ionization_Penalty_Neutral>  (406) 
0.00359269

>  <r_epik_State_Penalty>  (406) 
-0

>  <r_epik_Charging_Adjusted_Penalty>  (406) 
0

>  <i_epik_Tot_Q>  (406) 
0

>  <i_epik_Tot_abs_Q>  (406) 
0

>  <s_epik_Chemistry_Notes>  (406) 
This compound contains an acetal/aminal-like group ( X-CH(R)-Y where X, Y are N, S, or O) that may be acid/base labile, releasing an aldehyde.

>  <s_lp_Force_Field>  (406) 
OPLS3e

>  <r_lp_Energy>  (406) 
125.472

>  <b_lp_Chiralities_Consistent>  (406) 
1

>  <s_lp_Variant>  (406) 
99:0-1

>  <s_i_glide_gridfile>  (406) 
pfpi4k_grid

>  <i_i_glide_lignum>  (406) 
26

>  <i_i_glide_rotatable_bonds>  (406) 
7

>  <r_i_docking_score>  (406) 
-2.58205

>  <r_i_glide_ligand_efficiency>  (406) 
-0.0600476

>  <r_i_glide_ligand_efficiency_sa>  (406) 
-0.210371

>  <r_i_glide_ligand_efficiency_ln>  (406) 
-0.54231

>  <r_i_glide_gscore>  (406) 
-2.58205

>  <r_i_glide_lipo>  (406) 
-0.166719

>  <r_i_glide_hbond>  (406) 
-0.32

>  <r_i_glide_metal>  (406) 
-0

>  <r_i_glide_rewards>  (406) 
-0.00818059

>  <r_i_glide_evdw>  (406) 
-33.2623

>  <r_i_glide_ecoul>  (406) 
-2.51301

>  <r_i_glide_erotb>  (406) 
0.0754512

>  <r_i_glide_esite>  (406) 
-0.122532

>  <r_i_glide_emodel>  (406) 
-40.114

>  <r_i_glide_energy>  (406) 
-35.7753

>  <r_i_glide_einternal>  (406) 
1.93503

>  <r_i_glide_intrahb_reward>  (406) 
-0

>  <i_i_glide_confnum>  (406) 
2

>  <i_i_glide_posenum>  (406) 
20

>  <r_i_glide_eff_state_penalty>  (406) 
0

>  <ligand_id>  (406) 
99

>  <original_smiles>  (406) 
COC12CC3C4(C(C)C)C(C)C(CC(c5nnn(CNC(C)=O)n5)(C35NC(=O)c3ncccc35)C1(C)C)C4C=C2C(C)C

>  <smiles>  (406) 
[H]C1=C(C([H])(C([H])([H])[H])C([H])([H])[H])C2(OC([H])([H])[H])C([H])([H])C3([H])C4(c5c(nc([H])c([H])c5[H])C(=O)N4[H])C(c4nnn(C([H])([H])N([H])C(=O)C([H])([H])[H])n4)(C([H])([H])C4([H])C1([H])C3(C([H])(C([H])([H])[H])C([H])([H])[H])C4([H])C([H])([H])[H])C2(C([H])([H])[H])C([H])([H])[H]

$$$$
101:0:0
     RDKit          3D

 53 58  0  0  1  0  0  0  0  0999 V2000
    3.8093   -0.2730    0.9369 C   0  0  0  0  0  0  0  0  0  0  0  0
    2.7551   -0.3975    2.0138 C   0  0  0  0  0  0  0  0  0  0  0  0
    2.8847   -1.3844    3.0106 C   0  0  0  0  0  0  0  0  0  0  0  0
    1.8717   -1.5391    3.9742 C   0  0  0  0  0  0  0  0  0  0  0  0
    0.7667   -0.6633    4.0072 C   0  0  0  0  0  0  0  0  0  0  0  0
   -0.5154   -0.8800    5.2585 S   0  0  0  0  0  0  0  0  0  0  0  0
   -1.7751   -0.3349    4.7262 O   0  0  0  0  0  0  0  0  0  0  0  0
   -0.4893   -2.2417    5.8028 O   0  0  0  0  0  0  0  0  0  0  0  0
   -0.0397    0.1667    6.5892 N   0  0  0  0  0  0  0  0  0  0  0  0
   -0.9251    1.0565    7.2878 C   0  0  0  0  0  0  0  0  0  0  0  0
   -2.1483    1.0126    7.1957 O   0  0  0  0  0  0  0  0  0  0  0  0
   -0.1451    1.9226    8.2943 C   0  0  2  0  0  0  0  0  0  0  0  0
   -0.8521    1.8621    9.5516 O   0  0  0  0  0  0  0  0  0  0  0  0
   -1.3864    3.0951    9.8085 C   0  0  0  0  0  0  0  0  0  0  0  0
   -2.2721    3.1738   10.8740 N   0  0  0  0  0  0  0  0  0  0  0  0
   -1.0327    4.0133    8.9128 C   0  0  0  0  0  0  0  0  0  0  0  0
   -1.4987    5.3551    8.8758 C   0  0  0  0  0  0  0  0  0  0  0  0
   -1.8490    6.4548    8.8303 N   0  0  0  0  0  0  0  0  0  0  0  0
   -0.0807    3.4501    7.8961 C   0  0  1  0  0  0  0  0  0  0  0  0
    1.3058    4.0781    8.1165 C   0  0  0  0  0  0  0  0  0  0  0  0
    1.8573    4.1564    9.2142 O   0  0  0  0  0  0  0  0  0  0  0  0
    1.8137    4.5224    6.9348 O   0  0  0  0  0  0  0  0  0  0  0  0
    0.8622    4.4263    5.9622 C   0  0  0  0  0  0  0  0  0  0  0  0
    0.9482    4.9268    4.6539 C   0  0  0  0  0  0  0  0  0  0  0  0
   -0.1916    4.8269    3.8281 C   0  0  0  0  0  0  0  0  0  0  0  0
   -1.3819    4.2210    4.3049 C   0  0  0  0  0  0  0  0  0  0  0  0
   -1.4576    3.7376    5.6340 C   0  0  0  0  0  0  0  0  0  0  0  0
   -0.3026    3.8407    6.4450 C   0  0  0  0  0  0  0  0  0  0  0  0
    1.1354    1.1124    8.3312 C   0  0  0  0  0  0  0  0  0  0  0  0
    2.1404    1.1316    9.3260 C   0  0  0  0  0  0  0  0  0  0  0  0
    3.2114    0.2137    9.2208 C   0  0  0  0  0  0  0  0  0  0  0  0
    3.2497   -0.7188    8.1656 C   0  0  0  0  0  0  0  0  0  0  0  0
    2.2045   -0.7675    7.2279 C   0  0  0  0  0  0  0  0  0  0  0  0
    1.1553    0.1571    7.3093 C   0  0  0  0  0  0  0  0  0  0  0  0
    0.6335    0.3320    3.0131 C   0  0  0  0  0  0  0  0  0  0  0  0
    1.6217    0.4482    2.0083 C   0  0  0  0  0  0  0  0  0  0  0  0
    4.6766   -0.8944    1.1582 H   0  0  0  0  0  0  0  0  0  0  0  0
    4.1371    0.7637    0.8617 H   0  0  0  0  0  0  0  0  0  0  0  0
    3.4017   -0.5978   -0.0204 H   0  0  0  0  0  0  0  0  0  0  0  0
    3.7379   -2.0563    3.0286 H   0  0  0  0  0  0  0  0  0  0  0  0
    1.9513   -2.3704    4.6579 H   0  0  0  0  0  0  0  0  0  0  0  0
   -2.6857    4.0307   11.2047 H   0  0  0  0  0  0  0  0  0  0  0  0
   -2.3776    2.4153   11.5505 H   0  0  0  0  0  0  0  0  0  0  0  0
    1.8563    5.3992    4.2985 H   0  0  0  0  0  0  0  0  0  0  0  0
   -0.1480    5.2336    2.8316 H   0  0  0  0  0  0  0  0  0  0  0  0
   -2.2434    4.1603    3.6506 H   0  0  0  0  0  0  0  0  0  0  0  0
   -2.3822    3.3097    6.0067 H   0  0  0  0  0  0  0  0  0  0  0  0
    2.0826    1.8051   10.1750 H   0  0  0  0  0  0  0  0  0  0  0  0
    4.0036    0.2008    9.9596 H   0  0  0  0  0  0  0  0  0  0  0  0
    4.0436   -1.4390    8.0874 H   0  0  0  0  0  0  0  0  0  0  0  0
    2.1992   -1.5667    6.5139 H   0  0  0  0  0  0  0  0  0  0  0  0
   -0.2434    0.9702    2.9701 H   0  0  0  0  0  0  0  0  0  0  0  0
    1.4974    1.1695    1.2063 H   0  0  0  0  0  0  0  0  0  0  0  0
  1  2  1  0
  1 37  1  0
  1 38  1  0
  1 39  1  0
  2 36  2  0
  2  3  1  0
  3  4  2  0
  3 40  1  0
  4  5  1  0
  4 41  1  0
  5  6  1  0
  5 35  2  0
  6  7  2  0
  6  8  2  0
  6  9  1  0
  9 34  1  0
  9 10  1  0
 10 11  2  0
 10 12  1  0
 12 19  1  0
 12 13  1  1
 12 29  1  0
 13 14  1  0
 14 16  2  0
 14 15  1  0
 15 42  1  0
 15 43  1  0
 16 17  1  0
 19 16  1  1
 17 18  3  0
 19 28  1  0
 19 20  1  0
 20 21  2  0
 20 22  1  0
 22 23  1  0
 23 28  2  0
 23 24  1  0
 24 25  2  0
 24 44  1  0
 25 26  1  0
 25 45  1  0
 26 27  2  0
 26 46  1  0
 27 28  1  0
 27 47  1  0
 29 34  2  0
 29 30  1  0
 30 31  2  0
 30 48  1  0
 31 32  1  0
 31 49  1  0
 32 33  2  0
 32 50  1  0
 33 34  1  0
 33 51  1  0
 35 36  1  0
 35 52  1  0
 36 53  1  0
M  END
>  <i_m_ct_stereo_status>  (407) 
1

>  <s_m_source_file>  (407) 
/var/tmp/pbs.5076255.sched01/tmpgahbdy6u/1388ql836nh.sdf

>  <i_m_source_file_index>  (407) 
28

>  <i_lp_mmshare_version>  (407) 
48012

>  <i_f3d_flags>  (407) 
0

>  <s_epik_input>  (407) 
W0NIM11jMVtjSF1bY0hdYyhbY0hdW2NIXTEpUyg9TykoPU8pTihDMj1PKWMoW2NIXVtjSF1bY0hdW2NIXTMpYzNbQ0BAXTI0W0NAXTUoW0NASF0oQyNOKUMoXE80KT1OL1tIXSljNmMoT0M1PU8pW2NIXVtjSF1bY0hdW2NIXTY=

>  <s_epik_cmdline>  (407) 
J2VwaWtfcHl0aG9uJywgJy1waHQnLCAnMi4wJywgJy1waCcsICc3LjAnLCAnLXRuJywgJzgnLCAnLW1hJywgJzIwMCcsICctaW1hZScsICc8aW5maWxlLm1hZT4nLCAnLW9tYWUnLCAnPG91dGZpbGUubWFlPic=

>  <r_lp_tautomer_probability>  (407) 
1

>  <r_epik_Ionization_Penalty>  (407) 
5.25071e-08

>  <r_epik_Ionization_Penalty_Charging>  (407) 
0

>  <r_epik_Ionization_Penalty_Neutral>  (407) 
5.25071e-08

>  <r_epik_State_Penalty>  (407) 
-0

>  <r_epik_Charging_Adjusted_Penalty>  (407) 
0

>  <i_epik_Tot_Q>  (407) 
0

>  <i_epik_Tot_abs_Q>  (407) 
0

>  <s_lp_Force_Field>  (407) 
OPLS3e

>  <r_lp_Energy>  (407) 
30.7501

>  <b_lp_Chiralities_Consistent>  (407) 
1

>  <s_lp_Variant>  (407) 
101:0-1

>  <s_i_glide_gridfile>  (407) 
pfpi4k_grid

>  <i_i_glide_lignum>  (407) 
28

>  <i_i_glide_rotatable_bonds>  (407) 
3

>  <r_i_docking_score>  (407) 
-2.89222

>  <r_i_glide_ligand_efficiency>  (407) 
-0.0803395

>  <r_i_glide_ligand_efficiency_sa>  (407) 
-0.265275

>  <r_i_glide_ligand_efficiency_ln>  (407) 
-0.631005

>  <r_i_glide_gscore>  (407) 
-2.89222

>  <r_i_glide_lipo>  (407) 
-0.0249498

>  <r_i_glide_hbond>  (407) 
-0.316689

>  <r_i_glide_metal>  (407) 
-0

>  <r_i_glide_rewards>  (407) 
-0.00343855

>  <r_i_glide_evdw>  (407) 
-25.9653

>  <r_i_glide_ecoul>  (407) 
-7.44909

>  <r_i_glide_erotb>  (407) 
0.163636

>  <r_i_glide_esite>  (407) 
-0.295151

>  <r_i_glide_emodel>  (407) 
-39.7489

>  <r_i_glide_energy>  (407) 
-33.4144

>  <r_i_glide_einternal>  (407) 
-0.122029

>  <r_i_glide_intrahb_reward>  (407) 
-0

>  <i_i_glide_confnum>  (407) 
1

>  <i_i_glide_posenum>  (407) 
34

>  <r_i_glide_eff_state_penalty>  (407) 
0

>  <ligand_id>  (407) 
101

>  <original_smiles>  (407) 
Cc1ccc(S(=O)(=O)N2C(=O)C3(OC(=N)C(C#N)C34C(=O)Oc3ccccc34)c3ccccc32)cc1

>  <smiles>  (407) 
[H]c1c([H])c([H])c2c(c1[H])OC(=O)C21C(C#N)=C(N([H])[H])OC12C(=O)N(S(=O)(=O)c1c([H])c([H])c(C([H])([H])[H])c([H])c1[H])c1c([H])c([H])c([H])c([H])c12

$$$$
101:0:1
     RDKit          3D

 53 58  0  0  1  0  0  0  0  0999 V2000
    0.9584   -6.5275    6.3186 C   0  0  0  0  0  0  0  0  0  0  0  0
    0.6835   -5.1075    5.8843 C   0  0  0  0  0  0  0  0  0  0  0  0
   -0.3433   -4.3533    6.4960 C   0  0  0  0  0  0  0  0  0  0  0  0
   -0.5845   -3.0275    6.0804 C   0  0  0  0  0  0  0  0  0  0  0  0
    0.2012   -2.4700    5.0529 C   0  0  0  0  0  0  0  0  0  0  0  0
   -0.1267   -0.8086    4.5221 S   0  0  0  0  0  0  0  0  0  0  0  0
    0.8099   -0.4341    3.4513 O   0  0  0  0  0  0  0  0  0  0  0  0
   -1.5768   -0.6577    4.3454 O   0  0  0  0  0  0  0  0  0  0  0  0
    0.3397    0.1349    5.9043 N   0  0  0  0  0  0  0  0  0  0  0  0
   -0.5645    0.8343    6.7771 C   0  0  0  0  0  0  0  0  0  0  0  0
   -1.7741    0.6078    6.8489 O   0  0  0  0  0  0  0  0  0  0  0  0
    0.2165    1.7617    7.7198 C   0  0  2  0  0  0  0  0  0  0  0  0
   -0.2885    1.5360    9.0458 O   0  0  0  0  0  0  0  0  0  0  0  0
   -0.9649    2.6453    9.4534 C   0  0  0  0  0  0  0  0  0  0  0  0
   -1.6665    2.5258   10.6354 N   0  0  0  0  0  0  0  0  0  0  0  0
   -0.8901    3.6612    8.5887 C   0  0  0  0  0  0  0  0  0  0  0  0
   -1.5502    4.9109    8.7261 C   0  0  0  0  0  0  0  0  0  0  0  0
   -2.0763    5.9351    8.8534 N   0  0  0  0  0  0  0  0  0  0  0  0
   -0.0036    3.3073    7.4317 C   0  0  1  0  0  0  0  0  0  0  0  0
    1.2946    4.1392    7.5228 C   0  0  0  0  0  0  0  0  0  0  0  0
    1.9717    4.2454    8.5436 O   0  0  0  0  0  0  0  0  0  0  0  0
    1.5603    4.7289    6.3311 O   0  0  0  0  0  0  0  0  0  0  0  0
    0.5139    4.5459    5.4808 C   0  0  0  0  0  0  0  0  0  0  0  0
    0.3517    5.1299    4.2145 C   0  0  0  0  0  0  0  0  0  0  0  0
   -0.8543    4.8961    3.5220 C   0  0  0  0  0  0  0  0  0  0  0  0
   -1.8696    4.0921    4.0963 C   0  0  0  0  0  0  0  0  0  0  0  0
   -1.6975    3.5205    5.3819 C   0  0  0  0  0  0  0  0  0  0  0  0
   -0.4710    3.7491    6.0509 C   0  0  0  0  0  0  0  0  0  0  0  0
    1.5978    1.1531    7.5331 C   0  0  0  0  0  0  0  0  0  0  0  0
    2.7202    1.2859    8.3787 C   0  0  0  0  0  0  0  0  0  0  0  0
    3.8870    0.5560    8.0605 C   0  0  0  0  0  0  0  0  0  0  0  0
    3.9193   -0.2894    6.9268 C   0  0  0  0  0  0  0  0  0  0  0  0
    2.7787   -0.4405    6.1090 C   0  0  0  0  0  0  0  0  0  0  0  0
    1.6158    0.2729    6.4474 C   0  0  0  0  0  0  0  0  0  0  0  0
    1.2263   -3.2112    4.4387 C   0  0  0  0  0  0  0  0  0  0  0  0
    1.4665   -4.5343    4.8586 C   0  0  0  0  0  0  0  0  0  0  0  0
    0.3806   -6.7945    7.2002 H   0  0  0  0  0  0  0  0  0  0  0  0
    2.0168   -6.6461    6.5537 H   0  0  0  0  0  0  0  0  0  0  0  0
    0.7051   -7.2227    5.5209 H   0  0  0  0  0  0  0  0  0  0  0  0
   -0.9549   -4.7946    7.2730 H   0  0  0  0  0  0  0  0  0  0  0  0
   -1.3721   -2.4418    6.5324 H   0  0  0  0  0  0  0  0  0  0  0  0
   -2.2072    3.2591   11.0757 H   0  0  0  0  0  0  0  0  0  0  0  0
   -1.6087    1.6855   11.2052 H   0  0  0  0  0  0  0  0  0  0  0  0
    1.1252    5.7537    3.7868 H   0  0  0  0  0  0  0  0  0  0  0  0
   -0.9894    5.3330    2.5425 H   0  0  0  0  0  0  0  0  0  0  0  0
   -2.7899    3.9266    3.5488 H   0  0  0  0  0  0  0  0  0  0  0  0
   -2.4875    2.9271    5.8231 H   0  0  0  0  0  0  0  0  0  0  0  0
    2.6872    1.8981    9.2710 H   0  0  0  0  0  0  0  0  0  0  0  0
    4.7621    0.6383    8.6921 H   0  0  0  0  0  0  0  0  0  0  0  0
    4.8110   -0.8519    6.7063 H   0  0  0  0  0  0  0  0  0  0  0  0
    2.7899   -1.1201    5.2723 H   0  0  0  0  0  0  0  0  0  0  0  0
    1.8229   -2.7732    3.6483 H   0  0  0  0  0  0  0  0  0  0  0  0
    2.2510   -5.1094    4.3832 H   0  0  0  0  0  0  0  0  0  0  0  0
  1  2  1  0
  1 37  1  0
  1 38  1  0
  1 39  1  0
  2 36  2  0
  2  3  1  0
  3  4  2  0
  3 40  1  0
  4  5  1  0
  4 41  1  0
  5  6  1  0
  5 35  2  0
  6  7  2  0
  6  8  2  0
  6  9  1  0
  9 34  1  0
  9 10  1  0
 10 11  2  0
 10 12  1  0
 12 19  1  0
 12 13  1  1
 12 29  1  0
 13 14  1  0
 14 16  2  0
 14 15  1  0
 15 42  1  0
 15 43  1  0
 16 17  1  0
 19 16  1  1
 17 18  3  0
 19 28  1  0
 19 20  1  0
 20 21  2  0
 20 22  1  0
 22 23  1  0
 23 28  2  0
 23 24  1  0
 24 25  2  0
 24 44  1  0
 25 26  1  0
 25 45  1  0
 26 27  2  0
 26 46  1  0
 27 28  1  0
 27 47  1  0
 29 34  2  0
 29 30  1  0
 30 31  2  0
 30 48  1  0
 31 32  1  0
 31 49  1  0
 32 33  2  0
 32 50  1  0
 33 34  1  0
 33 51  1  0
 35 36  1  0
 35 52  1  0
 36 53  1  0
M  END
>  <i_m_ct_stereo_status>  (408) 
1

>  <s_m_source_file>  (408) 
/var/tmp/pbs.5076255.sched01/tmpgahbdy6u/1388ql836nh.sdf

>  <i_m_source_file_index>  (408) 
28

>  <i_lp_mmshare_version>  (408) 
48012

>  <i_f3d_flags>  (408) 
0

>  <s_epik_input>  (408) 
W0NIM11jMVtjSF1bY0hdYyhbY0hdW2NIXTEpUyg9TykoPU8pTihDMj1PKWMoW2NIXVtjSF1bY0hdW2NIXTMpYzNbQ0BAXTI0W0NAXTUoW0NASF0oQyNOKUMoXE80KT1OL1tIXSljNmMoT0M1PU8pW2NIXVtjSF1bY0hdW2NIXTY=

>  <s_epik_cmdline>  (408) 
J2VwaWtfcHl0aG9uJywgJy1waHQnLCAnMi4wJywgJy1waCcsICc3LjAnLCAnLXRuJywgJzgnLCAnLW1hJywgJzIwMCcsICctaW1hZScsICc8aW5maWxlLm1hZT4nLCAnLW9tYWUnLCAnPG91dGZpbGUubWFlPic=

>  <r_lp_tautomer_probability>  (408) 
1

>  <r_epik_Ionization_Penalty>  (408) 
5.25071e-08

>  <r_epik_Ionization_Penalty_Charging>  (408) 
0

>  <r_epik_Ionization_Penalty_Neutral>  (408) 
5.25071e-08

>  <r_epik_State_Penalty>  (408) 
-0

>  <r_epik_Charging_Adjusted_Penalty>  (408) 
0

>  <i_epik_Tot_Q>  (408) 
0

>  <i_epik_Tot_abs_Q>  (408) 
0

>  <s_lp_Force_Field>  (408) 
OPLS3e

>  <r_lp_Energy>  (408) 
30.7501

>  <b_lp_Chiralities_Consistent>  (408) 
1

>  <s_lp_Variant>  (408) 
101:0-1

>  <s_i_glide_gridfile>  (408) 
pfpi4k_grid

>  <i_i_glide_lignum>  (408) 
28

>  <i_i_glide_rotatable_bonds>  (408) 
3

>  <r_i_docking_score>  (408) 
-2.15034

>  <r_i_glide_ligand_efficiency>  (408) 
-0.0597316

>  <r_i_glide_ligand_efficiency_sa>  (408) 
-0.19723

>  <r_i_glide_ligand_efficiency_ln>  (408) 
-0.469146

>  <r_i_glide_gscore>  (408) 
-2.15034

>  <r_i_glide_lipo>  (408) 
-0.0233446

>  <r_i_glide_hbond>  (408) 
-0.163617

>  <r_i_glide_metal>  (408) 
-0

>  <r_i_glide_rewards>  (408) 
-0.00343855

>  <r_i_glide_evdw>  (408) 
-22.8781

>  <r_i_glide_ecoul>  (408) 
-5.04064

>  <r_i_glide_erotb>  (408) 
0.163636

>  <r_i_glide_esite>  (408) 
-0.223573

>  <r_i_glide_emodel>  (408) 
-32.6866

>  <r_i_glide_energy>  (408) 
-27.9187

>  <r_i_glide_einternal>  (408) 
0.0841646

>  <r_i_glide_intrahb_reward>  (408) 
-0

>  <i_i_glide_confnum>  (408) 
4

>  <i_i_glide_posenum>  (408) 
17

>  <r_i_glide_eff_state_penalty>  (408) 
0

>  <ligand_id>  (408) 
101

>  <original_smiles>  (408) 
Cc1ccc(S(=O)(=O)N2C(=O)C3(OC(=N)C(C#N)C34C(=O)Oc3ccccc34)c3ccccc32)cc1

>  <smiles>  (408) 
[H]c1c([H])c([H])c2c(c1[H])OC(=O)C21C(C#N)=C(N([H])[H])OC12C(=O)N(S(=O)(=O)c1c([H])c([H])c(C([H])([H])[H])c([H])c1[H])c1c([H])c([H])c([H])c([H])c12

$$$$
101:0:2
     RDKit          3D

 53 58  0  0  1  0  0  0  0  0999 V2000
    2.6038   -6.4192    5.8712 C   0  0  0  0  0  0  0  0  0  0  0  0
    2.0038   -5.0836    5.5103 C   0  0  0  0  0  0  0  0  0  0  0  0
    0.7463   -4.6938    6.0248 C   0  0  0  0  0  0  0  0  0  0  0  0
    0.1996   -3.4403    5.6810 C   0  0  0  0  0  0  0  0  0  0  0  0
    0.9017   -2.6002    4.7976 C   0  0  0  0  0  0  0  0  0  0  0  0
    0.2182   -1.0056    4.3905 S   0  0  0  0  0  0  0  0  0  0  0  0
    0.9159   -0.4632    3.2181 O   0  0  0  0  0  0  0  0  0  0  0  0
   -1.2506   -1.0977    4.4152 O   0  0  0  0  0  0  0  0  0  0  0  0
    0.6905    0.0031    5.7276 N   0  0  0  0  0  0  0  0  0  0  0  0
   -0.2210    0.5951    6.6732 C   0  0  0  0  0  0  0  0  0  0  0  0
   -1.3949    0.2552    6.8196 O   0  0  0  0  0  0  0  0  0  0  0  0
    0.5098    1.6267    7.5404 C   0  0  2  0  0  0  0  0  0  0  0  0
    0.1539    1.3539    8.9043 O   0  0  0  0  0  0  0  0  0  0  0  0
   -0.6246    2.3685    9.3736 C   0  0  0  0  0  0  0  0  0  0  0  0
   -1.1887    2.1741   10.6206 N   0  0  0  0  0  0  0  0  0  0  0  0
   -0.7601    3.3724    8.5002 C   0  0  0  0  0  0  0  0  0  0  0  0
   -1.5523    4.5333    8.6962 C   0  0  0  0  0  0  0  0  0  0  0  0
   -2.1825    5.4920    8.8511 N   0  0  0  0  0  0  0  0  0  0  0  0
    0.0587    3.1236    7.2687 C   0  0  1  0  0  0  0  0  0  0  0  0
    1.2374    4.1205    7.2445 C   0  0  0  0  0  0  0  0  0  0  0  0
    1.9829    4.3277    8.2010 O   0  0  0  0  0  0  0  0  0  0  0  0
    1.3160    4.7268    6.0335 O   0  0  0  0  0  0  0  0  0  0  0  0
    0.2333    4.3979    5.2789 C   0  0  0  0  0  0  0  0  0  0  0  0
   -0.1173    4.9375    4.0285 C   0  0  0  0  0  0  0  0  0  0  0  0
   -1.3379    4.5334    3.4456 C   0  0  0  0  0  0  0  0  0  0  0  0
   -2.1832    3.6185    4.1145 C   0  0  0  0  0  0  0  0  0  0  0  0
   -1.8231    3.0925    5.3800 C   0  0  0  0  0  0  0  0  0  0  0  0
   -0.5835    3.4859    5.9339 C   0  0  0  0  0  0  0  0  0  0  0  0
    1.9378    1.2040    7.2328 C   0  0  0  0  0  0  0  0  0  0  0  0
    3.1013    1.4996    7.9745 C   0  0  0  0  0  0  0  0  0  0  0  0
    4.3252    0.9254    7.5614 C   0  0  0  0  0  0  0  0  0  0  0  0
    4.3739    0.0902    6.4264 C   0  0  0  0  0  0  0  0  0  0  0  0
    3.2033   -0.1989    5.7030 C   0  0  0  0  0  0  0  0  0  0  0  0
    1.9810    0.3288    6.1514 C   0  0  0  0  0  0  0  0  0  0  0  0
    2.1390   -2.9997    4.2548 C   0  0  0  0  0  0  0  0  0  0  0  0
    2.7072   -4.2278    4.6386 C   0  0  0  0  0  0  0  0  0  0  0  0
    2.0181   -6.9235    6.6356 H   0  0  0  0  0  0  0  0  0  0  0  0
    3.6198   -6.2847    6.2436 H   0  0  0  0  0  0  0  0  0  0  0  0
    2.6426   -7.0593    4.9924 H   0  0  0  0  0  0  0  0  0  0  0  0
    0.1895   -5.3580    6.6722 H   0  0  0  0  0  0  0  0  0  0  0  0
   -0.7551   -3.1237    6.0779 H   0  0  0  0  0  0  0  0  0  0  0  0
   -1.8027    2.8222   11.1018 H   0  0  0  0  0  0  0  0  0  0  0  0
   -0.9785    1.3443   11.1673 H   0  0  0  0  0  0  0  0  0  0  0  0
    0.5277    5.6483    3.5285 H   0  0  0  0  0  0  0  0  0  0  0  0
   -1.6159    4.9255    2.4789 H   0  0  0  0  0  0  0  0  0  0  0  0
   -3.1193    3.3228    3.6582 H   0  0  0  0  0  0  0  0  0  0  0  0
   -2.4831    2.4090    5.8936 H   0  0  0  0  0  0  0  0  0  0  0  0
    3.0579    2.1086    8.8654 H   0  0  0  0  0  0  0  0  0  0  0  0
    5.2336    1.1243    8.1127 H   0  0  0  0  0  0  0  0  0  0  0  0
    5.3003   -0.3635    6.1200 H   0  0  0  0  0  0  0  0  0  0  0  0
    3.2651   -0.8408    4.8510 H   0  0  0  0  0  0  0  0  0  0  0  0
    2.6751   -2.3668    3.5608 H   0  0  0  0  0  0  0  0  0  0  0  0
    3.6758   -4.5137    4.2474 H   0  0  0  0  0  0  0  0  0  0  0  0
  1  2  1  0
  1 37  1  0
  1 38  1  0
  1 39  1  0
  2 36  2  0
  2  3  1  0
  3  4  2  0
  3 40  1  0
  4  5  1  0
  4 41  1  0
  5  6  1  0
  5 35  2  0
  6  7  2  0
  6  8  2  0
  6  9  1  0
  9 34  1  0
  9 10  1  0
 10 11  2  0
 10 12  1  0
 12 19  1  0
 12 13  1  1
 12 29  1  0
 13 14  1  0
 14 16  2  0
 14 15  1  0
 15 42  1  0
 15 43  1  0
 16 17  1  0
 19 16  1  1
 17 18  3  0
 19 28  1  0
 19 20  1  0
 20 21  2  0
 20 22  1  0
 22 23  1  0
 23 28  2  0
 23 24  1  0
 24 25  2  0
 24 44  1  0
 25 26  1  0
 25 45  1  0
 26 27  2  0
 26 46  1  0
 27 28  1  0
 27 47  1  0
 29 34  2  0
 29 30  1  0
 30 31  2  0
 30 48  1  0
 31 32  1  0
 31 49  1  0
 32 33  2  0
 32 50  1  0
 33 34  1  0
 33 51  1  0
 35 36  1  0
 35 52  1  0
 36 53  1  0
M  END
>  <i_m_ct_stereo_status>  (409) 
1

>  <s_m_source_file>  (409) 
/var/tmp/pbs.5076255.sched01/tmpgahbdy6u/1388ql836nh.sdf

>  <i_m_source_file_index>  (409) 
28

>  <i_lp_mmshare_version>  (409) 
48012

>  <i_f3d_flags>  (409) 
0

>  <s_epik_input>  (409) 
W0NIM11jMVtjSF1bY0hdYyhbY0hdW2NIXTEpUyg9TykoPU8pTihDMj1PKWMoW2NIXVtjSF1bY0hdW2NIXTMpYzNbQ0BAXTI0W0NAXTUoW0NASF0oQyNOKUMoXE80KT1OL1tIXSljNmMoT0M1PU8pW2NIXVtjSF1bY0hdW2NIXTY=

>  <s_epik_cmdline>  (409) 
J2VwaWtfcHl0aG9uJywgJy1waHQnLCAnMi4wJywgJy1waCcsICc3LjAnLCAnLXRuJywgJzgnLCAnLW1hJywgJzIwMCcsICctaW1hZScsICc8aW5maWxlLm1hZT4nLCAnLW9tYWUnLCAnPG91dGZpbGUubWFlPic=

>  <r_lp_tautomer_probability>  (409) 
1

>  <r_epik_Ionization_Penalty>  (409) 
5.25071e-08

>  <r_epik_Ionization_Penalty_Charging>  (409) 
0

>  <r_epik_Ionization_Penalty_Neutral>  (409) 
5.25071e-08

>  <r_epik_State_Penalty>  (409) 
-0

>  <r_epik_Charging_Adjusted_Penalty>  (409) 
0

>  <i_epik_Tot_Q>  (409) 
0

>  <i_epik_Tot_abs_Q>  (409) 
0

>  <s_lp_Force_Field>  (409) 
OPLS3e

>  <r_lp_Energy>  (409) 
30.7501

>  <b_lp_Chiralities_Consistent>  (409) 
1

>  <s_lp_Variant>  (409) 
101:0-1

>  <s_i_glide_gridfile>  (409) 
pfpi4k_grid

>  <i_i_glide_lignum>  (409) 
28

>  <i_i_glide_rotatable_bonds>  (409) 
3

>  <r_i_docking_score>  (409) 
-2.05832

>  <r_i_glide_ligand_efficiency>  (409) 
-0.0571756

>  <r_i_glide_ligand_efficiency_sa>  (409) 
-0.18879

>  <r_i_glide_ligand_efficiency_ln>  (409) 
-0.44907

>  <r_i_glide_gscore>  (409) 
-2.05832

>  <r_i_glide_lipo>  (409) 
-0.00946024

>  <r_i_glide_hbond>  (409) 
-0.158675

>  <r_i_glide_metal>  (409) 
-0

>  <r_i_glide_rewards>  (409) 
-0.00343855

>  <r_i_glide_evdw>  (409) 
-22.086

>  <r_i_glide_ecoul>  (409) 
-5.08893

>  <r_i_glide_erotb>  (409) 
0.163636

>  <r_i_glide_esite>  (409) 
-0.182746

>  <r_i_glide_emodel>  (409) 
-31.4605

>  <r_i_glide_energy>  (409) 
-27.1749

>  <r_i_glide_einternal>  (409) 
0.14158

>  <r_i_glide_intrahb_reward>  (409) 
-0

>  <i_i_glide_confnum>  (409) 
4

>  <i_i_glide_posenum>  (409) 
14

>  <r_i_glide_eff_state_penalty>  (409) 
0

>  <ligand_id>  (409) 
101

>  <original_smiles>  (409) 
Cc1ccc(S(=O)(=O)N2C(=O)C3(OC(=N)C(C#N)C34C(=O)Oc3ccccc34)c3ccccc32)cc1

>  <smiles>  (409) 
[H]c1c([H])c([H])c2c(c1[H])OC(=O)C21C(C#N)=C(N([H])[H])OC12C(=O)N(S(=O)(=O)c1c([H])c([H])c(C([H])([H])[H])c([H])c1[H])c1c([H])c([H])c([H])c([H])c12

$$$$
103:0:0
     RDKit          3D

 69 77  0  0  1  0  0  0  0  0999 V2000
    6.5961   -7.1283    4.0094 O   0  0  0  0  0  0  0  0  0  0  0  0
    5.6170   -6.3484    3.3442 C   0  0  2  0  0  0  0  0  0  0  0  0
    4.8742   -5.4086    4.3769 C   0  0  1  0  0  0  0  0  0  0  0  0
    4.7248   -3.8564    4.1180 C   0  0  0  0  0  0  0  0  0  0  0  0
    4.7966   -3.1114    2.7187 C   0  0  2  0  0  0  0  0  0  0  0  0
    5.3606   -1.8665    3.0959 O   0  0  0  0  0  0  0  0  0  0  0  0
    3.4400   -2.7181    2.1266 C   0  0  0  0  0  0  0  0  0  0  0  0
    2.7815   -3.1636    1.0319 C   0  0  0  0  0  0  0  0  0  0  0  0
    3.1151   -4.3225    0.0825 C   0  0  1  0  0  0  0  0  0  0  0  0
    3.8361   -3.8400   -1.1237 N   0  0  1  0  0  0  0  0  0  0  0  0
    3.8362   -2.4441   -1.5638 C   0  0  0  0  0  0  0  0  0  0  0  0
    5.2165   -2.2832   -0.9439 C   0  0  0  0  0  0  0  0  0  0  0  0
    5.2550   -3.8167   -0.7858 C   0  0  1  0  0  0  0  0  0  0  0  0
    5.4075   -4.5890    0.5592 C   0  0  1  0  0  0  0  0  0  0  0  0
    5.8440   -3.6339    1.7085 C   0  0  0  0  0  0  0  0  0  0  0  0
    4.0702   -5.3988    0.6738 C   0  0  2  0  0  0  0  0  0  0  0  0
    4.2508   -6.4278   -0.3018 O   0  0  0  0  0  0  0  0  0  0  0  0
    3.5148   -6.2779    1.9089 C   0  0  2  0  0  0  0  0  0  0  0  0
    2.3010   -5.7121    2.7091 C   0  0  0  0  0  0  0  0  0  0  0  0
    2.2374   -6.3528    4.0613 C   0  0  2  0  0  0  0  0  0  0  0  0
    3.5934   -6.2029    4.8302 C   0  0  1  0  0  0  0  0  0  0  0  0
    3.8382   -7.5242    4.1862 C   0  0  1  0  0  0  0  0  0  0  0  0
    2.3932   -7.9028    4.1691 C   0  0  2  0  0  0  0  0  0  0  0  0
    2.1513   -8.7774    2.9642 N   0  0  2  0  0  0  0  0  0  0  0  0
    0.9895   -9.6929    3.0840 C   0  0  0  0  0  0  0  0  0  0  0  0
   -0.3129   -8.9406    3.2775 C   0  0  0  0  0  0  0  0  0  0  0  0
   -1.5423   -9.3237    2.4791 C   0  0  0  0  0  0  0  0  0  0  0  0
   -0.8272   -8.0326    2.1818 C   0  0  0  0  0  0  0  0  0  0  0  0
    3.3793   -9.5140    2.4777 C   0  0  0  0  0  0  0  0  0  0  0  0
    4.6429   -8.6102    2.2084 C   0  0  0  0  0  0  0  0  0  0  0  0
    4.4647   -7.2064    2.8288 C   0  0  2  0  0  0  0  0  0  0  0  0
    7.0461   -7.6615    3.3722 H   0  0  0  0  0  0  0  0  0  0  0  0
    6.1645   -5.9311    2.5309 H   0  0  0  0  0  0  0  0  0  0  0  0
    5.5190   -5.4253    5.2588 H   0  0  0  0  0  0  0  0  0  0  0  0
    3.8513   -3.5018    4.6650 H   0  0  0  0  0  0  0  0  0  0  0  0
    5.5489   -3.4490    4.7097 H   0  0  0  0  0  0  0  0  0  0  0  0
    5.4665   -1.3306    2.3256 H   0  0  0  0  0  0  0  0  0  0  0  0
    2.9512   -1.9192    2.6722 H   0  0  0  0  0  0  0  0  0  0  0  0
    1.8408   -2.6768    0.8167 H   0  0  0  0  0  0  0  0  0  0  0  0
    2.1728   -4.7739   -0.2229 H   0  0  0  0  0  0  0  0  0  0  0  0
    3.8752   -2.3850   -2.6539 H   0  0  0  0  0  0  0  0  0  0  0  0
    3.0565   -1.7960   -1.1607 H   0  0  0  0  0  0  0  0  0  0  0  0
    5.9719   -1.8995   -1.6344 H   0  0  0  0  0  0  0  0  0  0  0  0
    5.1514   -1.6927   -0.0295 H   0  0  0  0  0  0  0  0  0  0  0  0
    5.8106   -4.2678   -1.6099 H   0  0  0  0  0  0  0  0  0  0  0  0
    6.2335   -5.2927    0.4436 H   0  0  0  0  0  0  0  0  0  0  0  0
    6.3940   -2.8080    1.2593 H   0  0  0  0  0  0  0  0  0  0  0  0
    6.6635   -4.0490    2.2813 H   0  0  0  0  0  0  0  0  0  0  0  0
    3.8834   -6.1930   -1.1481 H   0  0  0  0  0  0  0  0  0  0  0  0
    2.9317   -7.0232    1.3705 H   0  0  0  0  0  0  0  0  0  0  0  0
    2.3667   -4.6710    2.9530 H   0  0  0  0  0  0  0  0  0  0  0  0
    1.3634   -5.8311    2.1676 H   0  0  0  0  0  0  0  0  0  0  0  0
    1.4025   -6.0011    4.6688 H   0  0  0  0  0  0  0  0  0  0  0  0
    3.4455   -6.2824    5.9104 H   0  0  0  0  0  0  0  0  0  0  0  0
    4.4162   -8.1930    4.8286 H   0  0  0  0  0  0  0  0  0  0  0  0
    2.0605   -8.3206    5.1223 H   0  0  0  0  0  0  0  0  0  0  0  0
    0.9092  -10.2835    2.1662 H   0  0  0  0  0  0  0  0  0  0  0  0
    1.1280  -10.3981    3.9064 H   0  0  0  0  0  0  0  0  0  0  0  0
   -0.4934   -8.6193    4.3032 H   0  0  0  0  0  0  0  0  0  0  0  0
   -1.4470  -10.1366    1.7639 H   0  0  0  0  0  0  0  0  0  0  0  0
   -2.5102   -9.2495    2.9738 H   0  0  0  0  0  0  0  0  0  0  0  0
   -1.3087   -7.1068    2.4872 H   0  0  0  0  0  0  0  0  0  0  0  0
   -0.2386   -7.9810    1.2674 H   0  0  0  0  0  0  0  0  0  0  0  0
    3.6355  -10.2572    3.2363 H   0  0  0  0  0  0  0  0  0  0  0  0
    3.1502  -10.0791    1.5708 H   0  0  0  0  0  0  0  0  0  0  0  0
    5.5018   -9.1097    2.6585 H   0  0  0  0  0  0  0  0  0  0  0  0
    4.8664   -8.5396    1.1436 H   0  0  0  0  0  0  0  0  0  0  0  0
    1.9123   -8.1489    2.2120 H   0  0  0  0  0  0  0  0  0  0  0  0
    3.6666   -4.4635   -1.9043 H   0  0  0  0  0  0  0  0  0  0  0  0
  1  2  1  0
  1 32  1  0
  2 31  1  0
  2  3  1  0
  2 33  1  6
  3 21  1  0
  3  4  1  0
  3 34  1  1
  4  5  1  0
  4 35  1  0
  4 36  1  0
  5 15  1  0
  5  6  1  1
  5  7  1  0
  6 37  1  0
  7  8  2  0
  7 38  1  0
  8  9  1  0
  8 39  1  0
  9 16  1  0
  9 10  1  0
  9 40  1  6
 10 13  1  0
 10 11  1  0
 10 69  1  6
 11 12  1  0
 11 41  1  0
 11 42  1  0
 12 13  1  0
 12 43  1  0
 12 44  1  0
 13 14  1  0
 13 45  1  6
 14 15  1  0
 14 16  1  0
 14 46  1  6
 15 47  1  0
 15 48  1  0
 16 17  1  6
 16 18  1  0
 17 49  1  0
 18 31  1  0
 18 19  1  0
 18 50  1  6
 19 20  1  0
 19 51  1  0
 19 52  1  0
 20 23  1  0
 20 21  1  0
 20 53  1  1
 21 22  1  0
 21 54  1  1
 22 31  1  0
 22 23  1  0
 22 55  1  1
 23 24  1  0
 23 56  1  1
 24 25  1  0
 24 29  1  0
 24 68  1  6
 25 26  1  0
 25 57  1  0
 25 58  1  0
 26 28  1  0
 26 27  1  0
 26 59  1  0
 27 28  1  0
 27 60  1  0
 27 61  1  0
 28 62  1  0
 28 63  1  0
 29 30  1  0
 29 64  1  0
 29 65  1  0
 31 30  1  6
 30 66  1  0
 30 67  1  0
M  CHG  2  10   1  24   1
M  END
>  <i_m_ct_stereo_status>  (410) 
1

>  <s_m_source_file>  (410) 
/var/tmp/pbs.5076255.sched01/tmpgahbdy6u/1388ql836nh.sdf

>  <i_m_source_file_index>  (410) 
31

>  <i_lp_mmshare_version>  (410) 
48012

>  <i_f3d_flags>  (410) 
0

>  <s_epik_input>  (410) 
W0NIMl0xW0NIMl1bQ0hdMVtDSDJdTihbQ0gyXVtDSDJdMilbQ0BASF0oW0NASF0zNClbQ0BIXShbQ0gyXTUpW0NAQEhdM1tDQEBIXShbQ0BIXTZbT0hdKVtDSDJdW0NAXShbT0hdKShbQ0hdPVtDSF03KVtDSDJdW0NAQEhdOFtDQEhdKFtDSDJdW0NIMl05KU45W0NASF03W0NAXTgoW09IXSlbQ0hdNVtDQF0yNDY=

>  <s_epik_cmdline>  (410) 
J2VwaWtfcHl0aG9uJywgJy1waHQnLCAnMi4wJywgJy1waCcsICc3LjAnLCAnLXRuJywgJzgnLCAnLW1hJywgJzIwMCcsICctaW1hZScsICc8aW5maWxlLm1hZT4nLCAnLW9tYWUnLCAnPG91dGZpbGUubWFlPic=

>  <r_epik_Ionization_Penalty>  (410) 
0.0124897

>  <r_epik_Ionization_Penalty_Charging>  (410) 
0.0124895

>  <r_epik_Ionization_Penalty_Neutral>  (410) 
2.13737e-07

>  <r_epik_State_Penalty>  (410) 
0.00932524

>  <r_epik_Charging_Adjusted_Penalty>  (410) 
0.0218148

>  <i_epik_Tot_Q>  (410) 
2

>  <i_epik_Tot_abs_Q>  (410) 
2

>  <s_lp_Force_Field>  (410) 
OPLS3e

>  <r_lp_Energy>  (410) 
176.212

>  <b_lp_Chiralities_Consistent>  (410) 
1

>  <s_lp_Variant>  (410) 
103:0-1

>  <s_i_glide_gridfile>  (410) 
pfpi4k_grid

>  <i_i_glide_lignum>  (410) 
31

>  <i_i_glide_rotatable_bonds>  (410) 
5

>  <r_i_docking_score>  (410) 
-4.37597

>  <r_i_glide_ligand_efficiency>  (410) 
-0.14116

>  <r_i_glide_ligand_efficiency_sa>  (410) 
-0.443438

>  <r_i_glide_ligand_efficiency_ln>  (410) 
-0.986914

>  <r_i_glide_gscore>  (410) 
-4.37597

>  <r_i_glide_lipo>  (410) 
-0.581229

>  <r_i_glide_hbond>  (410) 
-0.32

>  <r_i_glide_metal>  (410) 
-0

>  <r_i_glide_rewards>  (410) 
-0.500512

>  <r_i_glide_evdw>  (410) 
-27.0936

>  <r_i_glide_ecoul>  (410) 
-12.0979

>  <r_i_glide_erotb>  (410) 
0.218127

>  <r_i_glide_esite>  (410) 
-0.0229843

>  <r_i_glide_emodel>  (410) 
-50.1713

>  <r_i_glide_energy>  (410) 
-39.1915

>  <r_i_glide_einternal>  (410) 
2.82114

>  <r_i_glide_intrahb_reward>  (410) 
-0

>  <i_i_glide_confnum>  (410) 
1

>  <i_i_glide_posenum>  (410) 
23

>  <r_i_glide_eff_state_penalty>  (410) 
0

>  <ligand_id>  (410) 
103

>  <original_smiles>  (410) 
OC1C2CC3(O)C=CC4N5CCC5C(C3)C4(O)C3CC4C2C2C4N(CC4CC4)CCC123

>  <smiles>  (410) 
[H]OC1([H])C2([H])C([H])([H])C3(O[H])C([H])=C([H])C4([H])C(O[H])(C5([H])C([H])([H])C6([H])C2([H])C2([H])C15C([H])([H])C([H])([H])[N+]([H])(C([H])([H])C1([H])C([H])([H])C1([H])[H])C62[H])C([H])(C3([H])[H])C1([H])C([H])([H])C([H])([H])[N+]41[H]

$$$$
103:0:1
     RDKit          3D

 69 77  0  0  1  0  0  0  0  0999 V2000
    7.1304   -6.3542    3.5690 O   0  0  0  0  0  0  0  0  0  0  0  0
    6.0744   -5.6712    2.9163 C   0  0  2  0  0  0  0  0  0  0  0  0
    5.2748   -4.7852    3.9528 C   0  0  1  0  0  0  0  0  0  0  0  0
    4.9890   -3.2560    3.6798 C   0  0  0  0  0  0  0  0  0  0  0  0
    4.9765   -2.5263    2.2729 C   0  0  2  0  0  0  0  0  0  0  0  0
    5.4314   -1.2306    2.6243 O   0  0  0  0  0  0  0  0  0  0  0  0
    3.5782   -2.2617    1.7011 C   0  0  0  0  0  0  0  0  0  0  0  0
    2.9427   -2.7708    0.6304 C   0  0  0  0  0  0  0  0  0  0  0  0
    3.3516   -3.9065   -0.3166 C   0  0  1  0  0  0  0  0  0  0  0  0
    4.0056   -3.3850   -1.5409 N   0  0  1  0  0  0  0  0  0  0  0  0
    3.8749   -2.0062   -2.0017 C   0  0  0  0  0  0  0  0  0  0  0  0
    5.2431   -1.7174   -1.4085 C   0  0  0  0  0  0  0  0  0  0  0  0
    5.4277   -3.2353   -1.2316 C   0  0  1  0  0  0  0  0  0  0  0  0
    5.6717   -3.9671    0.1268 C   0  0  1  0  0  0  0  0  0  0  0  0
    6.0521   -2.9657    1.2521 C   0  0  0  0  0  0  0  0  0  0  0  0
    4.4041   -4.8752    0.2825 C   0  0  2  0  0  0  0  0  0  0  0  0
    4.6846   -5.8669   -0.7000 O   0  0  0  0  0  0  0  0  0  0  0  0
    3.9461   -5.8002    1.5207 C   0  0  2  0  0  0  0  0  0  0  0  0
    2.7048   -5.3315    2.3390 C   0  0  0  0  0  0  0  0  0  0  0  0
    2.7224   -5.9588    3.7002 C   0  0  2  0  0  0  0  0  0  0  0  0
    4.0739   -5.6813    4.4385 C   0  0  1  0  0  0  0  0  0  0  0  0
    4.4210   -6.9854    3.8038 C   0  0  1  0  0  0  0  0  0  0  0  0
    3.0162   -7.4823    3.8232 C   0  0  2  0  0  0  0  0  0  0  0  0
    2.8173   -8.3885    2.6330 N   0  0  2  0  0  0  0  0  0  0  0  0
    1.7360   -9.3938    2.7856 C   0  0  0  0  0  0  0  0  0  0  0  0
    0.4226   -8.7768    3.2322 C   0  0  0  0  0  0  0  0  0  0  0  0
   -0.9004   -9.3374    2.7554 C   0  0  0  0  0  0  0  0  0  0  0  0
   -0.4221   -8.0009    2.2483 C   0  0  0  0  0  0  0  0  0  0  0  0
    4.0905   -9.0262    2.1274 C   0  0  0  0  0  0  0  0  0  0  0  0
    5.2694   -8.0253    1.8266 C   0  0  0  0  0  0  0  0  0  0  0  0
    4.9908   -6.6326    2.4323 C   0  0  2  0  0  0  0  0  0  0  0  0
    7.8287   -5.7422    3.7429 H   0  0  0  0  0  0  0  0  0  0  0  0
    6.5691   -5.2203    2.0842 H   0  0  0  0  0  0  0  0  0  0  0  0
    5.9307   -4.7337    4.8260 H   0  0  0  0  0  0  0  0  0  0  0  0
    4.0975   -2.9681    4.2391 H   0  0  0  0  0  0  0  0  0  0  0  0
    5.7864   -2.7728    4.2491 H   0  0  0  0  0  0  0  0  0  0  0  0
    5.3799   -0.6754    1.8631 H   0  0  0  0  0  0  0  0  0  0  0  0
    3.0320   -1.5008    2.2459 H   0  0  0  0  0  0  0  0  0  0  0  0
    1.9554   -2.3831    0.4421 H   0  0  0  0  0  0  0  0  0  0  0  0
    2.4461   -4.4413   -0.5954 H   0  0  0  0  0  0  0  0  0  0  0  0
    3.8913   -1.9500   -3.0886 H   0  0  0  0  0  0  0  0  0  0  0  0
    3.0527   -1.4151   -1.5869 H   0  0  0  0  0  0  0  0  0  0  0  0
    5.9467   -1.2812   -2.1214 H   0  0  0  0  0  0  0  0  0  0  0  0
    5.1482   -1.1236   -0.5007 H   0  0  0  0  0  0  0  0  0  0  0  0
    5.9940   -3.6594   -2.0595 H   0  0  0  0  0  0  0  0  0  0  0  0
    6.5514   -4.6019    0.0001 H   0  0  0  0  0  0  0  0  0  0  0  0
    6.5104   -2.1018    0.7753 H   0  0  0  0  0  0  0  0  0  0  0  0
    6.9246   -3.2976    1.8041 H   0  0  0  0  0  0  0  0  0  0  0  0
    3.9800   -5.9225   -1.3408 H   0  0  0  0  0  0  0  0  0  0  0  0
    3.4292   -6.5965    0.9840 H   0  0  0  0  0  0  0  0  0  0  0  0
    2.6870   -4.2841    2.5692 H   0  0  0  0  0  0  0  0  0  0  0  0
    1.7725   -5.5355    1.8204 H   0  0  0  0  0  0  0  0  0  0  0  0
    1.8763   -5.6707    4.3197 H   0  0  0  0  0  0  0  0  0  0  0  0
    3.9530   -5.7617    5.5218 H   0  0  0  0  0  0  0  0  0  0  0  0
    5.0630   -7.5920    4.4422 H   0  0  0  0  0  0  0  0  0  0  0  0
    2.7477   -7.9146    4.7923 H   0  0  0  0  0  0  0  0  0  0  0  0
    1.5804   -9.8908    1.8249 H   0  0  0  0  0  0  0  0  0  0  0  0
    2.0222  -10.1666    3.5004 H   0  0  0  0  0  0  0  0  0  0  0  0
    0.4231   -8.4215    4.2625 H   0  0  0  0  0  0  0  0  0  0  0  0
   -0.8738  -10.1875    2.0759 H   0  0  0  0  0  0  0  0  0  0  0  0
   -1.7368   -9.3310    3.4528 H   0  0  0  0  0  0  0  0  0  0  0  0
   -0.9231   -7.1100    2.6210 H   0  0  0  0  0  0  0  0  0  0  0  0
   -0.0525   -7.9412    1.2268 H   0  0  0  0  0  0  0  0  0  0  0  0
    4.4238   -9.7355    2.8860 H   0  0  0  0  0  0  0  0  0  0  0  0
    3.8904   -9.6226    1.2357 H   0  0  0  0  0  0  0  0  0  0  0  0
    6.1822   -8.4414    2.2630 H   0  0  0  0  0  0  0  0  0  0  0  0
    5.4611   -7.9476    0.7579 H   0  0  0  0  0  0  0  0  0  0  0  0
    2.5098   -7.7858    1.8860 H   0  0  0  0  0  0  0  0  0  0  0  0
    3.8853   -4.0395   -2.3028 H   0  0  0  0  0  0  0  0  0  0  0  0
  1  2  1  0
  1 32  1  0
  2 31  1  0
  2  3  1  0
  2 33  1  6
  3 21  1  0
  3  4  1  0
  3 34  1  1
  4  5  1  0
  4 35  1  0
  4 36  1  0
  5 15  1  0
  5  6  1  1
  5  7  1  0
  6 37  1  0
  7  8  2  0
  7 38  1  0
  8  9  1  0
  8 39  1  0
  9 16  1  0
  9 10  1  0
  9 40  1  6
 10 13  1  0
 10 11  1  0
 10 69  1  6
 11 12  1  0
 11 41  1  0
 11 42  1  0
 12 13  1  0
 12 43  1  0
 12 44  1  0
 13 14  1  0
 13 45  1  6
 14 15  1  0
 14 16  1  0
 14 46  1  6
 15 47  1  0
 15 48  1  0
 16 17  1  6
 16 18  1  0
 17 49  1  0
 18 31  1  0
 18 19  1  0
 18 50  1  6
 19 20  1  0
 19 51  1  0
 19 52  1  0
 20 23  1  0
 20 21  1  0
 20 53  1  1
 21 22  1  0
 21 54  1  1
 22 31  1  0
 22 23  1  0
 22 55  1  1
 23 24  1  0
 23 56  1  1
 24 25  1  0
 24 29  1  0
 24 68  1  6
 25 26  1  0
 25 57  1  0
 25 58  1  0
 26 28  1  0
 26 27  1  0
 26 59  1  0
 27 28  1  0
 27 60  1  0
 27 61  1  0
 28 62  1  0
 28 63  1  0
 29 30  1  0
 29 64  1  0
 29 65  1  0
 31 30  1  6
 30 66  1  0
 30 67  1  0
M  CHG  2  10   1  24   1
M  END
>  <i_m_ct_stereo_status>  (411) 
1

>  <s_m_source_file>  (411) 
/var/tmp/pbs.5076255.sched01/tmpgahbdy6u/1388ql836nh.sdf

>  <i_m_source_file_index>  (411) 
31

>  <i_lp_mmshare_version>  (411) 
48012

>  <i_f3d_flags>  (411) 
0

>  <s_epik_input>  (411) 
W0NIMl0xW0NIMl1bQ0hdMVtDSDJdTihbQ0gyXVtDSDJdMilbQ0BASF0oW0NASF0zNClbQ0BIXShbQ0gyXTUpW0NAQEhdM1tDQEBIXShbQ0BIXTZbT0hdKVtDSDJdW0NAXShbT0hdKShbQ0hdPVtDSF03KVtDSDJdW0NAQEhdOFtDQEhdKFtDSDJdW0NIMl05KU45W0NASF03W0NAXTgoW09IXSlbQ0hdNVtDQF0yNDY=

>  <s_epik_cmdline>  (411) 
J2VwaWtfcHl0aG9uJywgJy1waHQnLCAnMi4wJywgJy1waCcsICc3LjAnLCAnLXRuJywgJzgnLCAnLW1hJywgJzIwMCcsICctaW1hZScsICc8aW5maWxlLm1hZT4nLCAnLW9tYWUnLCAnPG91dGZpbGUubWFlPic=

>  <r_epik_Ionization_Penalty>  (411) 
0.0124897

>  <r_epik_Ionization_Penalty_Charging>  (411) 
0.0124895

>  <r_epik_Ionization_Penalty_Neutral>  (411) 
2.13737e-07

>  <r_epik_State_Penalty>  (411) 
0.00932524

>  <r_epik_Charging_Adjusted_Penalty>  (411) 
0.0218148

>  <i_epik_Tot_Q>  (411) 
2

>  <i_epik_Tot_abs_Q>  (411) 
2

>  <s_lp_Force_Field>  (411) 
OPLS3e

>  <r_lp_Energy>  (411) 
176.212

>  <b_lp_Chiralities_Consistent>  (411) 
1

>  <s_lp_Variant>  (411) 
103:0-1

>  <s_i_glide_gridfile>  (411) 
pfpi4k_grid

>  <i_i_glide_lignum>  (411) 
31

>  <i_i_glide_rotatable_bonds>  (411) 
5

>  <r_i_docking_score>  (411) 
-4.26142

>  <r_i_glide_ligand_efficiency>  (411) 
-0.137465

>  <r_i_glide_ligand_efficiency_sa>  (411) 
-0.43183

>  <r_i_glide_ligand_efficiency_ln>  (411) 
-0.961081

>  <r_i_glide_gscore>  (411) 
-4.26142

>  <r_i_glide_lipo>  (411) 
-0.561044

>  <r_i_glide_hbond>  (411) 
-0.32

>  <r_i_glide_metal>  (411) 
-0

>  <r_i_glide_rewards>  (411) 
-0.500512

>  <r_i_glide_evdw>  (411) 
-27.1112

>  <r_i_glide_ecoul>  (411) 
-11.4717

>  <r_i_glide_erotb>  (411) 
0.218127

>  <r_i_glide_esite>  (411) 
-0.0216717

>  <r_i_glide_emodel>  (411) 
-49.127

>  <r_i_glide_energy>  (411) 
-38.5829

>  <r_i_glide_einternal>  (411) 
2.95302

>  <r_i_glide_intrahb_reward>  (411) 
-0

>  <i_i_glide_confnum>  (411) 
1

>  <i_i_glide_posenum>  (411) 
2

>  <r_i_glide_eff_state_penalty>  (411) 
0

>  <ligand_id>  (411) 
103

>  <original_smiles>  (411) 
OC1C2CC3(O)C=CC4N5CCC5C(C3)C4(O)C3CC4C2C2C4N(CC4CC4)CCC123

>  <smiles>  (411) 
[H]OC1([H])C2([H])C([H])([H])C3(O[H])C([H])=C([H])C4([H])C(O[H])(C5([H])C([H])([H])C6([H])C2([H])C2([H])C15C([H])([H])C([H])([H])[N+]([H])(C([H])([H])C1([H])C([H])([H])C1([H])[H])C62[H])C([H])(C3([H])[H])C1([H])C([H])([H])C([H])([H])[N+]41[H]

$$$$
103:0:2
     RDKit          3D

 69 77  0  0  1  0  0  0  0  0999 V2000
    4.9502   -4.1227    4.9800 O   0  0  0  0  0  0  0  0  0  0  0  0
    4.4598   -5.1190    4.0994 C   0  0  2  0  0  0  0  0  0  0  0  0
    5.6598   -5.9308    3.4651 C   0  0  1  0  0  0  0  0  0  0  0  0
    5.6911   -7.5101    3.4973 C   0  0  0  0  0  0  0  0  0  0  0  0
    4.4509   -8.4847    3.6624 C   0  0  2  0  0  0  0  0  0  0  0  0
    5.0402   -9.5647    4.3658 O   0  0  0  0  0  0  0  0  0  0  0  0
    3.9644   -9.1341    2.3625 C   0  0  0  0  0  0  0  0  0  0  0  0
    2.8194   -8.9748    1.6621 C   0  0  0  0  0  0  0  0  0  0  0  0
    1.6708   -7.9831    1.8656 C   0  0  1  0  0  0  0  0  0  0  0  0
    0.5620   -8.5888    2.6453 N   0  0  1  0  0  0  0  0  0  0  0  0
    0.3768  -10.0269    2.8106 C   0  0  0  0  0  0  0  0  0  0  0  0
    0.9940   -9.9175    4.1944 C   0  0  0  0  0  0  0  0  0  0  0  0
    0.8698   -8.3858    4.0557 C   0  0  1  0  0  0  0  0  0  0  0  0
    2.0484   -7.3654    4.1105 C   0  0  1  0  0  0  0  0  0  0  0  0
    3.3476   -8.0362    4.6530 C   0  0  0  0  0  0  0  0  0  0  0  0
    2.0385   -6.7158    2.6811 C   0  0  2  0  0  0  0  0  0  0  0  0
    0.8606   -5.9061    2.7027 O   0  0  0  0  0  0  0  0  0  0  0  0
    3.0955   -5.6911    2.0243 C   0  0  2  0  0  0  0  0  0  0  0  0
    4.0082   -6.2340    0.8816 C   0  0  0  0  0  0  0  0  0  0  0  0
    5.2213   -5.3700    0.7401 C   0  0  2  0  0  0  0  0  0  0  0  0
    5.9802   -5.2170    2.1006 C   0  0  1  0  0  0  0  0  0  0  0  0
    5.0987   -4.0188    2.1936 C   0  0  1  0  0  0  0  0  0  0  0  0
    5.0353   -3.8210    0.7147 C   0  0  2  0  0  0  0  0  0  0  0  0
    3.6930   -3.2274    0.3700 N   0  0  2  0  0  0  0  0  0  0  0  0
    3.6734   -2.4374   -0.8873 C   0  0  0  0  0  0  0  0  0  0  0  0
    4.2047   -3.2168   -2.0742 C   0  0  0  0  0  0  0  0  0  0  0  0
    5.6143   -2.9839   -2.5666 C   0  0  0  0  0  0  0  0  0  0  0  0
    4.4445   -2.5267   -3.4003 C   0  0  0  0  0  0  0  0  0  0  0  0
    3.0592   -2.4514    1.5039 C   0  0  0  0  0  0  0  0  0  0  0  0
    2.9413   -3.2312    2.8704 C   0  0  0  0  0  0  0  0  0  0  0  0
    3.8132   -4.5073    2.8575 C   0  0  2  0  0  0  0  0  0  0  0  0
    5.3165   -4.5505    5.7390 H   0  0  0  0  0  0  0  0  0  0  0  0
    3.7289   -5.6159    4.6944 H   0  0  0  0  0  0  0  0  0  0  0  0
    6.5161   -5.6811    4.0956 H   0  0  0  0  0  0  0  0  0  0  0  0
    6.3088   -7.8579    2.6693 H   0  0  0  0  0  0  0  0  0  0  0  0
    6.3297   -7.7042    4.3625 H   0  0  0  0  0  0  0  0  0  0  0  0
    4.4045  -10.2597    4.4494 H   0  0  0  0  0  0  0  0  0  0  0  0
    4.6493   -9.8734    1.9615 H   0  0  0  0  0  0  0  0  0  0  0  0
    2.7137   -9.5860    0.7765 H   0  0  0  0  0  0  0  0  0  0  0  0
    1.2979   -7.7077    0.8794 H   0  0  0  0  0  0  0  0  0  0  0  0
   -0.6861  -10.2685    2.8551 H   0  0  0  0  0  0  0  0  0  0  0  0
    0.9036  -10.6637    2.1017 H   0  0  0  0  0  0  0  0  0  0  0  0
    0.3713  -10.3397    4.9882 H   0  0  0  0  0  0  0  0  0  0  0  0
    2.0001  -10.3370    4.1915 H   0  0  0  0  0  0  0  0  0  0  0  0
   -0.0374   -8.0269    4.5472 H   0  0  0  0  0  0  0  0  0  0  0  0
    1.7858   -6.6079    4.8507 H   0  0  0  0  0  0  0  0  0  0  0  0
    3.0397   -8.8688    5.2850 H   0  0  0  0  0  0  0  0  0  0  0  0
    3.8229   -7.4466    5.4326 H   0  0  0  0  0  0  0  0  0  0  0  0
    1.0098   -5.1991    3.3145 H   0  0  0  0  0  0  0  0  0  0  0  0
    2.4399   -5.1314    1.3603 H   0  0  0  0  0  0  0  0  0  0  0  0
    4.4352   -7.1997    1.0644 H   0  0  0  0  0  0  0  0  0  0  0  0
    3.4717   -6.3210   -0.0633 H   0  0  0  0  0  0  0  0  0  0  0  0
    5.8944   -5.6972   -0.0526 H   0  0  0  0  0  0  0  0  0  0  0  0
    7.0293   -4.9576    1.9401 H   0  0  0  0  0  0  0  0  0  0  0  0
    5.5954   -3.1790    2.6873 H   0  0  0  0  0  0  0  0  0  0  0  0
    5.9004   -3.2728    0.3385 H   0  0  0  0  0  0  0  0  0  0  0  0
    2.6421   -2.1558   -1.1153 H   0  0  0  0  0  0  0  0  0  0  0  0
    4.2418   -1.5119   -0.7687 H   0  0  0  0  0  0  0  0  0  0  0  0
    3.8235   -4.2355   -2.1442 H   0  0  0  0  0  0  0  0  0  0  0  0
    6.2028   -2.2244   -2.0540 H   0  0  0  0  0  0  0  0  0  0  0  0
    6.1696   -3.8544   -2.9082 H   0  0  0  0  0  0  0  0  0  0  0  0
    4.2384   -3.0918   -4.3074 H   0  0  0  0  0  0  0  0  0  0  0  0
    4.2543   -1.4559   -3.4622 H   0  0  0  0  0  0  0  0  0  0  0  0
    3.6664   -1.5584    1.6684 H   0  0  0  0  0  0  0  0  0  0  0  0
    2.0714   -2.0874    1.2130 H   0  0  0  0  0  0  0  0  0  0  0  0
    3.2798   -2.5638    3.6654 H   0  0  0  0  0  0  0  0  0  0  0  0
    1.9043   -3.4660    3.1059 H   0  0  0  0  0  0  0  0  0  0  0  0
    3.0820   -4.0134    0.2006 H   0  0  0  0  0  0  0  0  0  0  0  0
   -0.3100   -8.1354    2.4127 H   0  0  0  0  0  0  0  0  0  0  0  0
  1  2  1  0
  1 32  1  0
  2 31  1  0
  2  3  1  0
  2 33  1  1
  3 21  1  0
  3  4  1  0
  3 34  1  1
  4  5  1  0
  4 35  1  0
  4 36  1  0
  5 15  1  0
  5  6  1  1
  5  7  1  0
  6 37  1  0
  7  8  2  0
  7 38  1  0
  8  9  1  0
  8 39  1  0
  9 16  1  0
  9 10  1  0
  9 40  1  6
 10 13  1  0
 10 11  1  0
 10 69  1  6
 11 12  1  0
 11 41  1  0
 11 42  1  0
 12 13  1  0
 12 43  1  0
 12 44  1  0
 13 14  1  0
 13 45  1  1
 14 15  1  0
 14 16  1  0
 14 46  1  1
 15 47  1  0
 15 48  1  0
 16 17  1  1
 16 18  1  0
 17 49  1  0
 18 31  1  0
 18 19  1  0
 18 50  1  6
 19 20  1  0
 19 51  1  0
 19 52  1  0
 20 23  1  0
 20 21  1  0
 20 53  1  6
 21 22  1  0
 21 54  1  6
 22 31  1  0
 22 23  1  0
 22 55  1  1
 23 24  1  0
 23 56  1  6
 24 25  1  0
 24 29  1  0
 24 68  1  6
 25 26  1  0
 25 57  1  0
 25 58  1  0
 26 28  1  0
 26 27  1  0
 26 59  1  0
 27 28  1  0
 27 60  1  0
 27 61  1  0
 28 62  1  0
 28 63  1  0
 29 30  1  0
 29 64  1  0
 29 65  1  0
 31 30  1  1
 30 66  1  0
 30 67  1  0
M  CHG  2  10   1  24   1
M  END
>  <i_m_ct_stereo_status>  (412) 
1

>  <s_m_source_file>  (412) 
/var/tmp/pbs.5076255.sched01/tmpgahbdy6u/1388ql836nh.sdf

>  <i_m_source_file_index>  (412) 
31

>  <i_lp_mmshare_version>  (412) 
48012

>  <i_f3d_flags>  (412) 
0

>  <s_epik_input>  (412) 
W0NIMl0xW0NIMl1bQ0hdMVtDSDJdTihbQ0gyXVtDSDJdMilbQ0BASF0oW0NASF0zNClbQ0BIXShbQ0gyXTUpW0NAQEhdM1tDQEBIXShbQ0BIXTZbT0hdKVtDSDJdW0NAXShbT0hdKShbQ0hdPVtDSF03KVtDSDJdW0NAQEhdOFtDQEhdKFtDSDJdW0NIMl05KU45W0NASF03W0NAXTgoW09IXSlbQ0hdNVtDQF0yNDY=

>  <s_epik_cmdline>  (412) 
J2VwaWtfcHl0aG9uJywgJy1waHQnLCAnMi4wJywgJy1waCcsICc3LjAnLCAnLXRuJywgJzgnLCAnLW1hJywgJzIwMCcsICctaW1hZScsICc8aW5maWxlLm1hZT4nLCAnLW9tYWUnLCAnPG91dGZpbGUubWFlPic=

>  <r_epik_Ionization_Penalty>  (412) 
0.0124897

>  <r_epik_Ionization_Penalty_Charging>  (412) 
0.0124895

>  <r_epik_Ionization_Penalty_Neutral>  (412) 
2.13737e-07

>  <r_epik_State_Penalty>  (412) 
0.00932524

>  <r_epik_Charging_Adjusted_Penalty>  (412) 
0.0218148

>  <i_epik_Tot_Q>  (412) 
2

>  <i_epik_Tot_abs_Q>  (412) 
2

>  <s_lp_Force_Field>  (412) 
OPLS3e

>  <r_lp_Energy>  (412) 
176.212

>  <b_lp_Chiralities_Consistent>  (412) 
1

>  <s_lp_Variant>  (412) 
103:0-1

>  <s_i_glide_gridfile>  (412) 
pfpi4k_grid

>  <i_i_glide_lignum>  (412) 
31

>  <i_i_glide_rotatable_bonds>  (412) 
5

>  <r_i_docking_score>  (412) 
-3.64008

>  <r_i_glide_ligand_efficiency>  (412) 
-0.117422

>  <r_i_glide_ligand_efficiency_sa>  (412) 
-0.368867

>  <r_i_glide_ligand_efficiency_ln>  (412) 
-0.820949

>  <r_i_glide_gscore>  (412) 
-3.64008

>  <r_i_glide_lipo>  (412) 
-0.662275

>  <r_i_glide_hbond>  (412) 
0

>  <r_i_glide_metal>  (412) 
-0

>  <r_i_glide_rewards>  (412) 
-0.500512

>  <r_i_glide_evdw>  (412) 
-29.9874

>  <r_i_glide_ecoul>  (412) 
-7.76146

>  <r_i_glide_erotb>  (412) 
0.218127

>  <r_i_glide_esite>  (412) 
-0.0318275

>  <r_i_glide_emodel>  (412) 
-47.8862

>  <r_i_glide_energy>  (412) 
-37.7488

>  <r_i_glide_einternal>  (412) 
0.686066

>  <r_i_glide_intrahb_reward>  (412) 
-0

>  <i_i_glide_confnum>  (412) 
1

>  <i_i_glide_posenum>  (412) 
3

>  <r_i_glide_eff_state_penalty>  (412) 
0

>  <ligand_id>  (412) 
103

>  <original_smiles>  (412) 
OC1C2CC3(O)C=CC4N5CCC5C(C3)C4(O)C3CC4C2C2C4N(CC4CC4)CCC123

>  <smiles>  (412) 
[H]OC1([H])C2([H])C([H])([H])C3(O[H])C([H])=C([H])C4([H])C(O[H])(C5([H])C([H])([H])C6([H])C2([H])C2([H])C15C([H])([H])C([H])([H])[N+]([H])(C([H])([H])C1([H])C([H])([H])C1([H])[H])C62[H])C([H])(C3([H])[H])C1([H])C([H])([H])C([H])([H])[N+]41[H]

$$$$
103:1:0
     RDKit          3D

 68 76  0  0  1  0  0  0  0  0999 V2000
    5.4246   -4.2869    4.8004 O   0  0  0  0  0  0  0  0  0  0  0  0
    4.7735   -5.1846    3.9151 C   0  0  2  0  0  0  0  0  0  0  0  0
    5.8128   -6.0991    3.1499 C   0  0  1  0  0  0  0  0  0  0  0  0
    5.6575   -7.6728    3.1325 C   0  0  0  0  0  0  0  0  0  0  0  0
    4.3304   -8.5015    3.3808 C   0  0  2  0  0  0  0  0  0  0  0  0
    4.8454   -9.6742    3.9850 O   0  0  0  0  0  0  0  0  0  0  0  0
    3.6550   -9.0355    2.1148 C   0  0  0  0  0  0  0  0  0  0  0  0
    2.4649   -8.7289    1.5555 C   0  0  0  0  0  0  0  0  0  0  0  0
    1.4660   -7.6155    1.8949 C   0  0  1  0  0  0  0  0  0  0  0  0
    0.3458   -8.0699    2.7361 N   0  0  0  0  0  0  0  0  0  0  0  0
   -0.0177   -9.4875    2.8341 C   0  0  0  0  0  0  0  0  0  0  0  0
    0.8241   -9.5647    4.0972 C   0  0  0  0  0  0  0  0  0  0  0  0
    0.8598   -8.0227    4.0966 C   0  0  1  0  0  0  0  0  0  0  0  0
    2.1328   -7.1277    4.0902 C   0  0  1  0  0  0  0  0  0  0  0  0
    3.3836   -7.9716    4.4855 C   0  0  0  0  0  0  0  0  0  0  0  0
    2.0681   -6.4211    2.6866 C   0  0  2  0  0  0  0  0  0  0  0  0
    1.0197   -5.4626    2.8460 O   0  0  0  0  0  0  0  0  0  0  0  0
    3.1748   -5.5088    1.9612 C   0  0  2  0  0  0  0  0  0  0  0  0
    3.9051   -6.1106    0.7233 C   0  0  0  0  0  0  0  0  0  0  0  0
    5.1954   -5.3855    0.4938 C   0  0  2  0  0  0  0  0  0  0  0  0
    6.0894   -5.3728    1.7799 C   0  0  1  0  0  0  0  0  0  0  0  0
    5.3675   -4.0850    1.9886 C   0  0  1  0  0  0  0  0  0  0  0  0
    5.1893   -3.8290    0.5264 C   0  0  2  0  0  0  0  0  0  0  0  0
    3.9004   -3.0696    0.3343 N   0  0  2  0  0  0  0  0  0  0  0  0
    3.8630   -2.2327   -0.8936 C   0  0  0  0  0  0  0  0  0  0  0  0
    3.6625   -3.0649   -2.1443 C   0  0  0  0  0  0  0  0  0  0  0  0
    4.8358   -3.3969   -3.0410 C   0  0  0  0  0  0  0  0  0  0  0  0
    3.7792   -2.4341   -3.5173 C   0  0  0  0  0  0  0  0  0  0  0  0
    3.4704   -2.2736    1.5452 C   0  0  0  0  0  0  0  0  0  0  0  0
    3.3935   -3.0850    2.8945 C   0  0  0  0  0  0  0  0  0  0  0  0
    4.0992   -4.4494    2.7591 C   0  0  2  0  0  0  0  0  0  0  0  0
    6.1232   -3.8569    4.3389 H   0  0  0  0  0  0  0  0  0  0  0  0
    4.0440   -5.6248    4.5536 H   0  0  0  0  0  0  0  0  0  0  0  0
    6.7418   -5.9761    3.7110 H   0  0  0  0  0  0  0  0  0  0  0  0
    6.1650   -8.0622    2.2489 H   0  0  0  0  0  0  0  0  0  0  0  0
    6.3300   -7.9691    3.9412 H   0  0  0  0  0  0  0  0  0  0  0  0
    4.1350  -10.2868    4.1025 H   0  0  0  0  0  0  0  0  0  0  0  0
    4.2071   -9.8235    1.6189 H   0  0  0  0  0  0  0  0  0  0  0  0
    2.1973   -9.2849    0.6672 H   0  0  0  0  0  0  0  0  0  0  0  0
    1.0746   -7.2580    0.9439 H   0  0  0  0  0  0  0  0  0  0  0  0
   -1.0782   -9.6202    3.0472 H   0  0  0  0  0  0  0  0  0  0  0  0
    0.3172  -10.1220    2.0135 H   0  0  0  0  0  0  0  0  0  0  0  0
    0.2920   -9.9881    4.9519 H   0  0  0  0  0  0  0  0  0  0  0  0
    1.7637  -10.0841    3.9128 H   0  0  0  0  0  0  0  0  0  0  0  0
    0.0738   -7.6333    4.7431 H   0  0  0  0  0  0  0  0  0  0  0  0
    2.0186   -6.3845    4.8800 H   0  0  0  0  0  0  0  0  0  0  0  0
    3.0262   -8.7990    5.0988 H   0  0  0  0  0  0  0  0  0  0  0  0
    3.9952   -7.4820    5.2419 H   0  0  0  0  0  0  0  0  0  0  0  0
    1.2780   -4.8712    3.5341 H   0  0  0  0  0  0  0  0  0  0  0  0
    2.5332   -4.8522    1.3760 H   0  0  0  0  0  0  0  0  0  0  0  0
    4.2274   -7.1270    0.8331 H   0  0  0  0  0  0  0  0  0  0  0  0
    3.2813   -6.0938   -0.1695 H   0  0  0  0  0  0  0  0  0  0  0  0
    5.7562   -5.7566   -0.3633 H   0  0  0  0  0  0  0  0  0  0  0  0
    7.1421   -5.2291    1.5225 H   0  0  0  0  0  0  0  0  0  0  0  0
    6.0046   -3.3280    2.4493 H   0  0  0  0  0  0  0  0  0  0  0  0
    6.0789   -3.3767    0.0817 H   0  0  0  0  0  0  0  0  0  0  0  0
    3.0209   -1.5355   -0.8512 H   0  0  0  0  0  0  0  0  0  0  0  0
    4.7675   -1.6275   -0.9799 H   0  0  0  0  0  0  0  0  0  0  0  0
    2.8733   -3.8166   -2.0582 H   0  0  0  0  0  0  0  0  0  0  0  0
    5.8072   -2.9931   -2.7594 H   0  0  0  0  0  0  0  0  0  0  0  0
    4.8495   -4.3916   -3.4815 H   0  0  0  0  0  0  0  0  0  0  0  0
    3.1020   -2.7894   -4.2922 H   0  0  0  0  0  0  0  0  0  0  0  0
    4.0365   -1.3774   -3.5694 H   0  0  0  0  0  0  0  0  0  0  0  0
    4.1818   -1.4549    1.6742 H   0  0  0  0  0  0  0  0  0  0  0  0
    2.4980   -1.8074    1.3689 H   0  0  0  0  0  0  0  0  0  0  0  0
    3.8802   -2.4927    3.6728 H   0  0  0  0  0  0  0  0  0  0  0  0
    2.3631   -3.2109    3.2247 H   0  0  0  0  0  0  0  0  0  0  0  0
    3.1825   -3.7670    0.2105 H   0  0  0  0  0  0  0  0  0  0  0  0
  1  2  1  0
  1 32  1  0
  2 31  1  0
  2  3  1  0
  2 33  1  1
  3 21  1  0
  3  4  1  0
  3 34  1  1
  4  5  1  0
  4 35  1  0
  4 36  1  0
  5 15  1  0
  5  6  1  1
  5  7  1  0
  6 37  1  0
  7  8  2  0
  7 38  1  0
  8  9  1  0
  8 39  1  0
  9 16  1  0
  9 10  1  0
  9 40  1  6
 10 13  1  0
 10 11  1  0
 11 12  1  0
 11 41  1  0
 11 42  1  0
 12 13  1  0
 12 43  1  0
 12 44  1  0
 13 14  1  0
 13 45  1  1
 14 15  1  0
 14 16  1  0
 14 46  1  1
 15 47  1  0
 15 48  1  0
 16 17  1  1
 16 18  1  0
 17 49  1  0
 18 31  1  0
 18 19  1  0
 18 50  1  6
 19 20  1  0
 19 51  1  0
 19 52  1  0
 20 23  1  0
 20 21  1  0
 20 53  1  6
 21 22  1  0
 21 54  1  6
 22 31  1  0
 22 23  1  0
 22 55  1  1
 23 24  1  0
 23 56  1  6
 24 25  1  0
 24 29  1  0
 24 68  1  6
 25 26  1  0
 25 57  1  0
 25 58  1  0
 26 28  1  0
 26 27  1  0
 26 59  1  0
 27 28  1  0
 27 60  1  0
 27 61  1  0
 28 62  1  0
 28 63  1  0
 29 30  1  0
 29 64  1  0
 29 65  1  0
 31 30  1  1
 30 66  1  0
 30 67  1  0
M  CHG  1  24   1
M  END
>  <i_m_ct_stereo_status>  (413) 
1

>  <s_m_source_file>  (413) 
/var/tmp/pbs.5076255.sched01/tmpgahbdy6u/1388ql836nh.sdf

>  <i_m_source_file_index>  (413) 
32

>  <i_lp_mmshare_version>  (413) 
48012

>  <i_f3d_flags>  (413) 
0

>  <s_epik_input>  (413) 
W0NIMl0xW0NIMl1bQ0hdMVtDSDJdTihbQ0gyXVtDSDJdMilbQ0BASF0oW0NASF0zNClbQ0BIXShbQ0gyXTUpW0NAQEhdM1tDQEBIXShbQ0BIXTZbT0hdKVtDSDJdW0NAXShbT0hdKShbQ0hdPVtDSF03KVtDSDJdW0NAQEhdOFtDQEhdKFtDSDJdW0NIMl05KU45W0NASF03W0NAXTgoW09IXSlbQ0hdNVtDQF0yNDY=

>  <s_epik_cmdline>  (413) 
J2VwaWtfcHl0aG9uJywgJy1waHQnLCAnMi4wJywgJy1waCcsICc3LjAnLCAnLXRuJywgJzgnLCAnLW1hJywgJzIwMCcsICctaW1hZScsICc8aW5maWxlLm1hZT4nLCAnLW9tYWUnLCAnPG91dGZpbGUubWFlPic=

>  <r_epik_Ionization_Penalty>  (413) 
2.31315

>  <r_epik_Ionization_Penalty_Charging>  (413) 
0.000321928

>  <r_epik_Ionization_Penalty_Neutral>  (413) 
2.31283

>  <r_epik_State_Penalty>  (413) 
2.46442

>  <r_epik_Charging_Adjusted_Penalty>  (413) 
2.46474

>  <i_epik_Tot_Q>  (413) 
1

>  <i_epik_Tot_abs_Q>  (413) 
1

>  <s_lp_Force_Field>  (413) 
OPLS3e

>  <r_lp_Energy>  (413) 
165.111

>  <b_lp_Chiralities_Consistent>  (413) 
1

>  <s_lp_Variant>  (413) 
103:0-2

>  <s_i_glide_gridfile>  (413) 
pfpi4k_grid

>  <i_i_glide_lignum>  (413) 
32

>  <i_i_glide_rotatable_bonds>  (413) 
5

>  <r_i_docking_score>  (413) 
-3.36364

>  <r_i_glide_ligand_efficiency>  (413) 
-0.108505

>  <r_i_glide_ligand_efficiency_sa>  (413) 
-0.340854

>  <r_i_glide_ligand_efficiency_ln>  (413) 
-0.758604

>  <r_i_glide_gscore>  (413) 
-3.36364

>  <r_i_glide_lipo>  (413) 
-0.7018

>  <r_i_glide_hbond>  (413) 
0

>  <r_i_glide_metal>  (413) 
-0

>  <r_i_glide_rewards>  (413) 
-0.507385

>  <r_i_glide_evdw>  (413) 
-31.9755

>  <r_i_glide_ecoul>  (413) 
-5.14481

>  <r_i_glide_erotb>  (413) 
0.219063

>  <r_i_glide_esite>  (413) 
-0.00302053

>  <r_i_glide_emodel>  (413) 
-45.8698

>  <r_i_glide_energy>  (413) 
-37.1204

>  <r_i_glide_einternal>  (413) 
0.511881

>  <r_i_glide_intrahb_reward>  (413) 
-0

>  <i_i_glide_confnum>  (413) 
1

>  <i_i_glide_posenum>  (413) 
2

>  <r_i_glide_eff_state_penalty>  (413) 
0

>  <ligand_id>  (413) 
103

>  <original_smiles>  (413) 
OC1C2CC3(O)C=CC4N5CCC5C(C3)C4(O)C3CC4C2C2C4N(CC4CC4)CCC123

>  <smiles>  (413) 
[H]OC1([H])C2([H])C([H])([H])C3(O[H])C([H])=C([H])C4([H])N5C([H])([H])C([H])([H])C5([H])C([H])(C3([H])[H])C4(O[H])C3([H])C([H])([H])C4([H])C2([H])C2([H])C13C([H])([H])C([H])([H])[N+]([H])(C([H])([H])C1([H])C([H])([H])C1([H])[H])C42[H]

$$$$
103:1:1
     RDKit          3D

 68 76  0  0  1  0  0  0  0  0999 V2000
    5.4008   -4.2322    4.6485 O   0  0  0  0  0  0  0  0  0  0  0  0
    4.7387   -5.1450    3.7857 C   0  0  2  0  0  0  0  0  0  0  0  0
    5.7751   -6.0417    2.9955 C   0  0  1  0  0  0  0  0  0  0  0  0
    5.6528   -7.6172    2.9851 C   0  0  0  0  0  0  0  0  0  0  0  0
    4.3511   -8.4721    3.2725 C   0  0  2  0  0  0  0  0  0  0  0  0
    4.9101   -9.6302    3.8674 O   0  0  0  0  0  0  0  0  0  0  0  0
    3.6509   -9.0243    2.0281 C   0  0  0  0  0  0  0  0  0  0  0  0
    2.4408   -8.7443    1.5014 C   0  0  0  0  0  0  0  0  0  0  0  0
    1.4289   -7.6488    1.8607 C   0  0  1  0  0  0  0  0  0  0  0  0
    0.3388   -8.1183    2.7331 N   0  0  0  0  0  0  0  0  0  0  0  0
    0.0057   -9.5428    2.8462 C   0  0  0  0  0  0  0  0  0  0  0  0
    0.8814   -9.5982    4.0873 C   0  0  0  0  0  0  0  0  0  0  0  0
    0.8880   -8.0556    4.0794 C   0  0  1  0  0  0  0  0  0  0  0  0
    2.1441   -7.1378    4.0362 C   0  0  1  0  0  0  0  0  0  0  0  0
    3.4229   -7.9567    4.4003 C   0  0  0  0  0  0  0  0  0  0  0  0
    2.0313   -6.4405    2.6308 C   0  0  2  0  0  0  0  0  0  0  0  0
    0.9775   -5.4951    2.8100 O   0  0  0  0  0  0  0  0  0  0  0  0
    3.0988   -5.5096    1.8730 C   0  0  2  0  0  0  0  0  0  0  0  0
    3.8073   -6.1027    0.6201 C   0  0  0  0  0  0  0  0  0  0  0  0
    5.0752   -5.3544    0.3547 C   0  0  2  0  0  0  0  0  0  0  0  0
    6.0021   -5.3170    1.6168 C   0  0  1  0  0  0  0  0  0  0  0  0
    5.2606   -4.0437    1.8414 C   0  0  1  0  0  0  0  0  0  0  0  0
    5.0409   -3.7990    0.3846 C   0  0  2  0  0  0  0  0  0  0  0  0
    3.7357   -3.0682    0.2178 N   0  0  2  0  0  0  0  0  0  0  0  0
    3.6649   -2.2397   -1.0119 C   0  0  0  0  0  0  0  0  0  0  0  0
    3.5370   -3.0815   -2.2628 C   0  0  0  0  0  0  0  0  0  0  0  0
    4.7687   -3.4497   -3.0607 C   0  0  0  0  0  0  0  0  0  0  0  0
    3.7695   -2.4767   -3.6310 C   0  0  0  0  0  0  0  0  0  0  0  0
    3.3165   -2.2725    1.4331 C   0  0  0  0  0  0  0  0  0  0  0  0
    3.2895   -3.0765    2.7895 C   0  0  0  0  0  0  0  0  0  0  0  0
    4.0196   -4.4279    2.6446 C   0  0  2  0  0  0  0  0  0  0  0  0
    6.0369   -3.7504    4.1508 H   0  0  0  0  0  0  0  0  0  0  0  0
    4.0352   -5.5968    4.4452 H   0  0  0  0  0  0  0  0  0  0  0  0
    6.7146   -5.8969    3.5331 H   0  0  0  0  0  0  0  0  0  0  0  0
    6.1474   -7.9982    2.0907 H   0  0  0  0  0  0  0  0  0  0  0  0
    6.3497   -7.8913    3.7808 H   0  0  0  0  0  0  0  0  0  0  0  0
    5.1820  -10.2264    3.1858 H   0  0  0  0  0  0  0  0  0  0  0  0
    4.1956   -9.8045    1.5131 H   0  0  0  0  0  0  0  0  0  0  0  0
    2.1691   -9.3123    0.6227 H   0  0  0  0  0  0  0  0  0  0  0  0
    1.0050   -7.3054    0.9189 H   0  0  0  0  0  0  0  0  0  0  0  0
   -1.0459   -9.6965    3.0870 H   0  0  0  0  0  0  0  0  0  0  0  0
    0.3319  -10.1734    2.0196 H   0  0  0  0  0  0  0  0  0  0  0  0
    0.3788  -10.0285    4.9565 H   0  0  0  0  0  0  0  0  0  0  0  0
    1.8262  -10.1006    3.8819 H   0  0  0  0  0  0  0  0  0  0  0  0
    0.1113   -7.6797    4.7461 H   0  0  0  0  0  0  0  0  0  0  0  0
    2.0343   -6.3919    4.8241 H   0  0  0  0  0  0  0  0  0  0  0  0
    3.1011   -8.7945    5.0191 H   0  0  0  0  0  0  0  0  0  0  0  0
    4.0415   -7.4542    5.1422 H   0  0  0  0  0  0  0  0  0  0  0  0
    1.2758   -4.8485    3.4281 H   0  0  0  0  0  0  0  0  0  0  0  0
    2.4338   -4.8692    1.2962 H   0  0  0  0  0  0  0  0  0  0  0  0
    4.1505   -7.1124    0.7244 H   0  0  0  0  0  0  0  0  0  0  0  0
    3.1591   -6.1001   -0.2559 H   0  0  0  0  0  0  0  0  0  0  0  0
    5.6139   -5.7125   -0.5221 H   0  0  0  0  0  0  0  0  0  0  0  0
    7.0439   -5.1517    1.3300 H   0  0  0  0  0  0  0  0  0  0  0  0
    5.8946   -3.2713    2.2815 H   0  0  0  0  0  0  0  0  0  0  0  0
    5.9108   -3.3316   -0.0821 H   0  0  0  0  0  0  0  0  0  0  0  0
    2.7785   -1.6068   -0.9831 H   0  0  0  0  0  0  0  0  0  0  0  0
    4.5245   -1.5701   -1.0867 H   0  0  0  0  0  0  0  0  0  0  0  0
    2.7300   -3.8192   -2.2245 H   0  0  0  0  0  0  0  0  0  0  0  0
    5.7206   -3.0586   -2.7030 H   0  0  0  0  0  0  0  0  0  0  0  0
    4.7975   -4.4554   -3.4751 H   0  0  0  0  0  0  0  0  0  0  0  0
    3.1500   -2.8359   -4.4508 H   0  0  0  0  0  0  0  0  0  0  0  0
    4.0493   -1.4261   -3.6805 H   0  0  0  0  0  0  0  0  0  0  0  0
    4.0141   -1.4387    1.5413 H   0  0  0  0  0  0  0  0  0  0  0  0
    2.3308   -1.8262    1.2775 H   0  0  0  0  0  0  0  0  0  0  0  0
    3.7839   -2.4711    3.5525 H   0  0  0  0  0  0  0  0  0  0  0  0
    2.2701   -3.2193    3.1463 H   0  0  0  0  0  0  0  0  0  0  0  0
    3.0288   -3.7803    0.1108 H   0  0  0  0  0  0  0  0  0  0  0  0
  1  2  1  0
  1 32  1  0
  2 31  1  0
  2  3  1  0
  2 33  1  1
  3 21  1  0
  3  4  1  0
  3 34  1  1
  4  5  1  0
  4 35  1  0
  4 36  1  0
  5 15  1  0
  5  6  1  1
  5  7  1  0
  6 37  1  0
  7  8  2  0
  7 38  1  0
  8  9  1  0
  8 39  1  0
  9 16  1  0
  9 10  1  0
  9 40  1  6
 10 13  1  0
 10 11  1  0
 11 12  1  0
 11 41  1  0
 11 42  1  0
 12 13  1  0
 12 43  1  0
 12 44  1  0
 13 14  1  0
 13 45  1  1
 14 15  1  0
 14 16  1  0
 14 46  1  1
 15 47  1  0
 15 48  1  0
 16 17  1  1
 16 18  1  0
 17 49  1  0
 18 31  1  0
 18 19  1  0
 18 50  1  6
 19 20  1  0
 19 51  1  0
 19 52  1  0
 20 23  1  0
 20 21  1  0
 20 53  1  6
 21 22  1  0
 21 54  1  6
 22 31  1  0
 22 23  1  0
 22 55  1  1
 23 24  1  0
 23 56  1  6
 24 25  1  0
 24 29  1  0
 24 68  1  6
 25 26  1  0
 25 57  1  0
 25 58  1  0
 26 28  1  0
 26 27  1  0
 26 59  1  0
 27 28  1  0
 27 60  1  0
 27 61  1  0
 28 62  1  0
 28 63  1  0
 29 30  1  0
 29 64  1  0
 29 65  1  0
 31 30  1  1
 30 66  1  0
 30 67  1  0
M  CHG  1  24   1
M  END
>  <i_m_ct_stereo_status>  (414) 
1

>  <s_m_source_file>  (414) 
/var/tmp/pbs.5076255.sched01/tmpgahbdy6u/1388ql836nh.sdf

>  <i_m_source_file_index>  (414) 
32

>  <i_lp_mmshare_version>  (414) 
48012

>  <i_f3d_flags>  (414) 
0

>  <s_epik_input>  (414) 
W0NIMl0xW0NIMl1bQ0hdMVtDSDJdTihbQ0gyXVtDSDJdMilbQ0BASF0oW0NASF0zNClbQ0BIXShbQ0gyXTUpW0NAQEhdM1tDQEBIXShbQ0BIXTZbT0hdKVtDSDJdW0NAXShbT0hdKShbQ0hdPVtDSF03KVtDSDJdW0NAQEhdOFtDQEhdKFtDSDJdW0NIMl05KU45W0NASF03W0NAXTgoW09IXSlbQ0hdNVtDQF0yNDY=

>  <s_epik_cmdline>  (414) 
J2VwaWtfcHl0aG9uJywgJy1waHQnLCAnMi4wJywgJy1waCcsICc3LjAnLCAnLXRuJywgJzgnLCAnLW1hJywgJzIwMCcsICctaW1hZScsICc8aW5maWxlLm1hZT4nLCAnLW9tYWUnLCAnPG91dGZpbGUubWFlPic=

>  <r_epik_Ionization_Penalty>  (414) 
2.31315

>  <r_epik_Ionization_Penalty_Charging>  (414) 
0.000321928

>  <r_epik_Ionization_Penalty_Neutral>  (414) 
2.31283

>  <r_epik_State_Penalty>  (414) 
2.46442

>  <r_epik_Charging_Adjusted_Penalty>  (414) 
2.46474

>  <i_epik_Tot_Q>  (414) 
1

>  <i_epik_Tot_abs_Q>  (414) 
1

>  <s_lp_Force_Field>  (414) 
OPLS3e

>  <r_lp_Energy>  (414) 
165.111

>  <b_lp_Chiralities_Consistent>  (414) 
1

>  <s_lp_Variant>  (414) 
103:0-2

>  <s_i_glide_gridfile>  (414) 
pfpi4k_grid

>  <i_i_glide_lignum>  (414) 
32

>  <i_i_glide_rotatable_bonds>  (414) 
5

>  <r_i_docking_score>  (414) 
-3.32519

>  <r_i_glide_ligand_efficiency>  (414) 
-0.107264

>  <r_i_glide_ligand_efficiency_sa>  (414) 
-0.336958

>  <r_i_glide_ligand_efficiency_ln>  (414) 
-0.749933

>  <r_i_glide_gscore>  (414) 
-3.32519

>  <r_i_glide_lipo>  (414) 
-0.67317

>  <r_i_glide_hbond>  (414) 
0

>  <r_i_glide_metal>  (414) 
-0

>  <r_i_glide_rewards>  (414) 
-0.507385

>  <r_i_glide_evdw>  (414) 
-30.9079

>  <r_i_glide_ecoul>  (414) 
-5.41549

>  <r_i_glide_erotb>  (414) 
0.219063

>  <r_i_glide_esite>  (414) 
-0.00598351

>  <r_i_glide_emodel>  (414) 
-44.8478

>  <r_i_glide_energy>  (414) 
-36.3234

>  <r_i_glide_einternal>  (414) 
0.602349

>  <r_i_glide_intrahb_reward>  (414) 
-0

>  <i_i_glide_confnum>  (414) 
1

>  <i_i_glide_posenum>  (414) 
21

>  <r_i_glide_eff_state_penalty>  (414) 
0

>  <ligand_id>  (414) 
103

>  <original_smiles>  (414) 
OC1C2CC3(O)C=CC4N5CCC5C(C3)C4(O)C3CC4C2C2C4N(CC4CC4)CCC123

>  <smiles>  (414) 
[H]OC1([H])C2([H])C([H])([H])C3(O[H])C([H])=C([H])C4([H])N5C([H])([H])C([H])([H])C5([H])C([H])(C3([H])[H])C4(O[H])C3([H])C([H])([H])C4([H])C2([H])C2([H])C13C([H])([H])C([H])([H])[N+]([H])(C([H])([H])C1([H])C([H])([H])C1([H])[H])C42[H]

$$$$
103:1:2
     RDKit          3D

 68 76  0  0  1  0  0  0  0  0999 V2000
    5.7934   -4.6666    4.5576 O   0  0  0  0  0  0  0  0  0  0  0  0
    4.7863   -5.2764    3.7682 C   0  0  2  0  0  0  0  0  0  0  0  0
    5.3967   -6.4022    2.8384 C   0  0  1  0  0  0  0  0  0  0  0  0
    4.7940   -7.8616    2.8178 C   0  0  0  0  0  0  0  0  0  0  0  0
    3.3353   -8.2912    3.2550 C   0  0  2  0  0  0  0  0  0  0  0  0
    3.5706   -9.5949    3.7579 O   0  0  0  0  0  0  0  0  0  0  0  0
    2.3573   -8.5304    2.1008 C   0  0  0  0  0  0  0  0  0  0  0  0
    1.2434   -7.8595    1.7362 C   0  0  0  0  0  0  0  0  0  0  0  0
    0.6758   -6.5333    2.2427 C   0  0  1  0  0  0  0  0  0  0  0  0
   -0.4048   -6.6958    3.2262 N   0  0  0  0  0  0  0  0  0  0  0  0
   -1.1488   -7.9551    3.3522 C   0  0  0  0  0  0  0  0  0  0  0  0
   -0.1998   -8.3420    4.4775 C   0  0  0  0  0  0  0  0  0  0  0  0
    0.2856   -6.8786    4.4964 C   0  0  1  0  0  0  0  0  0  0  0  0
    1.7546   -6.3909    4.3131 C   0  0  1  0  0  0  0  0  0  0  0  0
    2.7483   -7.5792    4.4986 C   0  0  0  0  0  0  0  0  0  0  0  0
    1.7059   -5.6106    2.9542 C   0  0  2  0  0  0  0  0  0  0  0  0
    1.0370   -4.4052    3.3256 O   0  0  0  0  0  0  0  0  0  0  0  0
    2.9097   -5.0129    2.0738 C   0  0  2  0  0  0  0  0  0  0  0  0
    3.2486   -5.7259    0.7294 C   0  0  0  0  0  0  0  0  0  0  0  0
    4.6505   -5.3886    0.3173 C   0  0  2  0  0  0  0  0  0  0  0  0
    5.6781   -5.7078    1.4538 C   0  0  1  0  0  0  0  0  0  0  0  0
    5.4016   -4.2838    1.7935 C   0  0  1  0  0  0  0  0  0  0  0  0
    5.1085   -3.9037    0.3831 C   0  0  2  0  0  0  0  0  0  0  0  0
    4.0819   -2.8021    0.3872 N   0  0  2  0  0  0  0  0  0  0  0  0
    4.1054   -1.9304   -0.8134 C   0  0  0  0  0  0  0  0  0  0  0  0
    3.9701   -2.7107   -2.1128 C   0  0  0  0  0  0  0  0  0  0  0  0
    3.7490   -1.9872   -3.4220 C   0  0  0  0  0  0  0  0  0  0  0  0
    2.6359   -2.8002   -2.8166 C   0  0  0  0  0  0  0  0  0  0  0  0
    4.0667   -1.9841    1.6595 C   0  0  0  0  0  0  0  0  0  0  0  0
    3.9500   -2.8120    2.9958 C   0  0  0  0  0  0  0  0  0  0  0  0
    4.2028   -4.3116    2.7389 C   0  0  2  0  0  0  0  0  0  0  0  0
    6.5198   -4.4460    3.9976 H   0  0  0  0  0  0  0  0  0  0  0  0
    4.0551   -5.5227    4.5047 H   0  0  0  0  0  0  0  0  0  0  0  0
    6.3907   -6.5822    3.2555 H   0  0  0  0  0  0  0  0  0  0  0  0
    5.0373   -8.3261    1.8614 H   0  0  0  0  0  0  0  0  0  0  0  0
    5.4584   -8.3777    3.5150 H   0  0  0  0  0  0  0  0  0  0  0  0
    3.7844  -10.1747    3.0425 H   0  0  0  0  0  0  0  0  0  0  0  0
    2.5694   -9.4141    1.5142 H   0  0  0  0  0  0  0  0  0  0  0  0
    0.6899   -8.2609    0.8978 H   0  0  0  0  0  0  0  0  0  0  0  0
    0.2791   -6.0416    1.3597 H   0  0  0  0  0  0  0  0  0  0  0  0
   -2.1605   -7.7932    3.7243 H   0  0  0  0  0  0  0  0  0  0  0  0
   -1.1349   -8.6077    2.4773 H   0  0  0  0  0  0  0  0  0  0  0  0
   -0.7040   -8.6444    5.3977 H   0  0  0  0  0  0  0  0  0  0  0  0
    0.5152   -9.0962    4.1518 H   0  0  0  0  0  0  0  0  0  0  0  0
   -0.2533   -6.3176    5.2607 H   0  0  0  0  0  0  0  0  0  0  0  0
    1.9721   -5.6865    5.1171 H   0  0  0  0  0  0  0  0  0  0  0  0
    2.2543   -8.3087    5.1402 H   0  0  0  0  0  0  0  0  0  0  0  0
    3.5715   -7.3285    5.1648 H   0  0  0  0  0  0  0  0  0  0  0  0
    1.0045   -3.8315    2.5800 H   0  0  0  0  0  0  0  0  0  0  0  0
    2.4122   -4.1693    1.5995 H   0  0  0  0  0  0  0  0  0  0  0  0
    3.2749   -6.7969    0.7752 H   0  0  0  0  0  0  0  0  0  0  0  0
    2.5365   -5.4833   -0.0599 H   0  0  0  0  0  0  0  0  0  0  0  0
    4.9481   -5.8461   -0.6265 H   0  0  0  0  0  0  0  0  0  0  0  0
    6.6779   -5.8544    1.0392 H   0  0  0  0  0  0  0  0  0  0  0  0
    6.2885   -3.7692    2.1623 H   0  0  0  0  0  0  0  0  0  0  0  0
    6.0267   -3.6995   -0.1749 H   0  0  0  0  0  0  0  0  0  0  0  0
    3.2839   -1.2077   -0.7522 H   0  0  0  0  0  0  0  0  0  0  0  0
    5.0313   -1.3535   -0.8409 H   0  0  0  0  0  0  0  0  0  0  0  0
    4.6218   -3.5814   -2.1959 H   0  0  0  0  0  0  0  0  0  0  0  0
    3.6518   -0.9024   -3.4002 H   0  0  0  0  0  0  0  0  0  0  0  0
    4.2319   -2.3998   -4.3044 H   0  0  0  0  0  0  0  0  0  0  0  0
    2.3857   -3.7556   -3.2760 H   0  0  0  0  0  0  0  0  0  0  0  0
    1.8060   -2.2594   -2.3708 H   0  0  0  0  0  0  0  0  0  0  0  0
    4.9949   -1.4097    1.6953 H   0  0  0  0  0  0  0  0  0  0  0  0
    3.2593   -1.2491    1.6304 H   0  0  0  0  0  0  0  0  0  0  0  0
    4.6921   -2.4295    3.6993 H   0  0  0  0  0  0  0  0  0  0  0  0
    2.9854   -2.6606    3.4788 H   0  0  0  0  0  0  0  0  0  0  0  0
    3.1853   -3.2659    0.3528 H   0  0  0  0  0  0  0  0  0  0  0  0
  1  2  1  0
  1 32  1  0
  2 31  1  0
  2  3  1  0
  2 33  1  1
  3 21  1  0
  3  4  1  0
  3 34  1  1
  4  5  1  0
  4 35  1  0
  4 36  1  0
  5 15  1  0
  5  6  1  1
  5  7  1  0
  6 37  1  0
  7  8  2  0
  7 38  1  0
  8  9  1  0
  8 39  1  0
  9 16  1  0
  9 10  1  0
  9 40  1  6
 10 13  1  0
 10 11  1  0
 11 12  1  0
 11 41  1  0
 11 42  1  0
 12 13  1  0
 12 43  1  0
 12 44  1  0
 13 14  1  0
 13 45  1  1
 14 15  1  0
 14 16  1  0
 14 46  1  1
 15 47  1  0
 15 48  1  0
 16 17  1  1
 16 18  1  0
 17 49  1  0
 18 31  1  0
 18 19  1  0
 18 50  1  6
 19 20  1  0
 19 51  1  0
 19 52  1  0
 20 23  1  0
 20 21  1  0
 20 53  1  6
 21 22  1  0
 21 54  1  6
 22 31  1  0
 22 23  1  0
 22 55  1  1
 23 24  1  0
 23 56  1  6
 24 25  1  0
 24 29  1  0
 24 68  1  6
 25 26  1  0
 25 57  1  0
 25 58  1  0
 26 28  1  0
 26 27  1  0
 26 59  1  0
 27 28  1  0
 27 60  1  0
 27 61  1  0
 28 62  1  0
 28 63  1  0
 29 30  1  0
 29 64  1  0
 29 65  1  0
 31 30  1  1
 30 66  1  0
 30 67  1  0
M  CHG  1  24   1
M  END
>  <i_m_ct_stereo_status>  (415) 
1

>  <s_m_source_file>  (415) 
/var/tmp/pbs.5076255.sched01/tmpgahbdy6u/1388ql836nh.sdf

>  <i_m_source_file_index>  (415) 
32

>  <i_lp_mmshare_version>  (415) 
48012

>  <i_f3d_flags>  (415) 
0

>  <s_epik_input>  (415) 
W0NIMl0xW0NIMl1bQ0hdMVtDSDJdTihbQ0gyXVtDSDJdMilbQ0BASF0oW0NASF0zNClbQ0BIXShbQ0gyXTUpW0NAQEhdM1tDQEBIXShbQ0BIXTZbT0hdKVtDSDJdW0NAXShbT0hdKShbQ0hdPVtDSF03KVtDSDJdW0NAQEhdOFtDQEhdKFtDSDJdW0NIMl05KU45W0NASF03W0NAXTgoW09IXSlbQ0hdNVtDQF0yNDY=

>  <s_epik_cmdline>  (415) 
J2VwaWtfcHl0aG9uJywgJy1waHQnLCAnMi4wJywgJy1waCcsICc3LjAnLCAnLXRuJywgJzgnLCAnLW1hJywgJzIwMCcsICctaW1hZScsICc8aW5maWxlLm1hZT4nLCAnLW9tYWUnLCAnPG91dGZpbGUubWFlPic=

>  <r_epik_Ionization_Penalty>  (415) 
2.31315

>  <r_epik_Ionization_Penalty_Charging>  (415) 
0.000321928

>  <r_epik_Ionization_Penalty_Neutral>  (415) 
2.31283

>  <r_epik_State_Penalty>  (415) 
2.46442

>  <r_epik_Charging_Adjusted_Penalty>  (415) 
2.46474

>  <i_epik_Tot_Q>  (415) 
1

>  <i_epik_Tot_abs_Q>  (415) 
1

>  <s_lp_Force_Field>  (415) 
OPLS3e

>  <r_lp_Energy>  (415) 
165.111

>  <b_lp_Chiralities_Consistent>  (415) 
1

>  <s_lp_Variant>  (415) 
103:0-2

>  <s_i_glide_gridfile>  (415) 
pfpi4k_grid

>  <i_i_glide_lignum>  (415) 
32

>  <i_i_glide_rotatable_bonds>  (415) 
5

>  <r_i_docking_score>  (415) 
-3.22144

>  <r_i_glide_ligand_efficiency>  (415) 
-0.103918

>  <r_i_glide_ligand_efficiency_sa>  (415) 
-0.326444

>  <r_i_glide_ligand_efficiency_ln>  (415) 
-0.726534

>  <r_i_glide_gscore>  (415) 
-3.22144

>  <r_i_glide_lipo>  (415) 
-0.396893

>  <r_i_glide_hbond>  (415) 
-0.155457

>  <r_i_glide_metal>  (415) 
-0

>  <r_i_glide_rewards>  (415) 
-0.507385

>  <r_i_glide_evdw>  (415) 
-31.1623

>  <r_i_glide_ecoul>  (415) 
-5.46301

>  <r_i_glide_erotb>  (415) 
0.219063

>  <r_i_glide_esite>  (415) 
-0.00320606

>  <r_i_glide_emodel>  (415) 
-44.7735

>  <r_i_glide_energy>  (415) 
-36.6253

>  <r_i_glide_einternal>  (415) 
0.833341

>  <r_i_glide_intrahb_reward>  (415) 
-0

>  <i_i_glide_confnum>  (415) 
3

>  <i_i_glide_posenum>  (415) 
33

>  <r_i_glide_eff_state_penalty>  (415) 
0

>  <ligand_id>  (415) 
103

>  <original_smiles>  (415) 
OC1C2CC3(O)C=CC4N5CCC5C(C3)C4(O)C3CC4C2C2C4N(CC4CC4)CCC123

>  <smiles>  (415) 
[H]OC1([H])C2([H])C([H])([H])C3(O[H])C([H])=C([H])C4([H])N5C([H])([H])C([H])([H])C5([H])C([H])(C3([H])[H])C4(O[H])C3([H])C([H])([H])C4([H])C2([H])C2([H])C13C([H])([H])C([H])([H])[N+]([H])(C([H])([H])C1([H])C([H])([H])C1([H])[H])C42[H]

$$$$
104:0:0
     RDKit          3D

 35 38  0  0  1  0  0  0  0  0999 V2000
    6.6065   -1.7585    0.8240 C   0  0  0  0  0  0  0  0  0  0  0  0
    5.4676   -2.1609   -0.0779 C   0  0  0  0  0  0  0  0  0  0  0  0
    4.5187   -3.0760    0.2801 C   0  0  0  0  0  0  0  0  0  0  0  0
    3.4233   -3.4134   -0.6306 C   0  0  0  0  0  0  0  0  0  0  0  0
    2.4487   -4.2442   -0.4056 N   0  0  0  0  0  0  0  0  0  0  0  0
    2.3843   -4.8508    0.9112 C   0  0  2  0  0  0  0  0  0  0  0  0
    3.1989   -6.1207    1.0737 C   0  0  0  0  0  0  0  0  0  0  0  0
    1.6865   -6.2032    0.9570 C   0  0  1  0  0  0  0  0  0  0  0  0
    0.8478   -6.5836    2.1456 C   0  0  0  0  0  0  0  0  0  0  0  0
    1.1753   -6.0750    3.4225 C   0  0  0  0  0  0  0  0  0  0  0  0
    0.4032   -6.3975    4.5487 C   0  0  0  0  0  0  0  0  0  0  0  0
   -0.7094   -7.2486    4.4115 C   0  0  0  0  0  0  0  0  0  0  0  0
   -1.0413   -7.7737    3.1476 C   0  0  0  0  0  0  0  0  0  0  0  0
   -0.2668   -7.4434    2.0173 C   0  0  0  0  0  0  0  0  0  0  0  0
    3.5393   -2.7072   -1.8294 N   0  0  0  0  0  0  0  0  0  0  0  0
    2.6682   -2.7378   -2.9038 N   0  0  0  0  0  0  0  0  0  0  0  0
    3.1302   -1.7788   -3.7777 C   0  0  0  0  0  0  0  0  0  0  0  0
    4.2063   -1.1620   -3.3846 N   0  0  0  0  0  0  0  0  0  0  0  0
    4.4759   -1.7420   -2.1450 C   0  0  0  0  0  0  0  0  0  0  0  0
    5.4347   -1.4820   -1.3091 N   0  0  0  0  0  0  0  0  0  0  0  0
    6.5789   -2.2840    1.7805 H   0  0  0  0  0  0  0  0  0  0  0  0
    6.5644   -0.6879    1.0140 H   0  0  0  0  0  0  0  0  0  0  0  0
    7.5498   -1.9767    0.3318 H   0  0  0  0  0  0  0  0  0  0  0  0
    4.6113   -3.5402    1.2582 H   0  0  0  0  0  0  0  0  0  0  0  0
    2.1929   -4.1410    1.7098 H   0  0  0  0  0  0  0  0  0  0  0  0
    3.8011   -6.4444    0.2328 H   0  0  0  0  0  0  0  0  0  0  0  0
    3.6323   -6.3132    2.0573 H   0  0  0  0  0  0  0  0  0  0  0  0
    1.2887   -6.6228    0.0364 H   0  0  0  0  0  0  0  0  0  0  0  0
    2.0286   -5.4319    3.5571 H   0  0  0  0  0  0  0  0  0  0  0  0
    0.6816   -5.9909    5.5109 H   0  0  0  0  0  0  0  0  0  0  0  0
   -1.2970   -7.5080    5.2742 H   0  0  0  0  0  0  0  0  0  0  0  0
   -1.8895   -8.4366    3.0681 H   0  0  0  0  0  0  0  0  0  0  0  0
   -0.5382   -7.8625    1.0610 H   0  0  0  0  0  0  0  0  0  0  0  0
    2.5829   -1.5855   -4.7007 H   0  0  0  0  0  0  0  0  0  0  0  0
    2.1571   -3.5842   -3.1248 H   0  0  0  0  0  0  0  0  0  0  0  0
  1  2  1  0
  1 21  1  0
  1 22  1  0
  1 23  1  0
  2 20  1  0
  2  3  2  0
  3  4  1  0
  3 24  1  0
  4  5  2  3
  4 15  1  0
  5  6  1  0
  6  8  1  0
  6  7  1  0
  6 25  1  1
  7  8  1  0
  7 26  1  0
  7 27  1  0
  8  9  1  0
  8 28  1  6
  9 14  1  0
  9 10  2  0
 10 11  1  0
 10 29  1  0
 11 12  2  0
 11 30  1  0
 12 13  1  0
 12 31  1  0
 13 14  2  0
 13 32  1  0
 14 33  1  0
 15 19  1  0
 15 16  1  0
 16 17  1  0
 16 35  1  0
 17 18  2  0
 17 34  1  0
 18 19  1  0
 19 20  2  0
M  END
>  <i_m_ct_stereo_status>  (416) 
1

>  <s_m_source_file>  (416) 
/var/tmp/pbs.5076255.sched01/tmpgahbdy6u/1388ql836nh.sdf

>  <i_m_source_file_index>  (416) 
33

>  <i_lp_mmshare_version>  (416) 
48012

>  <i_f3d_flags>  (416) 
0

>  <s_epik_input>  (416) 
bjFbY0hdbmMobjEyKVtuSF1jKFtDSDNdKVtjSF0vYzI9TlxbQ0BASF0zW0NIMl1bQ0BIXTNjNFtjSF1bY0hdW2NIXVtjSF1bY0hdNA==

>  <s_epik_cmdline>  (416) 
J2VwaWtfcHl0aG9uJywgJy1waHQnLCAnMi4wJywgJy1waCcsICc3LjAnLCAnLXRuJywgJzgnLCAnLW1hJywgJzIwMCcsICctaW1hZScsICc8aW5maWxlLm1hZT4nLCAnLW9tYWUnLCAnPG91dGZpbGUubWFlPic=

>  <r_lp_tautomer_probability>  (416) 
1

>  <r_epik_Ionization_Penalty>  (416) 
21.652

>  <r_epik_Ionization_Penalty_Charging>  (416) 
21.652

>  <r_epik_Ionization_Penalty_Neutral>  (416) 
3.21337e-08

>  <r_epik_State_Penalty>  (416) 
-0

>  <r_epik_Charging_Adjusted_Penalty>  (416) 
21.652

>  <i_epik_Tot_Q>  (416) 
0

>  <i_epik_Tot_abs_Q>  (416) 
0

>  <s_lp_Force_Field>  (416) 
OPLS3e

>  <r_lp_Energy>  (416) 
32.9317

>  <b_lp_Chiralities_Consistent>  (416) 
1

>  <s_lp_Variant>  (416) 
104:0-1

>  <s_i_glide_gridfile>  (416) 
pfpi4k_grid

>  <i_i_glide_lignum>  (416) 
33

>  <i_i_glide_rotatable_bonds>  (416) 
2

>  <r_i_docking_score>  (416) 
-3.81234

>  <r_i_glide_ligand_efficiency>  (416) 
-0.190617

>  <r_i_glide_ligand_efficiency_sa>  (416) 
-0.517414

>  <r_i_glide_ligand_efficiency_ln>  (416) 
-0.954102

>  <r_i_glide_gscore>  (416) 
-3.81234

>  <r_i_glide_lipo>  (416) 
-0.138587

>  <r_i_glide_hbond>  (416) 
0

>  <r_i_glide_metal>  (416) 
-0

>  <r_i_glide_rewards>  (416) 
-1.83686

>  <r_i_glide_evdw>  (416) 
-32.0257

>  <r_i_glide_ecoul>  (416) 
-4.61504

>  <r_i_glide_erotb>  (416) 
0.505559

>  <r_i_glide_esite>  (416) 
-0.0489086

>  <r_i_glide_emodel>  (416) 
-44.7666

>  <r_i_glide_energy>  (416) 
-36.6407

>  <r_i_glide_einternal>  (416) 
1.45008

>  <r_i_glide_intrahb_reward>  (416) 
-0

>  <i_i_glide_confnum>  (416) 
6

>  <i_i_glide_posenum>  (416) 
25

>  <r_i_glide_eff_state_penalty>  (416) 
0

>  <ligand_id>  (416) 
104

>  <original_smiles>  (416) 
Cc1cc(=NC2CC2c2ccccc2)n2ncnc2[nH]1

>  <smiles>  (416) 
[H]c1c([H])c([H])c(C2([H])C([H])([H])C2([H])N=c2c([H])c(C([H])([H])[H])nc3nc([H])n([H])n23)c([H])c1[H]

$$$$
104:0:1
     RDKit          3D

 35 38  0  0  1  0  0  0  0  0999 V2000
   -0.5645   -5.3427    8.0056 C   0  0  0  0  0  0  0  0  0  0  0  0
   -0.2230   -4.4126    6.8714 C   0  0  0  0  0  0  0  0  0  0  0  0
    0.5686   -4.7707    5.8153 C   0  0  0  0  0  0  0  0  0  0  0  0
    0.8328   -3.8334    4.7228 C   0  0  0  0  0  0  0  0  0  0  0  0
    1.5113   -4.0582    3.6360 N   0  0  0  0  0  0  0  0  0  0  0  0
    2.1347   -5.3653    3.4804 C   0  0  2  0  0  0  0  0  0  0  0  0
    2.7192   -5.5879    2.0964 C   0  0  0  0  0  0  0  0  0  0  0  0
    1.4405   -6.2947    2.5011 C   0  0  1  0  0  0  0  0  0  0  0  0
    1.4224   -7.7658    2.7814 C   0  0  0  0  0  0  0  0  0  0  0  0
    2.2888   -8.6401    2.0922 C   0  0  0  0  0  0  0  0  0  0  0  0
    2.3304  -10.0057    2.4195 C   0  0  0  0  0  0  0  0  0  0  0  0
    1.4854  -10.5205    3.4166 C   0  0  0  0  0  0  0  0  0  0  0  0
    0.6033   -9.6595    4.0924 C   0  0  0  0  0  0  0  0  0  0  0  0
    0.5706   -8.2883    3.7762 C   0  0  0  0  0  0  0  0  0  0  0  0
    0.2139   -2.6024    4.9685 N   0  0  0  0  0  0  0  0  0  0  0  0
    0.2247   -1.4778    4.1635 N   0  0  0  0  0  0  0  0  0  0  0  0
   -0.6292   -0.5785    4.7620 C   0  0  0  0  0  0  0  0  0  0  0  0
   -1.1638   -1.0042    5.8720 N   0  0  0  0  0  0  0  0  0  0  0  0
   -0.6208   -2.2803    6.0227 C   0  0  0  0  0  0  0  0  0  0  0  0
   -0.8367   -3.1534    6.9531 N   0  0  0  0  0  0  0  0  0  0  0  0
   -0.1076   -6.3269    7.8845 H   0  0  0  0  0  0  0  0  0  0  0  0
   -1.6454   -5.4610    8.0605 H   0  0  0  0  0  0  0  0  0  0  0  0
   -0.2305   -4.9091    8.9410 H   0  0  0  0  0  0  0  0  0  0  0  0
    0.9832   -5.7749    5.8313 H   0  0  0  0  0  0  0  0  0  0  0  0
    2.6570   -5.7680    4.3498 H   0  0  0  0  0  0  0  0  0  0  0  0
    2.6457   -4.8054    1.3508 H   0  0  0  0  0  0  0  0  0  0  0  0
    3.6243   -6.1968    2.0363 H   0  0  0  0  0  0  0  0  0  0  0  0
    0.5244   -5.9678    2.0161 H   0  0  0  0  0  0  0  0  0  0  0  0
    2.9518   -8.2726    1.3247 H   0  0  0  0  0  0  0  0  0  0  0  0
    3.0190  -10.6571    1.8983 H   0  0  0  0  0  0  0  0  0  0  0  0
    1.5143  -11.5716    3.6557 H   0  0  0  0  0  0  0  0  0  0  0  0
   -0.0416  -10.0527    4.8649 H   0  0  0  0  0  0  0  0  0  0  0  0
   -0.0936   -7.6335    4.3173 H   0  0  0  0  0  0  0  0  0  0  0  0
   -0.8063    0.3878    4.2804 H   0  0  0  0  0  0  0  0  0  0  0  0
    1.0235   -1.2602    3.5830 H   0  0  0  0  0  0  0  0  0  0  0  0
  1  2  1  0
  1 21  1  0
  1 22  1  0
  1 23  1  0
  2 20  1  0
  2  3  2  0
  3  4  1  0
  3 24  1  0
  4  5  2  3
  4 15  1  0
  5  6  1  0
  6  8  1  0
  6  7  1  0
  6 25  1  1
  7  8  1  0
  7 26  1  0
  7 27  1  0
  8  9  1  0
  8 28  1  6
  9 14  1  0
  9 10  2  0
 10 11  1  0
 10 29  1  0
 11 12  2  0
 11 30  1  0
 12 13  1  0
 12 31  1  0
 13 14  2  0
 13 32  1  0
 14 33  1  0
 15 19  1  0
 15 16  1  0
 16 17  1  0
 16 35  1  0
 17 18  2  0
 17 34  1  0
 18 19  1  0
 19 20  2  0
M  END
>  <i_m_ct_stereo_status>  (417) 
1

>  <s_m_source_file>  (417) 
/var/tmp/pbs.5076255.sched01/tmpgahbdy6u/1388ql836nh.sdf

>  <i_m_source_file_index>  (417) 
33

>  <i_lp_mmshare_version>  (417) 
48012

>  <i_f3d_flags>  (417) 
0

>  <s_epik_input>  (417) 
bjFbY0hdbmMobjEyKVtuSF1jKFtDSDNdKVtjSF0vYzI9TlxbQ0BASF0zW0NIMl1bQ0BIXTNjNFtjSF1bY0hdW2NIXVtjSF1bY0hdNA==

>  <s_epik_cmdline>  (417) 
J2VwaWtfcHl0aG9uJywgJy1waHQnLCAnMi4wJywgJy1waCcsICc3LjAnLCAnLXRuJywgJzgnLCAnLW1hJywgJzIwMCcsICctaW1hZScsICc8aW5maWxlLm1hZT4nLCAnLW9tYWUnLCAnPG91dGZpbGUubWFlPic=

>  <r_lp_tautomer_probability>  (417) 
1

>  <r_epik_Ionization_Penalty>  (417) 
21.652

>  <r_epik_Ionization_Penalty_Charging>  (417) 
21.652

>  <r_epik_Ionization_Penalty_Neutral>  (417) 
3.21337e-08

>  <r_epik_State_Penalty>  (417) 
-0

>  <r_epik_Charging_Adjusted_Penalty>  (417) 
21.652

>  <i_epik_Tot_Q>  (417) 
0

>  <i_epik_Tot_abs_Q>  (417) 
0

>  <s_lp_Force_Field>  (417) 
OPLS3e

>  <r_lp_Energy>  (417) 
32.9317

>  <b_lp_Chiralities_Consistent>  (417) 
1

>  <s_lp_Variant>  (417) 
104:0-1

>  <s_i_glide_gridfile>  (417) 
pfpi4k_grid

>  <i_i_glide_lignum>  (417) 
33

>  <i_i_glide_rotatable_bonds>  (417) 
2

>  <r_i_docking_score>  (417) 
-3.0478

>  <r_i_glide_ligand_efficiency>  (417) 
-0.15239

>  <r_i_glide_ligand_efficiency_sa>  (417) 
-0.41365

>  <r_i_glide_ligand_efficiency_ln>  (417) 
-0.762763

>  <r_i_glide_gscore>  (417) 
-3.0478

>  <r_i_glide_lipo>  (417) 
-0.222292

>  <r_i_glide_hbond>  (417) 
-0.00173666

>  <r_i_glide_metal>  (417) 
-0

>  <r_i_glide_rewards>  (417) 
-1.61483

>  <r_i_glide_evdw>  (417) 
-21.6543

>  <r_i_glide_ecoul>  (417) 
-3.74467

>  <r_i_glide_erotb>  (417) 
0.505559

>  <r_i_glide_esite>  (417) 
-0.0700775

>  <r_i_glide_emodel>  (417) 
-32.0996

>  <r_i_glide_energy>  (417) 
-25.399

>  <r_i_glide_einternal>  (417) 
0.663342

>  <r_i_glide_intrahb_reward>  (417) 
-0

>  <i_i_glide_confnum>  (417) 
6

>  <i_i_glide_posenum>  (417) 
18

>  <r_i_glide_eff_state_penalty>  (417) 
0

>  <ligand_id>  (417) 
104

>  <original_smiles>  (417) 
Cc1cc(=NC2CC2c2ccccc2)n2ncnc2[nH]1

>  <smiles>  (417) 
[H]c1c([H])c([H])c(C2([H])C([H])([H])C2([H])N=c2c([H])c(C([H])([H])[H])nc3nc([H])n([H])n23)c([H])c1[H]

$$$$
104:0:2
     RDKit          3D

 35 38  0  0  1  0  0  0  0  0999 V2000
    0.7812    0.6475    2.0972 C   0  0  0  0  0  0  0  0  0  0  0  0
    1.9415   -0.3143    2.1213 C   0  0  0  0  0  0  0  0  0  0  0  0
    1.8455   -1.5971    2.5851 C   0  0  0  0  0  0  0  0  0  0  0  0
    3.0006   -2.4953    2.5594 C   0  0  0  0  0  0  0  0  0  0  0  0
    3.0426   -3.7418    2.9374 N   0  0  0  0  0  0  0  0  0  0  0  0
    1.7921   -4.3544    3.3724 C   0  0  2  0  0  0  0  0  0  0  0  0
    1.7341   -4.6468    4.8537 C   0  0  0  0  0  0  0  0  0  0  0  0
    1.9128   -5.7841    3.8688 C   0  0  1  0  0  0  0  0  0  0  0  0
    0.7887   -6.7470    3.6263 C   0  0  0  0  0  0  0  0  0  0  0  0
    0.3925   -7.0558    2.3085 C   0  0  0  0  0  0  0  0  0  0  0  0
   -0.6891   -7.9243    2.0751 C   0  0  0  0  0  0  0  0  0  0  0  0
   -1.3814   -8.5016    3.1516 C   0  0  0  0  0  0  0  0  0  0  0  0
   -0.9817   -8.2124    4.4660 C   0  0  0  0  0  0  0  0  0  0  0  0
    0.0958   -7.3386    4.7050 C   0  0  0  0  0  0  0  0  0  0  0  0
    4.1201   -1.8395    2.0383 N   0  0  0  0  0  0  0  0  0  0  0  0
    5.3754   -2.3744    1.8177 N   0  0  0  0  0  0  0  0  0  0  0  0
    6.0949   -1.3870    1.1836 C   0  0  0  0  0  0  0  0  0  0  0  0
    5.4331   -0.2866    0.9846 N   0  0  0  0  0  0  0  0  0  0  0  0
    4.1790   -0.5547    1.5287 C   0  0  0  0  0  0  0  0  0  0  0  0
    3.1310    0.2008    1.5852 N   0  0  0  0  0  0  0  0  0  0  0  0
   -0.1337    0.2017    2.4902 H   0  0  0  0  0  0  0  0  0  0  0  0
    0.5994    0.9724    1.0747 H   0  0  0  0  0  0  0  0  0  0  0  0
    1.0320    1.5249    2.6859 H   0  0  0  0  0  0  0  0  0  0  0  0
    0.8778   -1.9077    2.9659 H   0  0  0  0  0  0  0  0  0  0  0  0
    0.9052   -4.0936    2.8046 H   0  0  0  0  0  0  0  0  0  0  0  0
    2.5845   -4.3732    5.4664 H   0  0  0  0  0  0  0  0  0  0  0  0
    0.7580   -4.5608    5.3334 H   0  0  0  0  0  0  0  0  0  0  0  0
    2.8809   -6.2803    3.8498 H   0  0  0  0  0  0  0  0  0  0  0  0
    0.9214   -6.6230    1.4734 H   0  0  0  0  0  0  0  0  0  0  0  0
   -0.9878   -8.1580    1.0642 H   0  0  0  0  0  0  0  0  0  0  0  0
   -2.1978   -9.1843    2.9759 H   0  0  0  0  0  0  0  0  0  0  0  0
   -1.5138   -8.6685    5.2848 H   0  0  0  0  0  0  0  0  0  0  0  0
    0.3843   -7.1199    5.7220 H   0  0  0  0  0  0  0  0  0  0  0  0
    7.1308   -1.5804    0.8958 H   0  0  0  0  0  0  0  0  0  0  0  0
    5.7461   -3.0831    2.4337 H   0  0  0  0  0  0  0  0  0  0  0  0
  1  2  1  0
  1 21  1  0
  1 22  1  0
  1 23  1  0
  2 20  1  0
  2  3  2  0
  3  4  1  0
  3 24  1  0
  4  5  2  3
  4 15  1  0
  5  6  1  0
  6  8  1  0
  6  7  1  0
  6 25  1  6
  7  8  1  0
  7 26  1  0
  7 27  1  0
  8  9  1  0
  8 28  1  1
  9 14  1  0
  9 10  2  0
 10 11  1  0
 10 29  1  0
 11 12  2  0
 11 30  1  0
 12 13  1  0
 12 31  1  0
 13 14  2  0
 13 32  1  0
 14 33  1  0
 15 19  1  0
 15 16  1  0
 16 17  1  0
 16 35  1  0
 17 18  2  0
 17 34  1  0
 18 19  1  0
 19 20  2  0
M  END
>  <i_m_ct_stereo_status>  (418) 
1

>  <s_m_source_file>  (418) 
/var/tmp/pbs.5076255.sched01/tmpgahbdy6u/1388ql836nh.sdf

>  <i_m_source_file_index>  (418) 
33

>  <i_lp_mmshare_version>  (418) 
48012

>  <i_f3d_flags>  (418) 
0

>  <s_epik_input>  (418) 
bjFbY0hdbmMobjEyKVtuSF1jKFtDSDNdKVtjSF0vYzI9TlxbQ0BASF0zW0NIMl1bQ0BIXTNjNFtjSF1bY0hdW2NIXVtjSF1bY0hdNA==

>  <s_epik_cmdline>  (418) 
J2VwaWtfcHl0aG9uJywgJy1waHQnLCAnMi4wJywgJy1waCcsICc3LjAnLCAnLXRuJywgJzgnLCAnLW1hJywgJzIwMCcsICctaW1hZScsICc8aW5maWxlLm1hZT4nLCAnLW9tYWUnLCAnPG91dGZpbGUubWFlPic=

>  <r_lp_tautomer_probability>  (418) 
1

>  <r_epik_Ionization_Penalty>  (418) 
21.652

>  <r_epik_Ionization_Penalty_Charging>  (418) 
21.652

>  <r_epik_Ionization_Penalty_Neutral>  (418) 
3.21337e-08

>  <r_epik_State_Penalty>  (418) 
-0

>  <r_epik_Charging_Adjusted_Penalty>  (418) 
21.652

>  <i_epik_Tot_Q>  (418) 
0

>  <i_epik_Tot_abs_Q>  (418) 
0

>  <s_lp_Force_Field>  (418) 
OPLS3e

>  <r_lp_Energy>  (418) 
32.9317

>  <b_lp_Chiralities_Consistent>  (418) 
1

>  <s_lp_Variant>  (418) 
104:0-1

>  <s_i_glide_gridfile>  (418) 
pfpi4k_grid

>  <i_i_glide_lignum>  (418) 
33

>  <i_i_glide_rotatable_bonds>  (418) 
2

>  <r_i_docking_score>  (418) 
-3.00389

>  <r_i_glide_ligand_efficiency>  (418) 
-0.150195

>  <r_i_glide_ligand_efficiency_sa>  (418) 
-0.407691

>  <r_i_glide_ligand_efficiency_ln>  (418) 
-0.751775

>  <r_i_glide_gscore>  (418) 
-3.00389

>  <r_i_glide_lipo>  (418) 
0

>  <r_i_glide_hbond>  (418) 
-0.0829367

>  <r_i_glide_metal>  (418) 
-0

>  <r_i_glide_rewards>  (418) 
-1.97801

>  <r_i_glide_evdw>  (418) 
-25.502

>  <r_i_glide_ecoul>  (418) 
-1.15086

>  <r_i_glide_erotb>  (418) 
0.505559

>  <r_i_glide_esite>  (418) 
-0.000773708

>  <r_i_glide_emodel>  (418) 
-33.484

>  <r_i_glide_energy>  (418) 
-26.6528

>  <r_i_glide_einternal>  (418) 
0.221842

>  <r_i_glide_intrahb_reward>  (418) 
-0

>  <i_i_glide_confnum>  (418) 
2

>  <i_i_glide_posenum>  (418) 
5

>  <r_i_glide_eff_state_penalty>  (418) 
0

>  <ligand_id>  (418) 
104

>  <original_smiles>  (418) 
Cc1cc(=NC2CC2c2ccccc2)n2ncnc2[nH]1

>  <smiles>  (418) 
[H]c1c([H])c([H])c(C2([H])C([H])([H])C2([H])N=c2c([H])c(C([H])([H])[H])nc3nc([H])n([H])n23)c([H])c1[H]

$$$$
104:1:0
     RDKit          3D

 35 38  0  0  1  0  0  0  0  0999 V2000
    4.8501   -8.2487    4.0308 C   0  0  0  0  0  0  0  0  0  0  0  0
    4.6900   -7.2261    2.9416 C   0  0  0  0  0  0  0  0  0  0  0  0
    5.6717   -6.3348    2.5808 C   0  0  0  0  0  0  0  0  0  0  0  0
    5.4512   -5.3542    1.5245 C   0  0  0  0  0  0  0  0  0  0  0  0
    6.3908   -4.5134    1.1993 N   0  0  0  0  0  0  0  0  0  0  0  0
    6.3564   -3.7264   -0.0228 C   0  0  2  0  0  0  0  0  0  0  0  0
    6.8811   -2.3115    0.1235 C   0  0  0  0  0  0  0  0  0  0  0  0
    5.4121   -2.5594   -0.0896 C   0  0  1  0  0  0  0  0  0  0  0  0
    4.7541   -2.2998   -1.4165 C   0  0  0  0  0  0  0  0  0  0  0  0
    4.4708   -3.3542   -2.3181 C   0  0  0  0  0  0  0  0  0  0  0  0
    3.8356   -3.1055   -3.5425 C   0  0  0  0  0  0  0  0  0  0  0  0
    3.5139   -1.7910   -3.9028 C   0  0  0  0  0  0  0  0  0  0  0  0
    3.8080   -0.7317   -3.0292 C   0  0  0  0  0  0  0  0  0  0  0  0
    4.4121   -0.9876   -1.7819 C   0  0  0  0  0  0  0  0  0  0  0  0
    4.1544   -5.5076    0.9909 N   0  0  0  0  0  0  0  0  0  0  0  0
    3.5147   -4.6539    0.1433 N   0  0  0  0  0  0  0  0  0  0  0  0
    2.2152   -5.0581    0.0822 C   0  0  0  0  0  0  0  0  0  0  0  0
    1.9275   -6.0679    0.8371 N   0  0  0  0  0  0  0  0  0  0  0  0
    3.1430   -6.3543    1.4467 C   0  0  0  0  0  0  0  0  0  0  0  0
    3.4131   -7.2207    2.3619 N   0  0  0  0  0  0  0  0  0  0  0  0
    5.8268   -8.1997    4.5033 H   0  0  0  0  0  0  0  0  0  0  0  0
    4.6944   -9.2416    3.6149 H   0  0  0  0  0  0  0  0  0  0  0  0
    4.0828   -8.0811    4.7853 H   0  0  0  0  0  0  0  0  0  0  0  0
    6.6321   -6.4160    3.0857 H   0  0  0  0  0  0  0  0  0  0  0  0
    6.6575   -4.2497   -0.9218 H   0  0  0  0  0  0  0  0  0  0  0  0
    7.1829   -1.9329    1.0972 H   0  0  0  0  0  0  0  0  0  0  0  0
    7.4067   -1.8605   -0.7191 H   0  0  0  0  0  0  0  0  0  0  0  0
    4.7450   -2.3793    0.7586 H   0  0  0  0  0  0  0  0  0  0  0  0
    4.7165   -4.3830   -2.0909 H   0  0  0  0  0  0  0  0  0  0  0  0
    3.6055   -3.9390   -4.1833 H   0  0  0  0  0  0  0  0  0  0  0  0
    3.0280   -1.5951   -4.8390 H   0  0  0  0  0  0  0  0  0  0  0  0
    3.5590    0.2804   -3.3011 H   0  0  0  0  0  0  0  0  0  0  0  0
    4.6185   -0.1771   -1.1002 H   0  0  0  0  0  0  0  0  0  0  0  0
    1.5556   -4.5207   -0.6125 H   0  0  0  0  0  0  0  0  0  0  0  0
    4.0223   -4.1543   -0.5882 H   0  0  0  0  0  0  0  0  0  0  0  0
  1  2  1  0
  1 21  1  0
  1 22  1  0
  1 23  1  0
  2 20  1  0
  2  3  2  0
  3  4  1  0
  3 24  1  0
  4  5  2  3
  4 15  1  0
  5  6  1  0
  6  8  1  0
  6  7  1  0
  6 25  1  6
  7  8  1  0
  7 26  1  0
  7 27  1  0
  8  9  1  0
  8 28  1  1
  9 14  1  0
  9 10  2  0
 10 11  1  0
 10 29  1  0
 11 12  2  0
 11 30  1  0
 12 13  1  0
 12 31  1  0
 13 14  2  0
 13 32  1  0
 14 33  1  0
 15 19  1  0
 15 16  1  0
 16 17  1  0
 16 35  1  0
 17 18  2  0
 17 34  1  0
 18 19  1  0
 19 20  2  0
M  END
>  <i_m_ct_stereo_status>  (419) 
1

>  <s_m_source_file>  (419) 
/var/tmp/pbs.5076255.sched01/tmpgahbdy6u/1388ql836nh.sdf

>  <i_m_source_file_index>  (419) 
34

>  <i_lp_mmshare_version>  (419) 
48012

>  <i_f3d_flags>  (419) 
0

>  <s_epik_input>  (419) 
bjFbY0hdbmMobjEyKVtuSF1jKFtDSDNdKVtjSF0vYzI9TlxbQ0BASF0zW0NIMl1bQ0BIXTNjNFtjSF1bY0hdW2NIXVtjSF1bY0hdNA==

>  <s_epik_cmdline>  (419) 
J2VwaWtfcHl0aG9uJywgJy1waHQnLCAnMi4wJywgJy1waCcsICc3LjAnLCAnLXRuJywgJzgnLCAnLW1hJywgJzIwMCcsICctaW1hZScsICc8aW5maWxlLm1hZT4nLCAnLW9tYWUnLCAnPG91dGZpbGUubWFlPic=

>  <r_lp_tautomer_probability>  (419) 
1

>  <r_epik_Ionization_Penalty>  (419) 
21.652

>  <r_epik_Ionization_Penalty_Charging>  (419) 
21.652

>  <r_epik_Ionization_Penalty_Neutral>  (419) 
3.21337e-08

>  <r_epik_State_Penalty>  (419) 
-0

>  <r_epik_Charging_Adjusted_Penalty>  (419) 
21.652

>  <i_epik_Tot_Q>  (419) 
0

>  <i_epik_Tot_abs_Q>  (419) 
0

>  <s_lp_Force_Field>  (419) 
OPLS3e

>  <r_lp_Energy>  (419) 
34.3107

>  <b_lp_Chiralities_Consistent>  (419) 
1

>  <s_lp_Variant>  (419) 
104:0-2

>  <s_i_glide_gridfile>  (419) 
pfpi4k_grid

>  <i_i_glide_lignum>  (419) 
34

>  <i_i_glide_rotatable_bonds>  (419) 
2

>  <r_i_docking_score>  (419) 
-3.6636

>  <r_i_glide_ligand_efficiency>  (419) 
-0.18318

>  <r_i_glide_ligand_efficiency_sa>  (419) 
-0.497228

>  <r_i_glide_ligand_efficiency_ln>  (419) 
-0.916879

>  <r_i_glide_gscore>  (419) 
-3.6636

>  <r_i_glide_lipo>  (419) 
-0.585154

>  <r_i_glide_hbond>  (419) 
0

>  <r_i_glide_metal>  (419) 
-0

>  <r_i_glide_rewards>  (419) 
-1.7291

>  <r_i_glide_evdw>  (419) 
-25.8346

>  <r_i_glide_ecoul>  (419) 
-3.17423

>  <r_i_glide_erotb>  (419) 
0.505559

>  <r_i_glide_esite>  (419) 
-0.0870437

>  <r_i_glide_emodel>  (419) 
-34.7202

>  <r_i_glide_energy>  (419) 
-29.0088

>  <r_i_glide_einternal>  (419) 
0.485268

>  <r_i_glide_intrahb_reward>  (419) 
-0

>  <i_i_glide_confnum>  (419) 
1

>  <i_i_glide_posenum>  (419) 
1

>  <r_i_glide_eff_state_penalty>  (419) 
0

>  <ligand_id>  (419) 
104

>  <original_smiles>  (419) 
Cc1cc(=NC2CC2c2ccccc2)n2ncnc2[nH]1

>  <smiles>  (419) 
[H]c1c([H])c([H])c(C2([H])C([H])([H])C2([H])N=c2c([H])c(C([H])([H])[H])nc3nc([H])n([H])n23)c([H])c1[H]

$$$$
104:1:1
     RDKit          3D

 35 38  0  0  1  0  0  0  0  0999 V2000
    5.7747   -8.7885    3.1885 C   0  0  0  0  0  0  0  0  0  0  0  0
    5.4754   -7.5882    2.3338 C   0  0  0  0  0  0  0  0  0  0  0  0
    6.4102   -6.6477    1.9806 C   0  0  0  0  0  0  0  0  0  0  0  0
    6.0397   -5.5094    1.1419 C   0  0  0  0  0  0  0  0  0  0  0  0
    6.9282   -4.5901    0.8593 N   0  0  0  0  0  0  0  0  0  0  0  0
    6.7534   -3.6018   -0.1939 C   0  0  2  0  0  0  0  0  0  0  0  0
    6.9422   -2.1578    0.2553 C   0  0  0  0  0  0  0  0  0  0  0  0
    5.5839   -2.6671   -0.1030 C   0  0  1  0  0  0  0  0  0  0  0  0
    4.8972   -2.3600   -1.4062 C   0  0  0  0  0  0  0  0  0  0  0  0
    4.5864   -1.0246   -1.6885 C   0  0  0  0  0  0  0  0  0  0  0  0
    3.9986   -0.6741   -2.9140 C   0  0  0  0  0  0  0  0  0  0  0  0
    3.6971   -1.6658   -3.8633 C   0  0  0  0  0  0  0  0  0  0  0  0
    3.9807   -3.0138   -3.5847 C   0  0  0  0  0  0  0  0  0  0  0  0
    4.5897   -3.3591   -2.3670 C   0  0  0  0  0  0  0  0  0  0  0  0
    4.6758   -5.6206    0.7610 N   0  0  0  0  0  0  0  0  0  0  0  0
    3.8912   -4.6941    0.1384 N   0  0  0  0  0  0  0  0  0  0  0  0
    2.5950   -5.0338    0.2762 C   0  0  0  0  0  0  0  0  0  0  0  0
    2.4361   -6.1266    0.9241 N   0  0  0  0  0  0  0  0  0  0  0  0
    3.7325   -6.5044    1.2620 C   0  0  0  0  0  0  0  0  0  0  0  0
    4.1234   -7.5037    1.9851 N   0  0  0  0  0  0  0  0  0  0  0  0
    6.8119   -8.8154    3.5031 H   0  0  0  0  0  0  0  0  0  0  0  0
    5.5380   -9.6942    2.6280 H   0  0  0  0  0  0  0  0  0  0  0  0
    5.1318   -8.7680    4.0719 H   0  0  0  0  0  0  0  0  0  0  0  0
    7.4348   -6.8023    2.3124 H   0  0  0  0  0  0  0  0  0  0  0  0
    7.1985   -3.8540   -1.1518 H   0  0  0  0  0  0  0  0  0  0  0  0
    7.0415   -1.9099    1.3170 H   0  0  0  0  0  0  0  0  0  0  0  0
    7.3010   -1.4038   -0.4421 H   0  0  0  0  0  0  0  0  0  0  0  0
    4.9109   -2.6789    0.7626 H   0  0  0  0  0  0  0  0  0  0  0  0
    4.8198   -0.2683   -0.9535 H   0  0  0  0  0  0  0  0  0  0  0  0
    3.7886    0.3625   -3.1183 H   0  0  0  0  0  0  0  0  0  0  0  0
    3.2422   -1.3833   -4.7990 H   0  0  0  0  0  0  0  0  0  0  0  0
    3.7410   -3.7774   -4.3099 H   0  0  0  0  0  0  0  0  0  0  0  0
    4.7976   -4.4070   -2.1941 H   0  0  0  0  0  0  0  0  0  0  0  0
    1.8479   -4.3672   -0.1249 H   0  0  0  0  0  0  0  0  0  0  0  0
    4.3322   -4.0032   -0.4732 H   0  0  0  0  0  0  0  0  0  0  0  0
  1  2  1  0
  1 21  1  0
  1 22  1  0
  1 23  1  0
  2 20  1  0
  2  3  2  0
  3  4  1  0
  3 24  1  0
  4  5  2  3
  4 15  1  0
  5  6  1  0
  6  8  1  0
  6  7  1  0
  6 25  1  6
  7  8  1  0
  7 26  1  0
  7 27  1  0
  8  9  1  0
  8 28  1  1
  9 14  1  0
  9 10  2  0
 10 11  1  0
 10 29  1  0
 11 12  2  0
 11 30  1  0
 12 13  1  0
 12 31  1  0
 13 14  2  0
 13 32  1  0
 14 33  1  0
 15 19  1  0
 15 16  1  0
 16 17  1  0
 16 35  1  0
 17 18  2  0
 17 34  1  0
 18 19  1  0
 19 20  2  0
M  END
>  <i_m_ct_stereo_status>  (420) 
1

>  <s_m_source_file>  (420) 
/var/tmp/pbs.5076255.sched01/tmpgahbdy6u/1388ql836nh.sdf

>  <i_m_source_file_index>  (420) 
34

>  <i_lp_mmshare_version>  (420) 
48012

>  <i_f3d_flags>  (420) 
0

>  <s_epik_input>  (420) 
bjFbY0hdbmMobjEyKVtuSF1jKFtDSDNdKVtjSF0vYzI9TlxbQ0BASF0zW0NIMl1bQ0BIXTNjNFtjSF1bY0hdW2NIXVtjSF1bY0hdNA==

>  <s_epik_cmdline>  (420) 
J2VwaWtfcHl0aG9uJywgJy1waHQnLCAnMi4wJywgJy1waCcsICc3LjAnLCAnLXRuJywgJzgnLCAnLW1hJywgJzIwMCcsICctaW1hZScsICc8aW5maWxlLm1hZT4nLCAnLW9tYWUnLCAnPG91dGZpbGUubWFlPic=

>  <r_lp_tautomer_probability>  (420) 
1

>  <r_epik_Ionization_Penalty>  (420) 
21.652

>  <r_epik_Ionization_Penalty_Charging>  (420) 
21.652

>  <r_epik_Ionization_Penalty_Neutral>  (420) 
3.21337e-08

>  <r_epik_State_Penalty>  (420) 
-0

>  <r_epik_Charging_Adjusted_Penalty>  (420) 
21.652

>  <i_epik_Tot_Q>  (420) 
0

>  <i_epik_Tot_abs_Q>  (420) 
0

>  <s_lp_Force_Field>  (420) 
OPLS3e

>  <r_lp_Energy>  (420) 
34.3107

>  <b_lp_Chiralities_Consistent>  (420) 
1

>  <s_lp_Variant>  (420) 
104:0-2

>  <s_i_glide_gridfile>  (420) 
pfpi4k_grid

>  <i_i_glide_lignum>  (420) 
34

>  <i_i_glide_rotatable_bonds>  (420) 
2

>  <r_i_docking_score>  (420) 
-3.55342

>  <r_i_glide_ligand_efficiency>  (420) 
-0.177671

>  <r_i_glide_ligand_efficiency_sa>  (420) 
-0.482273

>  <r_i_glide_ligand_efficiency_ln>  (420) 
-0.889303

>  <r_i_glide_gscore>  (420) 
-3.55342

>  <r_i_glide_lipo>  (420) 
-0.790133

>  <r_i_glide_hbond>  (420) 
0

>  <r_i_glide_metal>  (420) 
-0

>  <r_i_glide_rewards>  (420) 
-1.79701

>  <r_i_glide_evdw>  (420) 
-28.7299

>  <r_i_glide_ecoul>  (420) 
-1.838

>  <r_i_glide_erotb>  (420) 
0.505559

>  <r_i_glide_esite>  (420) 
-0.0564621

>  <r_i_glide_emodel>  (420) 
-32.0525

>  <r_i_glide_energy>  (420) 
-30.5679

>  <r_i_glide_einternal>  (420) 
1.2663

>  <r_i_glide_intrahb_reward>  (420) 
-0

>  <i_i_glide_confnum>  (420) 
1

>  <i_i_glide_posenum>  (420) 
37

>  <r_i_glide_eff_state_penalty>  (420) 
0

>  <ligand_id>  (420) 
104

>  <original_smiles>  (420) 
Cc1cc(=NC2CC2c2ccccc2)n2ncnc2[nH]1

>  <smiles>  (420) 
[H]c1c([H])c([H])c(C2([H])C([H])([H])C2([H])N=c2c([H])c(C([H])([H])[H])nc3nc([H])n([H])n23)c([H])c1[H]

$$$$
104:1:2
     RDKit          3D

 35 38  0  0  1  0  0  0  0  0999 V2000
    2.7851   -2.8436    6.6083 C   0  0  0  0  0  0  0  0  0  0  0  0
    2.8577   -2.6133    5.1190 C   0  0  0  0  0  0  0  0  0  0  0  0
    3.4213   -3.4933    4.2411 C   0  0  0  0  0  0  0  0  0  0  0  0
    3.4834   -3.2081    2.8094 C   0  0  0  0  0  0  0  0  0  0  0  0
    3.9969   -4.0657    1.9828 N   0  0  0  0  0  0  0  0  0  0  0  0
    3.7993   -3.9568    0.5556 C   0  0  2  0  0  0  0  0  0  0  0  0
    4.9130   -4.6145   -0.2495 C   0  0  0  0  0  0  0  0  0  0  0  0
    4.7825   -3.1080   -0.2197 C   0  0  1  0  0  0  0  0  0  0  0  0
    4.2729   -2.3547   -1.4159 C   0  0  0  0  0  0  0  0  0  0  0  0
    4.7317   -1.0580   -1.7208 C   0  0  0  0  0  0  0  0  0  0  0  0
    4.2130   -0.3653   -2.8329 C   0  0  0  0  0  0  0  0  0  0  0  0
    3.2488   -0.9629   -3.6667 C   0  0  0  0  0  0  0  0  0  0  0  0
    2.7807   -2.2465   -3.3668 C   0  0  0  0  0  0  0  0  0  0  0  0
    3.2832   -2.9289   -2.2494 C   0  0  0  0  0  0  0  0  0  0  0  0
    2.8877   -1.9603    2.5387 N   0  0  0  0  0  0  0  0  0  0  0  0
    2.8899   -1.2586    1.3415 N   0  0  0  0  0  0  0  0  0  0  0  0
    2.3690   -0.0175    1.6322 C   0  0  0  0  0  0  0  0  0  0  0  0
    2.0432    0.1561    2.8688 N   0  0  0  0  0  0  0  0  0  0  0  0
    2.3858   -1.0591    3.4603 C   0  0  0  0  0  0  0  0  0  0  0  0
    2.3315   -1.3815    4.7079 N   0  0  0  0  0  0  0  0  0  0  0  0
    3.2421   -3.7915    6.8989 H   0  0  0  0  0  0  0  0  0  0  0  0
    1.7476   -2.8314    6.9324 H   0  0  0  0  0  0  0  0  0  0  0  0
    3.3035   -2.0365    7.1210 H   0  0  0  0  0  0  0  0  0  0  0  0
    3.7968   -4.4295    4.6385 H   0  0  0  0  0  0  0  0  0  0  0  0
    2.7670   -4.0755    0.2379 H   0  0  0  0  0  0  0  0  0  0  0  0
    5.7760   -5.0402    0.2477 H   0  0  0  0  0  0  0  0  0  0  0  0
    4.6645   -5.0957   -1.1959 H   0  0  0  0  0  0  0  0  0  0  0  0
    5.5380   -2.5490    0.3304 H   0  0  0  0  0  0  0  0  0  0  0  0
    5.4609   -0.5765   -1.0779 H   0  0  0  0  0  0  0  0  0  0  0  0
    4.5631    0.6310   -3.0547 H   0  0  0  0  0  0  0  0  0  0  0  0
    2.8509   -0.4287   -4.5092 H   0  0  0  0  0  0  0  0  0  0  0  0
    2.0179   -2.7180   -3.9711 H   0  0  0  0  0  0  0  0  0  0  0  0
    2.8808   -3.8999   -2.0289 H   0  0  0  0  0  0  0  0  0  0  0  0
    2.2862    0.7048    0.8213 H   0  0  0  0  0  0  0  0  0  0  0  0
    2.7999   -1.7234    0.4411 H   0  0  0  0  0  0  0  0  0  0  0  0
  1  2  1  0
  1 21  1  0
  1 22  1  0
  1 23  1  0
  2 20  1  0
  2  3  2  0
  3  4  1  0
  3 24  1  0
  4  5  2  3
  4 15  1  0
  5  6  1  0
  6  8  1  0
  6  7  1  0
  6 25  1  1
  7  8  1  0
  7 26  1  0
  7 27  1  0
  8  9  1  0
  8 28  1  1
  9 14  1  0
  9 10  2  0
 10 11  1  0
 10 29  1  0
 11 12  2  0
 11 30  1  0
 12 13  1  0
 12 31  1  0
 13 14  2  0
 13 32  1  0
 14 33  1  0
 15 19  1  0
 15 16  1  0
 16 17  1  0
 16 35  1  0
 17 18  2  0
 17 34  1  0
 18 19  1  0
 19 20  2  0
M  END
>  <i_m_ct_stereo_status>  (421) 
1

>  <s_m_source_file>  (421) 
/var/tmp/pbs.5076255.sched01/tmpgahbdy6u/1388ql836nh.sdf

>  <i_m_source_file_index>  (421) 
34

>  <i_lp_mmshare_version>  (421) 
48012

>  <i_f3d_flags>  (421) 
0

>  <s_epik_input>  (421) 
bjFbY0hdbmMobjEyKVtuSF1jKFtDSDNdKVtjSF0vYzI9TlxbQ0BASF0zW0NIMl1bQ0BIXTNjNFtjSF1bY0hdW2NIXVtjSF1bY0hdNA==

>  <s_epik_cmdline>  (421) 
J2VwaWtfcHl0aG9uJywgJy1waHQnLCAnMi4wJywgJy1waCcsICc3LjAnLCAnLXRuJywgJzgnLCAnLW1hJywgJzIwMCcsICctaW1hZScsICc8aW5maWxlLm1hZT4nLCAnLW9tYWUnLCAnPG91dGZpbGUubWFlPic=

>  <r_lp_tautomer_probability>  (421) 
1

>  <r_epik_Ionization_Penalty>  (421) 
21.652

>  <r_epik_Ionization_Penalty_Charging>  (421) 
21.652

>  <r_epik_Ionization_Penalty_Neutral>  (421) 
3.21337e-08

>  <r_epik_State_Penalty>  (421) 
-0

>  <r_epik_Charging_Adjusted_Penalty>  (421) 
21.652

>  <i_epik_Tot_Q>  (421) 
0

>  <i_epik_Tot_abs_Q>  (421) 
0

>  <s_lp_Force_Field>  (421) 
OPLS3e

>  <r_lp_Energy>  (421) 
34.3107

>  <b_lp_Chiralities_Consistent>  (421) 
1

>  <s_lp_Variant>  (421) 
104:0-2

>  <s_i_glide_gridfile>  (421) 
pfpi4k_grid

>  <i_i_glide_lignum>  (421) 
34

>  <i_i_glide_rotatable_bonds>  (421) 
2

>  <r_i_docking_score>  (421) 
-3.38634

>  <r_i_glide_ligand_efficiency>  (421) 
-0.169317

>  <r_i_glide_ligand_efficiency_sa>  (421) 
-0.459597

>  <r_i_glide_ligand_efficiency_ln>  (421) 
-0.847489

>  <r_i_glide_gscore>  (421) 
-3.38634

>  <r_i_glide_lipo>  (421) 
-0.634078

>  <r_i_glide_hbond>  (421) 
0

>  <r_i_glide_metal>  (421) 
-0

>  <r_i_glide_rewards>  (421) 
-1.60014

>  <r_i_glide_evdw>  (421) 
-22.9642

>  <r_i_glide_ecoul>  (421) 
-2.67644

>  <r_i_glide_erotb>  (421) 
0.505559

>  <r_i_glide_esite>  (421) 
-0.108006

>  <r_i_glide_emodel>  (421) 
-30.974

>  <r_i_glide_energy>  (421) 
-25.6406

>  <r_i_glide_einternal>  (421) 
1.32351

>  <r_i_glide_intrahb_reward>  (421) 
-0

>  <i_i_glide_confnum>  (421) 
4

>  <i_i_glide_posenum>  (421) 
3

>  <r_i_glide_eff_state_penalty>  (421) 
0

>  <ligand_id>  (421) 
104

>  <original_smiles>  (421) 
Cc1cc(=NC2CC2c2ccccc2)n2ncnc2[nH]1

>  <smiles>  (421) 
[H]c1c([H])c([H])c(C2([H])C([H])([H])C2([H])N=c2c([H])c(C([H])([H])[H])nc3nc([H])n([H])n23)c([H])c1[H]

$$$$
105:0:0
     RDKit          3D

 43 46  0  0  1  0  0  0  0  0999 V2000
    3.8793   -1.8852   -3.6118 C   0  0  0  0  0  0  0  0  0  0  0  0
    3.8489   -2.7972   -2.3611 C   0  0  2  0  0  0  0  0  0  0  0  0
    2.4293   -3.3850   -2.1650 C   0  0  0  0  0  0  0  0  0  0  0  0
    2.1709   -3.8752   -0.7239 C   0  0  0  0  0  0  0  0  0  0  0  0
    3.4495   -4.2930   -0.0102 C   0  0  2  0  0  0  0  0  0  0  0  0
    3.3222   -5.0344    1.3250 C   0  0  1  0  0  0  0  0  0  0  0  0
    2.3290   -6.2168    1.3218 C   0  0  0  0  0  0  0  0  0  0  0  0
    4.7537   -5.5463    1.6403 C   0  0  1  0  0  0  0  0  0  0  0  0
    5.1930   -6.5598    0.7487 O   0  0  0  0  0  0  0  0  0  0  0  0
    5.6450   -4.4751    1.7207 O   0  0  0  0  0  0  0  0  0  0  0  0
    5.7649   -3.6112    0.6047 C   0  0  2  0  0  0  0  0  0  0  0  0
    6.4066   -2.4814    1.0782 O   0  0  0  0  0  0  0  0  0  0  0  0
    5.3955   -1.5866    1.3935 C   0  0  1  0  0  0  0  0  0  0  0  0
    5.5679   -1.0803    2.8363 C   0  0  0  0  0  0  0  0  0  0  0  0
    5.5115   -0.4595    0.3492 C   0  0  0  0  0  0  0  0  0  0  0  0
    5.4117   -1.0875   -1.0596 C   0  0  0  0  0  0  0  0  0  0  0  0
    4.2728   -2.0993   -1.0451 C   0  0  2  0  0  0  0  0  0  0  0  0
    4.3639   -3.0745    0.1950 C   0  0  1  0  0  0  0  0  0  0  0  0
    4.1365   -2.1899    1.2637 O   0  0  0  0  0  0  0  0  0  0  0  0
    3.2281   -1.0210   -3.5035 H   0  0  0  0  0  0  0  0  0  0  0  0
    3.5497   -2.4442   -4.4854 H   0  0  0  0  0  0  0  0  0  0  0  0
    4.8912   -1.5278   -3.8164 H   0  0  0  0  0  0  0  0  0  0  0  0
    4.5434   -3.6122   -2.5479 H   0  0  0  0  0  0  0  0  0  0  0  0
    1.6670   -2.6539   -2.4358 H   0  0  0  0  0  0  0  0  0  0  0  0
    2.2593   -4.2168   -2.8600 H   0  0  0  0  0  0  0  0  0  0  0  0
    1.7390   -3.0450   -0.1597 H   0  0  0  0  0  0  0  0  0  0  0  0
    1.4368   -4.6780   -0.7600 H   0  0  0  0  0  0  0  0  0  0  0  0
    3.9264   -4.9691   -0.7120 H   0  0  0  0  0  0  0  0  0  0  0  0
    3.0265   -4.3479    2.1157 H   0  0  0  0  0  0  0  0  0  0  0  0
    2.5136   -6.8865    0.4882 H   0  0  0  0  0  0  0  0  0  0  0  0
    1.3022   -5.8646    1.2375 H   0  0  0  0  0  0  0  0  0  0  0  0
    2.3923   -6.8001    2.2400 H   0  0  0  0  0  0  0  0  0  0  0  0
    4.7642   -6.0217    2.6304 H   0  0  0  0  0  0  0  0  0  0  0  0
    5.0488   -6.2576   -0.1332 H   0  0  0  0  0  0  0  0  0  0  0  0
    6.3165   -4.0876   -0.2022 H   0  0  0  0  0  0  0  0  0  0  0  0
    5.5011   -1.9181    3.5255 H   0  0  0  0  0  0  0  0  0  0  0  0
    4.7806   -0.3632    3.0693 H   0  0  0  0  0  0  0  0  0  0  0  0
    6.5401   -0.5952    2.9488 H   0  0  0  0  0  0  0  0  0  0  0  0
    4.7158    0.2662    0.5265 H   0  0  0  0  0  0  0  0  0  0  0  0
    6.4717    0.0499    0.4754 H   0  0  0  0  0  0  0  0  0  0  0  0
    5.2129   -0.2937   -1.7767 H   0  0  0  0  0  0  0  0  0  0  0  0
    6.3400   -1.5730   -1.3470 H   0  0  0  0  0  0  0  0  0  0  0  0
    3.4075   -1.4643   -0.8397 H   0  0  0  0  0  0  0  0  0  0  0  0
  1  2  1  0
  1 20  1  0
  1 21  1  0
  1 22  1  0
  2 17  1  0
  2  3  1  0
  2 23  1  6
  3  4  1  0
  3 24  1  0
  3 25  1  0
  4  5  1  0
  4 26  1  0
  4 27  1  0
  5 18  1  0
  5  6  1  0
  5 28  1  6
  6  7  1  0
  6  8  1  0
  6 29  1  1
  7 30  1  0
  7 31  1  0
  7 32  1  0
  8  9  1  0
  8 10  1  0
  8 33  1  1
  9 34  1  0
 10 11  1  0
 11 18  1  0
 11 12  1  0
 11 35  1  6
 12 13  1  0
 13 19  1  0
 13 14  1  1
 13 15  1  0
 14 36  1  0
 14 37  1  0
 14 38  1  0
 15 16  1  0
 15 39  1  0
 15 40  1  0
 16 17  1  0
 16 41  1  0
 16 42  1  0
 17 18  1  0
 17 43  1  1
 18 19  1  1
M  END
>  <i_m_ct_stereo_status>  (422) 
1

>  <s_m_source_file>  (422) 
/var/tmp/pbs.5076255.sched01/tmpgahbdy6u/1388ql836nh.sdf

>  <i_m_source_file_index>  (422) 
35

>  <i_lp_mmshare_version>  (422) 
48012

>  <i_f3d_flags>  (422) 
0

>  <s_epik_input>  (422) 
W0NAXTEyM1tDQEBIXTRbQ0gyXVtDSDJdW0NAQEhdKFtDSDNdKVtDQEBIXTJbQ0gyXVtDSDJdW0NAXShPMykoW0NIM10pT1tDQEhdMU9bQ0BIXShbT0hdKVtDQEBIXTRbQ0gzXQ==

>  <s_epik_cmdline>  (422) 
J2VwaWtfcHl0aG9uJywgJy1waHQnLCAnMi4wJywgJy1waCcsICc3LjAnLCAnLXRuJywgJzgnLCAnLW1hJywgJzIwMCcsICctaW1hZScsICc8aW5maWxlLm1hZT4nLCAnLW9tYWUnLCAnPG91dGZpbGUubWFlPic=

>  <r_lp_tautomer_probability>  (422) 
1

>  <r_epik_Ionization_Penalty>  (422) 
2.21343e-07

>  <r_epik_Ionization_Penalty_Charging>  (422) 
0

>  <r_epik_Ionization_Penalty_Neutral>  (422) 
2.21343e-07

>  <r_epik_State_Penalty>  (422) 
-0

>  <r_epik_Charging_Adjusted_Penalty>  (422) 
0

>  <i_epik_Tot_Q>  (422) 
0

>  <i_epik_Tot_abs_Q>  (422) 
0

>  <s_epik_Chemistry_Notes>  (422) 
This compound contains an acetal/aminal-like group ( X-CH(R)-Y where X, Y are N, S, or O) that may be acid/base labile, releasing an aldehyde.

>  <s_lp_Force_Field>  (422) 
OPLS3e

>  <r_lp_Energy>  (422) 
43.5055

>  <b_lp_Chiralities_Consistent>  (422) 
1

>  <s_lp_Variant>  (422) 
105:0-1

>  <s_i_glide_gridfile>  (422) 
pfpi4k_grid

>  <i_i_glide_lignum>  (422) 
35

>  <i_i_glide_rotatable_bonds>  (422) 
1

>  <r_i_docking_score>  (422) 
-3.61481

>  <r_i_glide_ligand_efficiency>  (422) 
-0.190253

>  <r_i_glide_ligand_efficiency_sa>  (422) 
-0.507671

>  <r_i_glide_ligand_efficiency_ln>  (422) 
-0.916431

>  <r_i_glide_gscore>  (422) 
-3.61481

>  <r_i_glide_lipo>  (422) 
-0.645994

>  <r_i_glide_hbond>  (422) 
0

>  <r_i_glide_metal>  (422) 
-0

>  <r_i_glide_rewards>  (422) 
-1.86752

>  <r_i_glide_evdw>  (422) 
-20.1399

>  <r_i_glide_ecoul>  (422) 
-0.628674

>  <r_i_glide_erotb>  (422) 
0

>  <r_i_glide_esite>  (422) 
0

>  <r_i_glide_emodel>  (422) 
-25.2756

>  <r_i_glide_energy>  (422) 
-20.7686

>  <r_i_glide_einternal>  (422) 
0.0275848

>  <r_i_glide_intrahb_reward>  (422) 
-0

>  <i_i_glide_confnum>  (422) 
2

>  <i_i_glide_posenum>  (422) 
6

>  <r_i_glide_eff_state_penalty>  (422) 
0

>  <ligand_id>  (422) 
105

>  <original_smiles>  (422) 
CC1CCC2C(C)C(O)OC3OC4(C)CCC1C32O4

>  <smiles>  (422) 
[H]OC1([H])OC2([H])OC3(C([H])([H])[H])OC24C([H])(C([H])([H])C([H])([H])C([H])(C([H])([H])[H])C4([H])C([H])([H])C3([H])[H])C1([H])C([H])([H])[H]

$$$$
105:0:1
     RDKit          3D

 43 46  0  0  1  0  0  0  0  0999 V2000
    2.8997   -4.0983    3.9253 C   0  0  0  0  0  0  0  0  0  0  0  0
    3.5487   -3.8559    2.5468 C   0  0  2  0  0  0  0  0  0  0  0  0
    2.4939   -4.0402    1.4313 C   0  0  0  0  0  0  0  0  0  0  0  0
    3.0540   -4.3273    0.0195 C   0  0  0  0  0  0  0  0  0  0  0  0
    4.4515   -3.7320   -0.1176 C   0  0  2  0  0  0  0  0  0  0  0  0
    5.0739   -3.6829   -1.5076 C   0  0  1  0  0  0  0  0  0  0  0  0
    4.1738   -3.0986   -2.6152 C   0  0  0  0  0  0  0  0  0  0  0  0
    6.3440   -2.8069   -1.3676 C   0  0  1  0  0  0  0  0  0  0  0  0
    6.0503   -1.4526   -1.1046 O   0  0  0  0  0  0  0  0  0  0  0  0
    7.2142   -3.3533   -0.4173 O   0  0  0  0  0  0  0  0  0  0  0  0
    6.7301   -3.5769    0.8872 C   0  0  2  0  0  0  0  0  0  0  0  0
    7.6351   -4.4123    1.4870 O   0  0  0  0  0  0  0  0  0  0  0  0
    7.1285   -5.6971    1.3255 C   0  0  1  0  0  0  0  0  0  0  0  0
    8.1953   -6.5767    0.6864 C   0  0  0  0  0  0  0  0  0  0  0  0
    6.7194   -6.1634    2.7420 C   0  0  0  0  0  0  0  0  0  0  0  0
    5.7233   -5.1466    3.3224 C   0  0  0  0  0  0  0  0  0  0  0  0
    4.7331   -4.7730    2.2096 C   0  0  2  0  0  0  0  0  0  0  0  0
    5.4354   -4.4346    0.8433 C   0  0  1  0  0  0  0  0  0  0  0  0
    5.9825   -5.6813    0.4981 O   0  0  0  0  0  0  0  0  0  0  0  0
    2.5372   -5.1210    4.0383 H   0  0  0  0  0  0  0  0  0  0  0  0
    2.0516   -3.4302    4.0737 H   0  0  0  0  0  0  0  0  0  0  0  0
    3.6036   -3.8982    4.7376 H   0  0  0  0  0  0  0  0  0  0  0  0
    3.8924   -2.8178    2.5359 H   0  0  0  0  0  0  0  0  0  0  0  0
    1.7765   -4.8216    1.7045 H   0  0  0  0  0  0  0  0  0  0  0  0
    1.9385   -3.1064    1.3820 H   0  0  0  0  0  0  0  0  0  0  0  0
    3.1148   -5.4027   -0.1391 H   0  0  0  0  0  0  0  0  0  0  0  0
    2.3653   -3.9307   -0.7335 H   0  0  0  0  0  0  0  0  0  0  0  0
    4.3328   -2.7022    0.2142 H   0  0  0  0  0  0  0  0  0  0  0  0
    5.3836   -4.6842   -1.8111 H   0  0  0  0  0  0  0  0  0  0  0  0
    3.7371   -2.1421   -2.3271 H   0  0  0  0  0  0  0  0  0  0  0  0
    3.3509   -3.7776   -2.8269 H   0  0  0  0  0  0  0  0  0  0  0  0
    4.7191   -2.9596   -3.5483 H   0  0  0  0  0  0  0  0  0  0  0  0
    6.8884   -2.7927   -2.3211 H   0  0  0  0  0  0  0  0  0  0  0  0
    5.4038   -1.4091   -0.4144 H   0  0  0  0  0  0  0  0  0  0  0  0
    6.6261   -2.6388    1.4392 H   0  0  0  0  0  0  0  0  0  0  0  0
    8.5017   -6.1915   -0.2849 H   0  0  0  0  0  0  0  0  0  0  0  0
    7.8148   -7.5934    0.5638 H   0  0  0  0  0  0  0  0  0  0  0  0
    9.0474   -6.6095    1.3611 H   0  0  0  0  0  0  0  0  0  0  0  0
    6.2826   -7.1623    2.6637 H   0  0  0  0  0  0  0  0  0  0  0  0
    7.6143   -6.2277    3.3747 H   0  0  0  0  0  0  0  0  0  0  0  0
    5.2107   -5.5964    4.1672 H   0  0  0  0  0  0  0  0  0  0  0  0
    6.2136   -4.2574    3.6895 H   0  0  0  0  0  0  0  0  0  0  0  0
    4.2326   -5.7288    2.0380 H   0  0  0  0  0  0  0  0  0  0  0  0
  1  2  1  0
  1 20  1  0
  1 21  1  0
  1 22  1  0
  2 17  1  0
  2  3  1  0
  2 23  1  1
  3  4  1  0
  3 24  1  0
  3 25  1  0
  4  5  1  0
  4 26  1  0
  4 27  1  0
  5 18  1  0
  5  6  1  0
  5 28  1  1
  6  7  1  0
  6  8  1  0
  6 29  1  6
  7 30  1  0
  7 31  1  0
  7 32  1  0
  8  9  1  0
  8 10  1  0
  8 33  1  6
  9 34  1  0
 10 11  1  0
 11 18  1  0
 11 12  1  0
 11 35  1  1
 12 13  1  0
 13 19  1  0
 13 14  1  6
 13 15  1  0
 14 36  1  0
 14 37  1  0
 14 38  1  0
 15 16  1  0
 15 39  1  0
 15 40  1  0
 16 17  1  0
 16 41  1  0
 16 42  1  0
 17 18  1  0
 17 43  1  6
 18 19  1  6
M  END
>  <i_m_ct_stereo_status>  (423) 
1

>  <s_m_source_file>  (423) 
/var/tmp/pbs.5076255.sched01/tmpgahbdy6u/1388ql836nh.sdf

>  <i_m_source_file_index>  (423) 
35

>  <i_lp_mmshare_version>  (423) 
48012

>  <i_f3d_flags>  (423) 
0

>  <s_epik_input>  (423) 
W0NAXTEyM1tDQEBIXTRbQ0gyXVtDSDJdW0NAQEhdKFtDSDNdKVtDQEBIXTJbQ0gyXVtDSDJdW0NAXShPMykoW0NIM10pT1tDQEhdMU9bQ0BIXShbT0hdKVtDQEBIXTRbQ0gzXQ==

>  <s_epik_cmdline>  (423) 
J2VwaWtfcHl0aG9uJywgJy1waHQnLCAnMi4wJywgJy1waCcsICc3LjAnLCAnLXRuJywgJzgnLCAnLW1hJywgJzIwMCcsICctaW1hZScsICc8aW5maWxlLm1hZT4nLCAnLW9tYWUnLCAnPG91dGZpbGUubWFlPic=

>  <r_lp_tautomer_probability>  (423) 
1

>  <r_epik_Ionization_Penalty>  (423) 
2.21343e-07

>  <r_epik_Ionization_Penalty_Charging>  (423) 
0

>  <r_epik_Ionization_Penalty_Neutral>  (423) 
2.21343e-07

>  <r_epik_State_Penalty>  (423) 
-0

>  <r_epik_Charging_Adjusted_Penalty>  (423) 
0

>  <i_epik_Tot_Q>  (423) 
0

>  <i_epik_Tot_abs_Q>  (423) 
0

>  <s_epik_Chemistry_Notes>  (423) 
This compound contains an acetal/aminal-like group ( X-CH(R)-Y where X, Y are N, S, or O) that may be acid/base labile, releasing an aldehyde.

>  <s_lp_Force_Field>  (423) 
OPLS3e

>  <r_lp_Energy>  (423) 
43.5055

>  <b_lp_Chiralities_Consistent>  (423) 
1

>  <s_lp_Variant>  (423) 
105:0-1

>  <s_i_glide_gridfile>  (423) 
pfpi4k_grid

>  <i_i_glide_lignum>  (423) 
35

>  <i_i_glide_rotatable_bonds>  (423) 
1

>  <r_i_docking_score>  (423) 
-3.31976

>  <r_i_glide_ligand_efficiency>  (423) 
-0.174724

>  <r_i_glide_ligand_efficiency_sa>  (423) 
-0.466234

>  <r_i_glide_ligand_efficiency_ln>  (423) 
-0.84163

>  <r_i_glide_gscore>  (423) 
-3.31976

>  <r_i_glide_lipo>  (423) 
-0.138181

>  <r_i_glide_hbond>  (423) 
0

>  <r_i_glide_metal>  (423) 
-0

>  <r_i_glide_rewards>  (423) 
-1.83093

>  <r_i_glide_evdw>  (423) 
-17.5729

>  <r_i_glide_ecoul>  (423) 
-3.10328

>  <r_i_glide_erotb>  (423) 
0

>  <r_i_glide_esite>  (423) 
-0.0065077

>  <r_i_glide_emodel>  (423) 
-24.7739

>  <r_i_glide_energy>  (423) 
-20.6761

>  <r_i_glide_einternal>  (423) 
0.0570636

>  <r_i_glide_intrahb_reward>  (423) 
-0

>  <i_i_glide_confnum>  (423) 
2

>  <i_i_glide_posenum>  (423) 
40

>  <r_i_glide_eff_state_penalty>  (423) 
0

>  <ligand_id>  (423) 
105

>  <original_smiles>  (423) 
CC1CCC2C(C)C(O)OC3OC4(C)CCC1C32O4

>  <smiles>  (423) 
[H]OC1([H])OC2([H])OC3(C([H])([H])[H])OC24C([H])(C([H])([H])C([H])([H])C([H])(C([H])([H])[H])C4([H])C([H])([H])C3([H])[H])C1([H])C([H])([H])[H]

$$$$
105:0:2
     RDKit          3D

 43 46  0  0  1  0  0  0  0  0999 V2000
    2.8273   -5.6646    4.0402 C   0  0  0  0  0  0  0  0  0  0  0  0
    3.3468   -4.9859    2.7574 C   0  0  2  0  0  0  0  0  0  0  0  0
    2.3254   -5.1793    1.6039 C   0  0  0  0  0  0  0  0  0  0  0  0
    2.9153   -4.9923    0.1815 C   0  0  0  0  0  0  0  0  0  0  0  0
    4.1286   -4.0602    0.2161 C   0  0  2  0  0  0  0  0  0  0  0  0
    4.6818   -3.5544   -1.1117 C   0  0  1  0  0  0  0  0  0  0  0  0
    3.6375   -2.9931   -2.0925 C   0  0  0  0  0  0  0  0  0  0  0  0
    5.6971   -2.4296   -0.7500 C   0  0  1  0  0  0  0  0  0  0  0  0
    5.1059   -1.2618   -0.2157 O   0  0  0  0  0  0  0  0  0  0  0  0
    6.7079   -2.9522    0.0679 O   0  0  0  0  0  0  0  0  0  0  0  0
    6.3338   -3.5785    1.2696 C   0  0  2  0  0  0  0  0  0  0  0  0
    7.4492   -4.2692    1.6796 O   0  0  0  0  0  0  0  0  0  0  0  0
    7.2567   -5.5845    1.2572 C   0  0  1  0  0  0  0  0  0  0  0  0
    8.4889   -6.0228    0.4807 C   0  0  0  0  0  0  0  0  0  0  0  0
    7.0115   -6.4118    2.5421 C   0  0  0  0  0  0  0  0  0  0  0  0
    5.8171   -5.8102    3.2995 C   0  0  0  0  0  0  0  0  0  0  0  0
    4.7279   -5.4755    2.2687 C   0  0  2  0  0  0  0  0  0  0  0  0
    5.2853   -4.6944    1.0198 C   0  0  1  0  0  0  0  0  0  0  0  0
    6.1133   -5.6745    0.4382 O   0  0  0  0  0  0  0  0  0  0  0  0
    2.7285   -6.7464    3.9232 H   0  0  0  0  0  0  0  0  0  0  0  0
    1.8463   -5.2735    4.3136 H   0  0  0  0  0  0  0  0  0  0  0  0
    3.4872   -5.4775    4.8899 H   0  0  0  0  0  0  0  0  0  0  0  0
    3.4285   -3.9173    2.9817 H   0  0  0  0  0  0  0  0  0  0  0  0
    1.8311   -6.1571    1.6687 H   0  0  0  0  0  0  0  0  0  0  0  0
    1.5472   -4.4402    1.7625 H   0  0  0  0  0  0  0  0  0  0  0  0
    3.2409   -5.9570   -0.2000 H   0  0  0  0  0  0  0  0  0  0  0  0
    2.1388   -4.6262   -0.4964 H   0  0  0  0  0  0  0  0  0  0  0  0
    3.7739   -3.1853    0.7615 H   0  0  0  0  0  0  0  0  0  0  0  0
    5.2299   -4.3563   -1.6142 H   0  0  0  0  0  0  0  0  0  0  0  0
    2.9883   -2.2534   -1.6187 H   0  0  0  0  0  0  0  0  0  0  0  0
    2.9996   -3.7911   -2.4665 H   0  0  0  0  0  0  0  0  0  0  0  0
    4.1047   -2.5248   -2.9607 H   0  0  0  0  0  0  0  0  0  0  0  0
    6.1986   -2.0912   -1.6653 H   0  0  0  0  0  0  0  0  0  0  0  0
    4.4837   -1.5179    0.4516 H   0  0  0  0  0  0  0  0  0  0  0  0
    6.0386   -2.8454    2.0263 H   0  0  0  0  0  0  0  0  0  0  0  0
    8.6458   -5.3579   -0.3701 H   0  0  0  0  0  0  0  0  0  0  0  0
    8.3627   -7.0484    0.1236 H   0  0  0  0  0  0  0  0  0  0  0  0
    9.3796   -5.9769    1.1206 H   0  0  0  0  0  0  0  0  0  0  0  0
    6.8220   -7.4496    2.2468 H   0  0  0  0  0  0  0  0  0  0  0  0
    7.9144   -6.3996    3.1667 H   0  0  0  0  0  0  0  0  0  0  0  0
    5.4565   -6.5399    4.0164 H   0  0  0  0  0  0  0  0  0  0  0  0
    6.1078   -4.9194    3.8552 H   0  0  0  0  0  0  0  0  0  0  0  0
    4.4727   -6.4673    1.8855 H   0  0  0  0  0  0  0  0  0  0  0  0
  1  2  1  0
  1 20  1  0
  1 21  1  0
  1 22  1  0
  2 17  1  0
  2  3  1  0
  2 23  1  1
  3  4  1  0
  3 24  1  0
  3 25  1  0
  4  5  1  0
  4 26  1  0
  4 27  1  0
  5 18  1  0
  5  6  1  0
  5 28  1  1
  6  7  1  0
  6  8  1  0
  6 29  1  6
  7 30  1  0
  7 31  1  0
  7 32  1  0
  8  9  1  0
  8 10  1  0
  8 33  1  6
  9 34  1  0
 10 11  1  0
 11 18  1  0
 11 12  1  0
 11 35  1  1
 12 13  1  0
 13 19  1  0
 13 14  1  6
 13 15  1  0
 14 36  1  0
 14 37  1  0
 14 38  1  0
 15 16  1  0
 15 39  1  0
 15 40  1  0
 16 17  1  0
 16 41  1  0
 16 42  1  0
 17 18  1  0
 17 43  1  6
 18 19  1  6
M  END
>  <i_m_ct_stereo_status>  (424) 
1

>  <s_m_source_file>  (424) 
/var/tmp/pbs.5076255.sched01/tmpgahbdy6u/1388ql836nh.sdf

>  <i_m_source_file_index>  (424) 
35

>  <i_lp_mmshare_version>  (424) 
48012

>  <i_f3d_flags>  (424) 
0

>  <s_epik_input>  (424) 
W0NAXTEyM1tDQEBIXTRbQ0gyXVtDSDJdW0NAQEhdKFtDSDNdKVtDQEBIXTJbQ0gyXVtDSDJdW0NAXShPMykoW0NIM10pT1tDQEhdMU9bQ0BIXShbT0hdKVtDQEBIXTRbQ0gzXQ==

>  <s_epik_cmdline>  (424) 
J2VwaWtfcHl0aG9uJywgJy1waHQnLCAnMi4wJywgJy1waCcsICc3LjAnLCAnLXRuJywgJzgnLCAnLW1hJywgJzIwMCcsICctaW1hZScsICc8aW5maWxlLm1hZT4nLCAnLW9tYWUnLCAnPG91dGZpbGUubWFlPic=

>  <r_lp_tautomer_probability>  (424) 
1

>  <r_epik_Ionization_Penalty>  (424) 
2.21343e-07

>  <r_epik_Ionization_Penalty_Charging>  (424) 
0

>  <r_epik_Ionization_Penalty_Neutral>  (424) 
2.21343e-07

>  <r_epik_State_Penalty>  (424) 
-0

>  <r_epik_Charging_Adjusted_Penalty>  (424) 
0

>  <i_epik_Tot_Q>  (424) 
0

>  <i_epik_Tot_abs_Q>  (424) 
0

>  <s_epik_Chemistry_Notes>  (424) 
This compound contains an acetal/aminal-like group ( X-CH(R)-Y where X, Y are N, S, or O) that may be acid/base labile, releasing an aldehyde.

>  <s_lp_Force_Field>  (424) 
OPLS3e

>  <r_lp_Energy>  (424) 
43.5055

>  <b_lp_Chiralities_Consistent>  (424) 
1

>  <s_lp_Variant>  (424) 
105:0-1

>  <s_i_glide_gridfile>  (424) 
pfpi4k_grid

>  <i_i_glide_lignum>  (424) 
35

>  <i_i_glide_rotatable_bonds>  (424) 
1

>  <r_i_docking_score>  (424) 
-2.98337

>  <r_i_glide_ligand_efficiency>  (424) 
-0.157019

>  <r_i_glide_ligand_efficiency_sa>  (424) 
-0.418991

>  <r_i_glide_ligand_efficiency_ln>  (424) 
-0.756348

>  <r_i_glide_gscore>  (424) 
-2.98337

>  <r_i_glide_lipo>  (424) 
-0.109137

>  <r_i_glide_hbond>  (424) 
0

>  <r_i_glide_metal>  (424) 
-0

>  <r_i_glide_rewards>  (424) 
-1.81751

>  <r_i_glide_evdw>  (424) 
-18.4396

>  <r_i_glide_ecoul>  (424) 
-0.778515

>  <r_i_glide_erotb>  (424) 
0

>  <r_i_glide_esite>  (424) 
-0.0179649

>  <r_i_glide_emodel>  (424) 
-22.8786

>  <r_i_glide_energy>  (424) 
-19.2181

>  <r_i_glide_einternal>  (424) 
0.0653112

>  <r_i_glide_intrahb_reward>  (424) 
-0

>  <i_i_glide_confnum>  (424) 
2

>  <i_i_glide_posenum>  (424) 
36

>  <r_i_glide_eff_state_penalty>  (424) 
0

>  <ligand_id>  (424) 
105

>  <original_smiles>  (424) 
CC1CCC2C(C)C(O)OC3OC4(C)CCC1C32O4

>  <smiles>  (424) 
[H]OC1([H])OC2([H])OC3(C([H])([H])[H])OC24C([H])(C([H])([H])C([H])([H])C([H])(C([H])([H])[H])C4([H])C([H])([H])C3([H])[H])C1([H])C([H])([H])[H]

$$$$
106:0:0
     RDKit          3D

 51 55  0  0  1  0  0  0  0  0999 V2000
    3.2959    0.5104    3.0087 C   0  0  0  0  0  0  0  0  0  0  0  0
    4.0471   -0.8105    3.2704 C   0  0  0  0  0  0  0  0  0  0  0  0
    5.5017   -0.5827    2.8214 C   0  0  0  0  0  0  0  0  0  0  0  0
    4.0474   -1.0456    4.7986 C   0  0  0  0  0  0  0  0  0  0  0  0
    4.6535   -2.3962    5.1914 C   0  0  0  0  0  0  0  0  0  0  0  0
    3.9080   -3.5555    4.5234 C   0  0  0  0  0  0  0  0  0  0  0  0
    3.7929   -3.4740    2.9705 C   0  0  2  0  0  0  0  0  0  0  0  0
    2.6320   -4.4598    2.6473 C   0  0  0  0  0  0  0  0  0  0  0  0
    5.1540   -3.9203    2.2753 C   0  0  1  0  0  0  0  0  0  0  0  0
    5.1830   -5.3787    1.6774 C   0  0  0  0  0  0  0  0  0  0  0  0
    4.6352   -5.5630    0.2065 C   0  0  0  0  0  0  0  0  0  0  0  0
    4.5992   -4.3094   -0.6518 C   0  0  2  0  0  0  0  0  0  0  0  0
    5.8395   -3.4256   -0.8184 C   0  0  2  0  0  0  0  0  0  0  0  0
    6.2286   -2.8474   -2.1569 C   0  0  0  0  0  0  0  0  0  0  0  0
    6.6934   -3.2427    0.3803 C   0  0  0  0  0  0  0  0  0  0  0  0
    5.6010   -3.0183    1.1589 C   0  0  0  0  0  0  0  0  0  0  0  0
    4.6939   -3.0137    0.0427 C   0  0  2  0  0  0  0  0  0  0  0  0
    3.7774   -1.8392   -0.0488 C   0  0  1  0  0  0  0  0  0  0  0  0
    3.0121   -1.8830   -1.2523 O   0  0  0  0  0  0  0  0  0  0  0  0
    2.7856   -1.8413    1.1308 C   0  0  0  0  0  0  0  0  0  0  0  0
    3.2945   -2.0252    2.5989 C   0  0  2  0  0  0  0  0  0  0  0  0
    3.7222    1.3278    3.5940 H   0  0  0  0  0  0  0  0  0  0  0  0
    2.2397    0.4329    3.2684 H   0  0  0  0  0  0  0  0  0  0  0  0
    3.3644    0.8108    1.9607 H   0  0  0  0  0  0  0  0  0  0  0  0
    6.1402   -1.4260    3.0662 H   0  0  0  0  0  0  0  0  0  0  0  0
    5.9491    0.2775    3.3226 H   0  0  0  0  0  0  0  0  0  0  0  0
    5.5787   -0.4027    1.7499 H   0  0  0  0  0  0  0  0  0  0  0  0
    4.5747   -0.2374    5.3102 H   0  0  0  0  0  0  0  0  0  0  0  0
    3.0218   -1.0167    5.1669 H   0  0  0  0  0  0  0  0  0  0  0  0
    5.7173   -2.4357    4.9620 H   0  0  0  0  0  0  0  0  0  0  0  0
    4.5870   -2.5076    6.2752 H   0  0  0  0  0  0  0  0  0  0  0  0
    4.3901   -4.4876    4.8064 H   0  0  0  0  0  0  0  0  0  0  0  0
    2.9109   -3.5978    4.9690 H   0  0  0  0  0  0  0  0  0  0  0  0
    2.4861   -4.6102    1.5787 H   0  0  0  0  0  0  0  0  0  0  0  0
    1.6823   -4.0917    3.0407 H   0  0  0  0  0  0  0  0  0  0  0  0
    2.7745   -5.4377    3.1098 H   0  0  0  0  0  0  0  0  0  0  0  0
    5.9316   -3.8807    3.0414 H   0  0  0  0  0  0  0  0  0  0  0  0
    6.2299   -5.6964    1.6972 H   0  0  0  0  0  0  0  0  0  0  0  0
    4.7042   -6.0833    2.3605 H   0  0  0  0  0  0  0  0  0  0  0  0
    5.2575   -6.3021   -0.2912 H   0  0  0  0  0  0  0  0  0  0  0  0
    3.6373   -5.9907    0.2521 H   0  0  0  0  0  0  0  0  0  0  0  0
    3.9569   -4.3582   -1.5211 H   0  0  0  0  0  0  0  0  0  0  0  0
    5.3484   -2.8038   -2.8049 H   0  0  0  0  0  0  0  0  0  0  0  0
    6.9838   -3.4856   -2.6363 H   0  0  0  0  0  0  0  0  0  0  0  0
    6.6523   -1.8541   -2.0248 H   0  0  0  0  0  0  0  0  0  0  0  0
    7.6427   -3.7744    0.4428 H   0  0  0  0  0  0  0  0  0  0  0  0
    4.3554   -0.9106   -0.0227 H   0  0  0  0  0  0  0  0  0  0  0  0
    2.1320   -1.5238   -1.0990 H   0  0  0  0  0  0  0  0  0  0  0  0
    2.2195   -0.9149    1.0833 H   0  0  0  0  0  0  0  0  0  0  0  0
    2.0271   -2.5993    0.9205 H   0  0  0  0  0  0  0  0  0  0  0  0
    2.3376   -1.9680    3.1191 H   0  0  0  0  0  0  0  0  0  0  0  0
  1  2  1  0
  1 22  1  0
  1 23  1  0
  1 24  1  0
  2 21  1  0
  2  3  1  0
  2  4  1  0
  3 25  1  0
  3 26  1  0
  3 27  1  0
  4  5  1  0
  4 28  1  0
  4 29  1  0
  5  6  1  0
  5 30  1  0
  5 31  1  0
  6  7  1  0
  6 32  1  0
  6 33  1  0
  7 21  1  0
  7  8  1  6
  7  9  1  0
  8 34  1  0
  8 35  1  0
  8 36  1  0
  9 16  1  0
  9 10  1  0
  9 37  1  1
 10 11  1  0
 10 38  1  0
 10 39  1  0
 11 12  1  0
 11 40  1  0
 11 41  1  0
 12 17  1  0
 12 13  1  0
 12 42  1  6
 13 17  1  0
 13 14  1  6
 13 15  1  0
 14 43  1  0
 14 44  1  0
 14 45  1  0
 15 16  2  0
 15 46  1  0
 17 16  1  1
 17 18  1  0
 18 19  1  0
 18 20  1  0
 18 47  1  6
 19 48  1  0
 20 21  1  0
 20 49  1  0
 20 50  1  0
 21 51  1  1
M  END
>  <i_m_ct_stereo_status>  (425) 
1

>  <s_m_source_file>  (425) 
/var/tmp/pbs.5076255.sched01/tmpgahbdy6u/1388ql836nh.sdf

>  <i_m_source_file_index>  (425) 
36

>  <i_lp_mmshare_version>  (425) 
48012

>  <i_f3d_flags>  (425) 
0

>  <s_epik_input>  (425) 
W0NIMl0xW0NIMl1bQ0gyXUMoW0NIM10pKFtDSDNdKVtDQEBIXShbQ0gyXVtDQEBIXTJbT0hdKVtDQEBdMShbQ0gzXSlbQ0BASF0oW0NIMl1bQ0gyXTMpQzQ9W0NIXVtDQF01KFtDQEBIXTNbQ0BAXTI0NSlbQ0gzXQ==

>  <s_epik_cmdline>  (425) 
J2VwaWtfcHl0aG9uJywgJy1waHQnLCAnMi4wJywgJy1waCcsICc3LjAnLCAnLXRuJywgJzgnLCAnLW1hJywgJzIwMCcsICctaW1hZScsICc8aW5maWxlLm1hZT4nLCAnLW9tYWUnLCAnPG91dGZpbGUubWFlPic=

>  <r_lp_tautomer_probability>  (425) 
1

>  <r_epik_Ionization_Penalty>  (425) 
1.48212e-06

>  <r_epik_Ionization_Penalty_Charging>  (425) 
0

>  <r_epik_Ionization_Penalty_Neutral>  (425) 
1.48212e-06

>  <r_epik_State_Penalty>  (425) 
-0

>  <r_epik_Charging_Adjusted_Penalty>  (425) 
0

>  <i_epik_Tot_Q>  (425) 
0

>  <i_epik_Tot_abs_Q>  (425) 
0

>  <s_lp_Force_Field>  (425) 
OPLS3e

>  <r_lp_Energy>  (425) 
80.8794

>  <b_lp_Chiralities_Consistent>  (425) 
1

>  <s_lp_Variant>  (425) 
106:0-1

>  <s_i_glide_gridfile>  (425) 
pfpi4k_grid

>  <i_i_glide_lignum>  (425) 
36

>  <i_i_glide_rotatable_bonds>  (425) 
1

>  <r_i_docking_score>  (425) 
-3.92291

>  <r_i_glide_ligand_efficiency>  (425) 
-0.186805

>  <r_i_glide_ligand_efficiency_sa>  (425) 
-0.515382

>  <r_i_glide_ligand_efficiency_ln>  (425) 
-0.969932

>  <r_i_glide_gscore>  (425) 
-3.92291

>  <r_i_glide_lipo>  (425) 
-0.606241

>  <r_i_glide_hbond>  (425) 
-0.156637

>  <r_i_glide_metal>  (425) 
-0

>  <r_i_glide_rewards>  (425) 
-1.45601

>  <r_i_glide_evdw>  (425) 
-17.5251

>  <r_i_glide_ecoul>  (425) 
-5.51845

>  <r_i_glide_erotb>  (425) 
0

>  <r_i_glide_esite>  (425) 
0

>  <r_i_glide_emodel>  (425) 
-28.0667

>  <r_i_glide_energy>  (425) 
-23.0435

>  <r_i_glide_einternal>  (425) 
1.03217

>  <r_i_glide_intrahb_reward>  (425) 
-0

>  <i_i_glide_confnum>  (425) 
2

>  <i_i_glide_posenum>  (425) 
9

>  <r_i_glide_eff_state_penalty>  (425) 
0

>  <ligand_id>  (425) 
106

>  <original_smiles>  (425) 
CC1(C)CCCC2(C)C3CCC4C5(C)C=C3C45C(O)CC12

>  <smiles>  (425) 
[H]OC1([H])C([H])([H])C2([H])C(C([H])([H])[H])(C([H])([H])[H])C([H])([H])C([H])([H])C([H])([H])C2(C([H])([H])[H])C2([H])C3=C([H])C4(C([H])([H])[H])C([H])(C([H])([H])C2([H])[H])C314

$$$$
106:0:1
     RDKit          3D

 51 55  0  0  1  0  0  0  0  0999 V2000
    2.9827   -0.3827   -3.2513 C   0  0  0  0  0  0  0  0  0  0  0  0
    3.4695   -1.7828   -2.9165 C   0  0  0  0  0  0  0  0  0  0  0  0
    2.2749   -2.6750   -2.5393 C   0  0  0  0  0  0  0  0  0  0  0  0
    3.9551   -2.3133   -4.2543 C   0  0  0  0  0  0  0  0  0  0  0  0
    4.6156   -3.6763   -4.0738 C   0  0  0  0  0  0  0  0  0  0  0  0
    5.7673   -3.5977   -3.0574 C   0  0  0  0  0  0  0  0  0  0  0  0
    5.4655   -3.0513   -1.6574 C   0  0  2  0  0  0  0  0  0  0  0  0
    6.8657   -2.6797   -1.1088 C   0  0  0  0  0  0  0  0  0  0  0  0
    4.7500   -4.1808   -0.7916 C   0  0  1  0  0  0  0  0  0  0  0  0
    5.6242   -4.9010    0.2825 C   0  0  0  0  0  0  0  0  0  0  0  0
    5.7797   -4.2088    1.6834 C   0  0  0  0  0  0  0  0  0  0  0  0
    4.6822   -3.2001    2.0700 C   0  0  2  0  0  0  0  0  0  0  0  0
    3.1797   -3.5395    1.9652 C   0  0  2  0  0  0  0  0  0  0  0  0
    2.1992   -3.1123    3.0217 C   0  0  0  0  0  0  0  0  0  0  0  0
    2.8027   -4.4243    0.8422 C   0  0  0  0  0  0  0  0  0  0  0  0
    3.5517   -3.6972   -0.0182 C   0  0  0  0  0  0  0  0  0  0  0  0
    3.8560   -2.6847    0.9568 C   0  0  2  0  0  0  0  0  0  0  0  0
    3.6358   -1.2583    0.5464 C   0  0  1  0  0  0  0  0  0  0  0  0
    3.8111   -0.3752    1.6382 O   0  0  0  0  0  0  0  0  0  0  0  0
    4.5769   -0.8506   -0.5969 C   0  0  0  0  0  0  0  0  0  0  0  0
    4.6673   -1.7248   -1.8778 C   0  0  2  0  0  0  0  0  0  0  0  0
    2.3174   -0.3799   -4.1225 H   0  0  0  0  0  0  0  0  0  0  0  0
    3.7826    0.3423   -3.4307 H   0  0  0  0  0  0  0  0  0  0  0  0
    2.3477   -0.0879   -2.4206 H   0  0  0  0  0  0  0  0  0  0  0  0
    2.5229   -3.7269   -2.4697 H   0  0  0  0  0  0  0  0  0  0  0  0
    1.4551   -2.6176   -3.2622 H   0  0  0  0  0  0  0  0  0  0  0  0
    1.9152   -2.4265   -1.5558 H   0  0  0  0  0  0  0  0  0  0  0  0
    3.1194   -2.3861   -4.9547 H   0  0  0  0  0  0  0  0  0  0  0  0
    4.6645   -1.5948   -4.6674 H   0  0  0  0  0  0  0  0  0  0  0  0
    3.8842   -4.4356   -3.8160 H   0  0  0  0  0  0  0  0  0  0  0  0
    5.0178   -4.0123   -5.0246 H   0  0  0  0  0  0  0  0  0  0  0  0
    6.1720   -4.5528   -2.9124 H   0  0  0  0  0  0  0  0  0  0  0  0
    6.5831   -3.0392   -3.5069 H   0  0  0  0  0  0  0  0  0  0  0  0
    6.8411   -2.3752   -0.0674 H   0  0  0  0  0  0  0  0  0  0  0  0
    7.3067   -1.8595   -1.6685 H   0  0  0  0  0  0  0  0  0  0  0  0
    7.5573   -3.5228   -1.1818 H   0  0  0  0  0  0  0  0  0  0  0  0
    4.3924   -4.9422   -1.4780 H   0  0  0  0  0  0  0  0  0  0  0  0
    5.1714   -5.8787    0.4362 H   0  0  0  0  0  0  0  0  0  0  0  0
    6.5980   -5.1365   -0.1203 H   0  0  0  0  0  0  0  0  0  0  0  0
    5.7995   -4.9830    2.4573 H   0  0  0  0  0  0  0  0  0  0  0  0
    6.7488   -3.7038    1.7294 H   0  0  0  0  0  0  0  0  0  0  0  0
    4.9737   -2.5091    2.8424 H   0  0  0  0  0  0  0  0  0  0  0  0
    2.5931   -2.2430    3.5484 H   0  0  0  0  0  0  0  0  0  0  0  0
    2.0593   -3.9264    3.7358 H   0  0  0  0  0  0  0  0  0  0  0  0
    1.2445   -2.8694    2.5652 H   0  0  0  0  0  0  0  0  0  0  0  0
    2.5846   -5.4714    0.9802 H   0  0  0  0  0  0  0  0  0  0  0  0
    2.6240   -1.1672    0.1708 H   0  0  0  0  0  0  0  0  0  0  0  0
    4.6933   -0.4668    1.9681 H   0  0  0  0  0  0  0  0  0  0  0  0
    4.2383    0.1082   -0.9423 H   0  0  0  0  0  0  0  0  0  0  0  0
    5.5709   -0.6379   -0.1964 H   0  0  0  0  0  0  0  0  0  0  0  0
    5.3749   -1.1147   -2.4357 H   0  0  0  0  0  0  0  0  0  0  0  0
  1  2  1  0
  1 22  1  0
  1 23  1  0
  1 24  1  0
  2 21  1  0
  2  3  1  0
  2  4  1  0
  3 25  1  0
  3 26  1  0
  3 27  1  0
  4  5  1  0
  4 28  1  0
  4 29  1  0
  5  6  1  0
  5 30  1  0
  5 31  1  0
  6  7  1  0
  6 32  1  0
  6 33  1  0
  7 21  1  0
  7  8  1  1
  7  9  1  0
  8 34  1  0
  8 35  1  0
  8 36  1  0
  9 16  1  0
  9 10  1  0
  9 37  1  6
 10 11  1  0
 10 38  1  0
 10 39  1  0
 11 12  1  0
 11 40  1  0
 11 41  1  0
 12 17  1  0
 12 13  1  0
 12 42  1  1
 13 17  1  0
 13 14  1  1
 13 15  1  0
 14 43  1  0
 14 44  1  0
 14 45  1  0
 15 16  2  0
 15 46  1  0
 17 16  1  6
 17 18  1  0
 18 19  1  0
 18 20  1  0
 18 47  1  6
 19 48  1  0
 20 21  1  0
 20 49  1  0
 20 50  1  0
 21 51  1  6
M  END
>  <i_m_ct_stereo_status>  (426) 
1

>  <s_m_source_file>  (426) 
/var/tmp/pbs.5076255.sched01/tmpgahbdy6u/1388ql836nh.sdf

>  <i_m_source_file_index>  (426) 
36

>  <i_lp_mmshare_version>  (426) 
48012

>  <i_f3d_flags>  (426) 
0

>  <s_epik_input>  (426) 
W0NIMl0xW0NIMl1bQ0gyXUMoW0NIM10pKFtDSDNdKVtDQEBIXShbQ0gyXVtDQEBIXTJbT0hdKVtDQEBdMShbQ0gzXSlbQ0BASF0oW0NIMl1bQ0gyXTMpQzQ9W0NIXVtDQF01KFtDQEBIXTNbQ0BAXTI0NSlbQ0gzXQ==

>  <s_epik_cmdline>  (426) 
J2VwaWtfcHl0aG9uJywgJy1waHQnLCAnMi4wJywgJy1waCcsICc3LjAnLCAnLXRuJywgJzgnLCAnLW1hJywgJzIwMCcsICctaW1hZScsICc8aW5maWxlLm1hZT4nLCAnLW9tYWUnLCAnPG91dGZpbGUubWFlPic=

>  <r_lp_tautomer_probability>  (426) 
1

>  <r_epik_Ionization_Penalty>  (426) 
1.48212e-06

>  <r_epik_Ionization_Penalty_Charging>  (426) 
0

>  <r_epik_Ionization_Penalty_Neutral>  (426) 
1.48212e-06

>  <r_epik_State_Penalty>  (426) 
-0

>  <r_epik_Charging_Adjusted_Penalty>  (426) 
0

>  <i_epik_Tot_Q>  (426) 
0

>  <i_epik_Tot_abs_Q>  (426) 
0

>  <s_lp_Force_Field>  (426) 
OPLS3e

>  <r_lp_Energy>  (426) 
80.8794

>  <b_lp_Chiralities_Consistent>  (426) 
1

>  <s_lp_Variant>  (426) 
106:0-1

>  <s_i_glide_gridfile>  (426) 
pfpi4k_grid

>  <i_i_glide_lignum>  (426) 
36

>  <i_i_glide_rotatable_bonds>  (426) 
1

>  <r_i_docking_score>  (426) 
-2.33537

>  <r_i_glide_ligand_efficiency>  (426) 
-0.111208

>  <r_i_glide_ligand_efficiency_sa>  (426) 
-0.306814

>  <r_i_glide_ligand_efficiency_ln>  (426) 
-0.577415

>  <r_i_glide_gscore>  (426) 
-2.33537

>  <r_i_glide_lipo>  (426) 
-0.440332

>  <r_i_glide_hbond>  (426) 
0

>  <r_i_glide_metal>  (426) 
-0

>  <r_i_glide_rewards>  (426) 
-1.45601

>  <r_i_glide_evdw>  (426) 
-8.54461

>  <r_i_glide_ecoul>  (426) 
-0.0786204

>  <r_i_glide_erotb>  (426) 
0

>  <r_i_glide_esite>  (426) 
0

>  <r_i_glide_emodel>  (426) 
-11.1282

>  <r_i_glide_energy>  (426) 
-8.62323

>  <r_i_glide_einternal>  (426) 
0.0110349

>  <r_i_glide_intrahb_reward>  (426) 
-0

>  <i_i_glide_confnum>  (426) 
2

>  <i_i_glide_posenum>  (426) 
1

>  <r_i_glide_eff_state_penalty>  (426) 
0

>  <ligand_id>  (426) 
106

>  <original_smiles>  (426) 
CC1(C)CCCC2(C)C3CCC4C5(C)C=C3C45C(O)CC12

>  <smiles>  (426) 
[H]OC1([H])C([H])([H])C2([H])C(C([H])([H])[H])(C([H])([H])[H])C([H])([H])C([H])([H])C([H])([H])C2(C([H])([H])[H])C2([H])C3=C([H])C4(C([H])([H])[H])C([H])(C([H])([H])C2([H])[H])C314

$$$$
107:0:0
     RDKit          3D

 73 80  0  0  1  0  0  0  0  0999 V2000
    3.9911  -11.1697    3.4215 C   0  0  0  0  0  0  0  0  0  0  0  0
    3.7947   -9.6556    3.2388 C   0  0  2  0  0  0  0  0  0  0  0  0
    3.9191   -8.8927    4.5665 C   0  0  0  0  0  0  0  0  0  0  0  0
    3.8332   -7.3678    4.3802 C   0  0  0  0  0  0  0  0  0  0  0  0
    2.5191   -6.8856    3.7249 C   0  0  2  0  0  0  0  0  0  0  0  0
    1.4523   -7.0586    4.8406 C   0  0  0  0  0  0  0  0  0  0  0  0
   -0.0242   -7.0632    4.4636 C   0  0  0  0  0  0  0  0  0  0  0  0
   -0.4078   -8.1269    3.4349 C   0  0  2  0  0  0  0  0  0  0  0  0
   -1.9358   -8.2526    3.4448 C   0  0  0  0  0  0  0  0  0  0  0  0
    0.2254   -9.5298    3.6833 C   0  0  0  0  0  0  0  0  0  0  0  0
    1.2384  -10.0405    2.6379 C   0  0  0  0  0  0  0  0  0  0  0  0
    2.5442   -9.2518    2.3933 C   0  0  1  0  0  0  0  0  0  0  0  0
    2.3455   -7.7238    2.3284 C   0  0  2  0  0  0  0  0  0  0  0  0
    3.2830   -7.1188    1.2711 C   0  0  0  0  0  0  0  0  0  0  0  0
    4.6682   -7.2674    1.1335 C   0  0  0  0  0  0  0  0  0  0  0  0
    5.3778   -6.0524    1.3762 C   0  0  0  0  0  0  0  0  0  0  0  0
    4.6908   -4.9524    1.9619 C   0  0  0  0  0  0  0  0  0  0  0  0
    3.2724   -4.9408    2.1056 C   0  0  0  0  0  0  0  0  0  0  0  0
    2.6390   -5.8634    1.2801 C   0  0  0  0  0  0  0  0  0  0  0  0
    1.2599   -6.0116    1.3904 O   0  0  0  0  0  0  0  0  0  0  0  0
    1.0488   -7.3484    1.5789 C   0  0  2  0  0  0  0  0  0  0  0  0
   -0.1990   -7.6396    2.1285 O   0  0  0  0  0  0  0  0  0  0  0  0
    2.7043   -5.2748    3.4929 C   0  0  1  0  0  0  0  0  0  0  0  0
    1.4890   -4.5448    3.6822 O   0  0  0  0  0  0  0  0  0  0  0  0
    1.5894   -3.1989    4.1560 C   0  0  0  0  0  0  0  0  0  0  0  0
    1.5906   -2.1481    2.9992 C   0  0  2  0  0  0  0  0  0  0  0  0
    2.5204   -2.5161    2.0323 O   0  0  0  0  0  0  0  0  0  0  0  0
    3.7691   -2.0549    2.5321 C   0  0  0  0  0  0  0  0  0  0  0  0
    3.4076   -0.8070    3.3466 C   0  0  0  0  0  0  0  0  0  0  0  0
    1.9555   -0.8037    3.4129 N   0  0  0  0  0  0  0  0  0  0  0  0
    1.4409    0.1610    2.4388 C   0  0  0  0  0  0  0  0  0  0  0  0
   -0.0240    0.4751    2.6756 C   0  0  0  0  0  0  0  0  0  0  0  0
   -0.7467    1.3536    1.7111 C   0  0  0  0  0  0  0  0  0  0  0  0
   -0.3997    1.8569    3.0920 C   0  0  0  0  0  0  0  0  0  0  0  0
    3.2734  -11.5767    4.1346 H   0  0  0  0  0  0  0  0  0  0  0  0
    4.9914  -11.3679    3.8112 H   0  0  0  0  0  0  0  0  0  0  0  0
    3.8883  -11.6841    2.4752 H   0  0  0  0  0  0  0  0  0  0  0  0
    4.6694   -9.3546    2.6672 H   0  0  0  0  0  0  0  0  0  0  0  0
    3.1842   -9.2775    5.2696 H   0  0  0  0  0  0  0  0  0  0  0  0
    4.8884   -9.1272    5.0104 H   0  0  0  0  0  0  0  0  0  0  0  0
    3.9776   -6.8877    5.3463 H   0  0  0  0  0  0  0  0  0  0  0  0
    4.6838   -7.0602    3.7898 H   0  0  0  0  0  0  0  0  0  0  0  0
    1.6332   -7.9430    5.4407 H   0  0  0  0  0  0  0  0  0  0  0  0
    1.5917   -6.2670    5.5718 H   0  0  0  0  0  0  0  0  0  0  0  0
   -0.5744   -7.2522    5.3808 H   0  0  0  0  0  0  0  0  0  0  0  0
   -0.3589   -6.0842    4.1197 H   0  0  0  0  0  0  0  0  0  0  0  0
   -2.2790   -8.6627    4.3931 H   0  0  0  0  0  0  0  0  0  0  0  0
   -2.2767   -8.9110    2.6447 H   0  0  0  0  0  0  0  0  0  0  0  0
   -2.4009   -7.2797    3.2901 H   0  0  0  0  0  0  0  0  0  0  0  0
    0.6315   -9.6318    4.6889 H   0  0  0  0  0  0  0  0  0  0  0  0
   -0.5888  -10.2569    3.6650 H   0  0  0  0  0  0  0  0  0  0  0  0
    1.4681  -11.0753    2.8819 H   0  0  0  0  0  0  0  0  0  0  0  0
    0.7068  -10.1139    1.6842 H   0  0  0  0  0  0  0  0  0  0  0  0
    2.8056   -9.5668    1.3816 H   0  0  0  0  0  0  0  0  0  0  0  0
    5.1899   -8.2145    0.9779 H   0  0  0  0  0  0  0  0  0  0  0  0
    6.4545   -6.0127    1.2953 H   0  0  0  0  0  0  0  0  0  0  0  0
    5.2224   -4.1980    2.5096 H   0  0  0  0  0  0  0  0  0  0  0  0
    0.9774   -7.8064    0.5991 H   0  0  0  0  0  0  0  0  0  0  0  0
    3.4199   -4.9479    4.2392 H   0  0  0  0  0  0  0  0  0  0  0  0
    0.6975   -3.0215    4.7486 H   0  0  0  0  0  0  0  0  0  0  0  0
    2.4339   -3.0615    4.8234 H   0  0  0  0  0  0  0  0  0  0  0  0
    0.6067   -2.1508    2.5030 H   0  0  0  0  0  0  0  0  0  0  0  0
    4.2190   -2.7997    3.1738 H   0  0  0  0  0  0  0  0  0  0  0  0
    4.4837   -1.8698    1.7236 H   0  0  0  0  0  0  0  0  0  0  0  0
    3.8300   -0.9461    4.3336 H   0  0  0  0  0  0  0  0  0  0  0  0
    3.8265    0.0681    2.8802 H   0  0  0  0  0  0  0  0  0  0  0  0
    1.9931    1.0941    2.4606 H   0  0  0  0  0  0  0  0  0  0  0  0
    1.5508   -0.2516    1.4360 H   0  0  0  0  0  0  0  0  0  0  0  0
   -0.5938   -0.3429    3.1071 H   0  0  0  0  0  0  0  0  0  0  0  0
   -0.1819    1.7744    0.8783 H   0  0  0  0  0  0  0  0  0  0  0  0
   -1.7861    1.1085    1.5178 H   0  0  0  0  0  0  0  0  0  0  0  0
   -1.2052    1.9361    3.8188 H   0  0  0  0  0  0  0  0  0  0  0  0
    0.3977    2.5946    3.1722 H   0  0  0  0  0  0  0  0  0  0  0  0
  1  2  1  0
  1 35  1  0
  1 36  1  0
  1 37  1  0
  2 12  1  0
  2  3  1  0
  2 38  1  6
  3  4  1  0
  3 39  1  0
  3 40  1  0
  5  4  1  1
  4 41  1  0
  4 42  1  0
  5 13  1  0
  5 23  1  0
  5  6  1  0
  6  7  1  0
  6 43  1  0
  6 44  1  0
  7  8  1  0
  7 45  1  0
  7 46  1  0
  8 22  1  0
  8  9  1  6
  8 10  1  0
  9 47  1  0
  9 48  1  0
  9 49  1  0
 10 11  1  0
 10 50  1  0
 10 51  1  0
 11 12  1  0
 11 52  1  0
 11 53  1  0
 12 13  1  0
 12 54  1  6
 13 21  1  0
 13 14  1  6
 14 19  2  0
 14 15  1  0
 15 16  2  0
 15 55  1  0
 16 17  1  0
 16 56  1  0
 17 18  2  0
 17 57  1  0
 18 19  1  0
 18 23  1  0
 19 20  1  0
 20 21  1  0
 21 22  1  0
 21 58  1  6
 23 24  1  0
 23 59  1  1
 24 25  1  0
 25 26  1  0
 25 60  1  0
 25 61  1  0
 26 30  1  0
 26 27  1  0
 26 62  1  6
 27 28  1  0
 28 29  1  0
 28 63  1  0
 28 64  1  0
 29 30  1  0
 29 65  1  0
 29 66  1  0
 30 31  1  0
 31 32  1  0
 31 67  1  0
 31 68  1  0
 32 34  1  0
 32 33  1  0
 32 69  1  0
 33 34  1  0
 33 70  1  0
 33 71  1  0
 34 72  1  0
 34 73  1  0
M  END
>  <i_m_ct_stereo_status>  (427) 
1

>  <s_m_source_file>  (427) 
/var/tmp/pbs.5076255.sched01/tmpgahbdy6u/1388ql836nh.sdf

>  <i_m_source_file_index>  (427) 
37

>  <i_lp_mmshare_version>  (427) 
48012

>  <i_f3d_flags>  (427) 
0

>  <s_epik_input>  (427) 
W0NIMl0xW0NIMl1bQ0BASF0oW0NIM10pW0NASF0oW0NAQF0yM1tDQF0xNDUpW0NIMl1bQ0gyXVtDQEBdKFtDSDNdKShbQ0gyXVtDSDJdNClPW0NASF0zT2M2YzJbY0hdW2NIXVtjSF1jNltDQEhdNU9bQ0gyXVtDQEBIXTdPW0NIMl1bQ0gyXU43W0NIMl1bQ0hdOFtDSDJdW0NIMl04

>  <s_epik_cmdline>  (427) 
J2VwaWtfcHl0aG9uJywgJy1waHQnLCAnMi4wJywgJy1waCcsICc3LjAnLCAnLXRuJywgJzgnLCAnLW1hJywgJzIwMCcsICctaW1hZScsICc8aW5maWxlLm1hZT4nLCAnLW9tYWUnLCAnPG91dGZpbGUubWFlPic=

>  <r_lp_tautomer_probability>  (427) 
1

>  <r_epik_Ionization_Penalty>  (427) 
0.0444852

>  <r_epik_Ionization_Penalty_Charging>  (427) 
0

>  <r_epik_Ionization_Penalty_Neutral>  (427) 
0.0444852

>  <r_epik_State_Penalty>  (427) 
0.0377051

>  <r_epik_Charging_Adjusted_Penalty>  (427) 
0.0377051

>  <i_epik_Tot_Q>  (427) 
0

>  <i_epik_Tot_abs_Q>  (427) 
0

>  <s_epik_Chemistry_Notes>  (427) 
This compound contains an acetal/aminal-like group ( X-CH(R)-Y where X, Y are N, S, or O) that may be acid/base labile, releasing an aldehyde.

>  <s_lp_Force_Field>  (427) 
OPLS3e

>  <r_lp_Energy>  (427) 
185.043

>  <b_lp_Chiralities_Consistent>  (427) 
1

>  <s_lp_Variant>  (427) 
107:0-1

>  <s_i_glide_gridfile>  (427) 
pfpi4k_grid

>  <i_i_glide_lignum>  (427) 
37

>  <i_i_glide_rotatable_bonds>  (427) 
5

>  <r_i_docking_score>  (427) 
-2.17392

>  <r_i_glide_ligand_efficiency>  (427) 
-0.0639389

>  <r_i_glide_ligand_efficiency_sa>  (427) 
-0.207137

>  <r_i_glide_ligand_efficiency_ln>  (427) 
-0.48028

>  <r_i_glide_gscore>  (427) 
-2.17392

>  <r_i_glide_lipo>  (427) 
-0.411084

>  <r_i_glide_hbond>  (427) 
-0.153725

>  <r_i_glide_metal>  (427) 
-0

>  <r_i_glide_rewards>  (427) 
-0.23438

>  <r_i_glide_evdw>  (427) 
-28.2079

>  <r_i_glide_ecoul>  (427) 
-2.51972

>  <r_i_glide_erotb>  (427) 
0.465128

>  <r_i_glide_esite>  (427) 
-0.0515081

>  <r_i_glide_emodel>  (427) 
-30.3871

>  <r_i_glide_energy>  (427) 
-30.7276

>  <r_i_glide_einternal>  (427) 
4.31992

>  <r_i_glide_intrahb_reward>  (427) 
-0

>  <i_i_glide_confnum>  (427) 
1

>  <i_i_glide_posenum>  (427) 
6

>  <r_i_glide_eff_state_penalty>  (427) 
0

>  <ligand_id>  (427) 
107

>  <original_smiles>  (427) 
CC1CCC23CCC4(C)CCC1C21c2cccc(c2OC1O4)C3OCC1OCCN1CC1CC1

>  <smiles>  (427) 
[H]c1c([H])c2c3c(c1[H])C14C([H])(O3)OC3(C([H])([H])[H])C([H])([H])C([H])([H])C1([H])C([H])(C([H])([H])[H])C([H])([H])C([H])([H])C4(C2([H])OC([H])([H])C1([H])OC([H])([H])C([H])([H])N1C([H])([H])C1([H])C([H])([H])C1([H])[H])C([H])([H])C3([H])[H]

$$$$
107:0:1
     RDKit          3D

 73 80  0  0  1  0  0  0  0  0999 V2000
    3.1227  -12.0206    4.4704 C   0  0  0  0  0  0  0  0  0  0  0  0
    3.4070  -10.5548    4.0878 C   0  0  2  0  0  0  0  0  0  0  0  0
    3.5109   -9.6614    5.3249 C   0  0  0  0  0  0  0  0  0  0  0  0
    3.9116   -8.2077    4.9698 C   0  0  0  0  0  0  0  0  0  0  0  0
    2.9322   -7.4666    3.9973 C   0  0  2  0  0  0  0  0  0  0  0  0
    1.6746   -7.2173    4.8807 C   0  0  0  0  0  0  0  0  0  0  0  0
    0.3500   -6.9018    4.2018 C   0  0  0  0  0  0  0  0  0  0  0  0
   -0.1384   -7.9817    3.2389 C   0  0  2  0  0  0  0  0  0  0  0  0
   -1.6218   -7.6892    2.9287 C   0  0  0  0  0  0  0  0  0  0  0  0
    0.0069   -9.4379    3.7550 C   0  0  0  0  0  0  0  0  0  0  0  0
    0.9910  -10.3486    3.0070 C   0  0  0  0  0  0  0  0  0  0  0  0
    2.5011   -9.9715    2.9661 C   0  0  1  0  0  0  0  0  0  0  0  0
    2.7839   -8.4555    2.7032 C   0  0  2  0  0  0  0  0  0  0  0  0
    4.0227   -8.2171    1.7783 C   0  0  0  0  0  0  0  0  0  0  0  0
    5.2991   -8.7590    1.9967 C   0  0  0  0  0  0  0  0  0  0  0  0
    6.2479   -7.7148    2.2557 C   0  0  0  0  0  0  0  0  0  0  0  0
    5.8174   -6.3945    2.5155 C   0  0  0  0  0  0  0  0  0  0  0  0
    4.4542   -6.0194    2.3677 C   0  0  0  0  0  0  0  0  0  0  0  0
    3.7112   -6.9002    1.5540 C   0  0  0  0  0  0  0  0  0  0  0  0
    2.3889   -6.6881    1.3461 O   0  0  0  0  0  0  0  0  0  0  0  0
    1.7774   -7.8794    1.6718 C   0  0  2  0  0  0  0  0  0  0  0  0
    0.4251   -7.7726    1.9595 O   0  0  0  0  0  0  0  0  0  0  0  0
    3.5921   -6.0383    3.6451 C   0  0  1  0  0  0  0  0  0  0  0  0
    2.5812   -5.0321    3.5324 O   0  0  0  0  0  0  0  0  0  0  0  0
    3.0549   -3.6944    3.5393 C   0  0  0  0  0  0  0  0  0  0  0  0
    2.0815   -2.8192    2.7168 C   0  0  2  0  0  0  0  0  0  0  0  0
    2.2765   -3.1184    1.3713 O   0  0  0  0  0  0  0  0  0  0  0  0
    3.3206   -2.2816    0.8984 C   0  0  0  0  0  0  0  0  0  0  0  0
    3.3076   -1.1080    1.8737 C   0  0  0  0  0  0  0  0  0  0  0  0
    2.3051   -1.3761    2.8829 N   0  0  0  0  0  0  0  0  0  0  0  0
    1.0844   -0.6133    2.6580 C   0  0  0  0  0  0  0  0  0  0  0  0
    0.0425   -0.7617    3.7450 C   0  0  0  0  0  0  0  0  0  0  0  0
   -1.1513    0.1631    3.7921 C   0  0  0  0  0  0  0  0  0  0  0  0
   -0.0808    0.2701    4.8457 C   0  0  0  0  0  0  0  0  0  0  0  0
    2.2078  -12.1236    5.0530 H   0  0  0  0  0  0  0  0  0  0  0  0
    3.9287  -12.4246    5.0810 H   0  0  0  0  0  0  0  0  0  0  0  0
    3.0421  -12.6455    3.5839 H   0  0  0  0  0  0  0  0  0  0  0  0
    4.4151  -10.5918    3.6821 H   0  0  0  0  0  0  0  0  0  0  0  0
    2.5852   -9.7188    5.8976 H   0  0  0  0  0  0  0  0  0  0  0  0
    4.2688  -10.0713    5.9927 H   0  0  0  0  0  0  0  0  0  0  0  0
    4.0287   -7.6392    5.8909 H   0  0  0  0  0  0  0  0  0  0  0  0
    4.9116   -8.2469    4.5422 H   0  0  0  0  0  0  0  0  0  0  0  0
    1.4975   -8.0123    5.5904 H   0  0  0  0  0  0  0  0  0  0  0  0
    1.9068   -6.3820    5.5429 H   0  0  0  0  0  0  0  0  0  0  0  0
   -0.3840   -6.7879    4.9970 H   0  0  0  0  0  0  0  0  0  0  0  0
    0.3790   -5.9413    3.6952 H   0  0  0  0  0  0  0  0  0  0  0  0
   -2.2486   -7.8130    3.8129 H   0  0  0  0  0  0  0  0  0  0  0  0
   -2.0006   -8.3579    2.1516 H   0  0  0  0  0  0  0  0  0  0  0  0
   -1.7529   -6.6709    2.5649 H   0  0  0  0  0  0  0  0  0  0  0  0
    0.1807   -9.4853    4.8262 H   0  0  0  0  0  0  0  0  0  0  0  0
   -0.9636   -9.9159    3.6323 H   0  0  0  0  0  0  0  0  0  0  0  0
    0.8718  -11.3585    3.4065 H   0  0  0  0  0  0  0  0  0  0  0  0
    0.6268  -10.4485    1.9872 H   0  0  0  0  0  0  0  0  0  0  0  0
    2.8331  -10.4990    2.0699 H   0  0  0  0  0  0  0  0  0  0  0  0
    5.5464   -9.7919    2.0254 H   0  0  0  0  0  0  0  0  0  0  0  0
    7.2812   -7.9724    2.4431 H   0  0  0  0  0  0  0  0  0  0  0  0
    6.4749   -5.7382    3.0645 H   0  0  0  0  0  0  0  0  0  0  0  0
    1.7781   -8.5297    0.7962 H   0  0  0  0  0  0  0  0  0  0  0  0
    4.2218   -5.7265    4.4845 H   0  0  0  0  0  0  0  0  0  0  0  0
    3.0604   -3.3442    4.5776 H   0  0  0  0  0  0  0  0  0  0  0  0
    4.0685   -3.5752    3.1546 H   0  0  0  0  0  0  0  0  0  0  0  0
    1.0670   -3.1013    2.9783 H   0  0  0  0  0  0  0  0  0  0  0  0
    4.2625   -2.8307    0.9570 H   0  0  0  0  0  0  0  0  0  0  0  0
    3.1588   -1.9892   -0.1366 H   0  0  0  0  0  0  0  0  0  0  0  0
    4.2876   -0.9997    2.3433 H   0  0  0  0  0  0  0  0  0  0  0  0
    3.1039   -0.1673    1.3484 H   0  0  0  0  0  0  0  0  0  0  0  0
    1.3264    0.4463    2.5675 H   0  0  0  0  0  0  0  0  0  0  0  0
    0.6394   -0.9005    1.7017 H   0  0  0  0  0  0  0  0  0  0  0  0
   -0.1894   -1.7827    4.0363 H   0  0  0  0  0  0  0  0  0  0  0  0
   -1.2075    0.9456    3.0371 H   0  0  0  0  0  0  0  0  0  0  0  0
   -2.1012   -0.2782    4.0848 H   0  0  0  0  0  0  0  0  0  0  0  0
   -0.3126   -0.0996    5.8414 H   0  0  0  0  0  0  0  0  0  0  0  0
    0.5866    1.1294    4.8048 H   0  0  0  0  0  0  0  0  0  0  0  0
  1  2  1  0
  1 35  1  0
  1 36  1  0
  1 37  1  0
  2 12  1  0
  2  3  1  0
  2 38  1  6
  3  4  1  0
  3 39  1  0
  3 40  1  0
  5  4  1  1
  4 41  1  0
  4 42  1  0
  5 13  1  0
  5 23  1  0
  5  6  1  0
  6  7  1  0
  6 43  1  0
  6 44  1  0
  7  8  1  0
  7 45  1  0
  7 46  1  0
  8 22  1  0
  8  9  1  6
  8 10  1  0
  9 47  1  0
  9 48  1  0
  9 49  1  0
 10 11  1  0
 10 50  1  0
 10 51  1  0
 11 12  1  0
 11 52  1  0
 11 53  1  0
 12 13  1  0
 12 54  1  6
 13 21  1  0
 13 14  1  6
 14 19  2  0
 14 15  1  0
 15 16  2  0
 15 55  1  0
 16 17  1  0
 16 56  1  0
 17 18  2  0
 17 57  1  0
 18 19  1  0
 18 23  1  0
 19 20  1  0
 20 21  1  0
 21 22  1  0
 21 58  1  6
 23 24  1  0
 23 59  1  1
 24 25  1  0
 25 26  1  0
 25 60  1  0
 25 61  1  0
 26 30  1  0
 26 27  1  0
 26 62  1  1
 27 28  1  0
 28 29  1  0
 28 63  1  0
 28 64  1  0
 29 30  1  0
 29 65  1  0
 29 66  1  0
 30 31  1  0
 31 32  1  0
 31 67  1  0
 31 68  1  0
 32 34  1  0
 32 33  1  0
 32 69  1  0
 33 34  1  0
 33 70  1  0
 33 71  1  0
 34 72  1  0
 34 73  1  0
M  END
>  <i_m_ct_stereo_status>  (428) 
1

>  <s_m_source_file>  (428) 
/var/tmp/pbs.5076255.sched01/tmpgahbdy6u/1388ql836nh.sdf

>  <i_m_source_file_index>  (428) 
37

>  <i_lp_mmshare_version>  (428) 
48012

>  <i_f3d_flags>  (428) 
0

>  <s_epik_input>  (428) 
W0NIMl0xW0NIMl1bQ0BASF0oW0NIM10pW0NASF0oW0NAQF0yM1tDQF0xNDUpW0NIMl1bQ0gyXVtDQEBdKFtDSDNdKShbQ0gyXVtDSDJdNClPW0NASF0zT2M2YzJbY0hdW2NIXVtjSF1jNltDQEhdNU9bQ0gyXVtDQEBIXTdPW0NIMl1bQ0gyXU43W0NIMl1bQ0hdOFtDSDJdW0NIMl04

>  <s_epik_cmdline>  (428) 
J2VwaWtfcHl0aG9uJywgJy1waHQnLCAnMi4wJywgJy1waCcsICc3LjAnLCAnLXRuJywgJzgnLCAnLW1hJywgJzIwMCcsICctaW1hZScsICc8aW5maWxlLm1hZT4nLCAnLW9tYWUnLCAnPG91dGZpbGUubWFlPic=

>  <r_lp_tautomer_probability>  (428) 
1

>  <r_epik_Ionization_Penalty>  (428) 
0.0444852

>  <r_epik_Ionization_Penalty_Charging>  (428) 
0

>  <r_epik_Ionization_Penalty_Neutral>  (428) 
0.0444852

>  <r_epik_State_Penalty>  (428) 
0.0377051

>  <r_epik_Charging_Adjusted_Penalty>  (428) 
0.0377051

>  <i_epik_Tot_Q>  (428) 
0

>  <i_epik_Tot_abs_Q>  (428) 
0

>  <s_epik_Chemistry_Notes>  (428) 
This compound contains an acetal/aminal-like group ( X-CH(R)-Y where X, Y are N, S, or O) that may be acid/base labile, releasing an aldehyde.

>  <s_lp_Force_Field>  (428) 
OPLS3e

>  <r_lp_Energy>  (428) 
185.043

>  <b_lp_Chiralities_Consistent>  (428) 
1

>  <s_lp_Variant>  (428) 
107:0-1

>  <s_i_glide_gridfile>  (428) 
pfpi4k_grid

>  <i_i_glide_lignum>  (428) 
37

>  <i_i_glide_rotatable_bonds>  (428) 
5

>  <r_i_docking_score>  (428) 
-1.5431

>  <r_i_glide_ligand_efficiency>  (428) 
-0.0453852

>  <r_i_glide_ligand_efficiency_sa>  (428) 
-0.14703

>  <r_i_glide_ligand_efficiency_ln>  (428) 
-0.340913

>  <r_i_glide_gscore>  (428) 
-1.5431

>  <r_i_glide_lipo>  (428) 
-0.257478

>  <r_i_glide_hbond>  (428) 
0

>  <r_i_glide_metal>  (428) 
-0

>  <r_i_glide_rewards>  (428) 
-0.23438

>  <r_i_glide_evdw>  (428) 
-26.4675

>  <r_i_glide_ecoul>  (428) 
-1.05868

>  <r_i_glide_erotb>  (428) 
0.465128

>  <r_i_glide_esite>  (428) 
-0.0341891

>  <r_i_glide_emodel>  (428) 
-29.9249

>  <r_i_glide_energy>  (428) 
-27.5262

>  <r_i_glide_einternal>  (428) 
1.14405

>  <r_i_glide_intrahb_reward>  (428) 
-0

>  <i_i_glide_confnum>  (428) 
1

>  <i_i_glide_posenum>  (428) 
31

>  <r_i_glide_eff_state_penalty>  (428) 
0

>  <ligand_id>  (428) 
107

>  <original_smiles>  (428) 
CC1CCC23CCC4(C)CCC1C21c2cccc(c2OC1O4)C3OCC1OCCN1CC1CC1

>  <smiles>  (428) 
[H]c1c([H])c2c3c(c1[H])C14C([H])(O3)OC3(C([H])([H])[H])C([H])([H])C([H])([H])C1([H])C([H])(C([H])([H])[H])C([H])([H])C([H])([H])C4(C2([H])OC([H])([H])C1([H])OC([H])([H])C([H])([H])N1C([H])([H])C1([H])C([H])([H])C1([H])[H])C([H])([H])C3([H])[H]

$$$$
107:0:2
     RDKit          3D

 73 80  0  0  1  0  0  0  0  0999 V2000
    2.9654  -11.8046    5.2382 C   0  0  0  0  0  0  0  0  0  0  0  0
    3.5776  -10.5421    4.6064 C   0  0  2  0  0  0  0  0  0  0  0  0
    3.6636   -9.3945    5.6149 C   0  0  0  0  0  0  0  0  0  0  0  0
    4.3811   -8.1504    5.0318 C   0  0  0  0  0  0  0  0  0  0  0  0
    3.7185   -7.5376    3.7521 C   0  0  2  0  0  0  0  0  0  0  0  0
    2.4174   -6.8874    4.3088 C   0  0  0  0  0  0  0  0  0  0  0  0
    1.2895   -6.5547    3.3442 C   0  0  0  0  0  0  0  0  0  0  0  0
    0.7500   -7.7550    2.5690 C   0  0  2  0  0  0  0  0  0  0  0  0
   -0.5866   -7.3233    1.9321 C   0  0  0  0  0  0  0  0  0  0  0  0
    0.5301   -9.0391    3.4184 C   0  0  0  0  0  0  0  0  0  0  0  0
    1.4234  -10.2439    3.0890 C   0  0  0  0  0  0  0  0  0  0  0  0
    2.9687  -10.1260    3.2375 C   0  0  1  0  0  0  0  0  0  0  0  0
    3.5778   -8.7888    2.7012 C   0  0  2  0  0  0  0  0  0  0  0  0
    4.9590   -8.9903    2.0062 C   0  0  0  0  0  0  0  0  0  0  0  0
    6.0665   -9.6387    2.5802 C   0  0  0  0  0  0  0  0  0  0  0  0
    7.1431   -8.7246    2.7775 C   0  0  0  0  0  0  0  0  0  0  0  0
    6.9465   -7.3291    2.6533 C   0  0  0  0  0  0  0  0  0  0  0  0
    5.7184   -6.8109    2.1622 C   0  0  0  0  0  0  0  0  0  0  0  0
    4.9492   -7.7324    1.4479 C   0  0  0  0  0  0  0  0  0  0  0  0
    3.7316   -7.3738    0.9528 O   0  0  0  0  0  0  0  0  0  0  0  0
    2.8640   -8.3443    1.3946 C   0  0  2  0  0  0  0  0  0  0  0  0
    1.5252   -7.9622    1.4028 O   0  0  0  0  0  0  0  0  0  0  0  0
    4.6913   -6.3588    3.2172 C   0  0  1  0  0  0  0  0  0  0  0  0
    3.9226   -5.2734    2.6914 O   0  0  0  0  0  0  0  0  0  0  0  0
    4.6703   -4.1719    2.1864 C   0  0  0  0  0  0  0  0  0  0  0  0
    3.7296   -3.2519    1.3856 C   0  0  2  0  0  0  0  0  0  0  0  0
    3.2231   -3.9845    0.3103 O   0  0  0  0  0  0  0  0  0  0  0  0
    4.1583   -3.8720   -0.7538 C   0  0  0  0  0  0  0  0  0  0  0  0
    4.9046   -2.5773   -0.4351 C   0  0  0  0  0  0  0  0  0  0  0  0
    4.4100   -2.0753    0.8313 N   0  0  0  0  0  0  0  0  0  0  0  0
    3.4720   -0.9771    0.6594 C   0  0  0  0  0  0  0  0  0  0  0  0
    2.9861   -0.3954    1.9639 C   0  0  0  0  0  0  0  0  0  0  0  0
    1.6192   -0.7553    2.5053 C   0  0  0  0  0  0  0  0  0  0  0  0
    1.8740    0.6319    1.9860 C   0  0  0  0  0  0  0  0  0  0  0  0
    1.9736  -11.6050    5.6395 H   0  0  0  0  0  0  0  0  0  0  0  0
    3.5712  -12.1633    6.0699 H   0  0  0  0  0  0  0  0  0  0  0  0
    2.8882  -12.6183    4.5200 H   0  0  0  0  0  0  0  0  0  0  0  0
    4.6076  -10.8301    4.4165 H   0  0  0  0  0  0  0  0  0  0  0  0
    2.6702   -9.1689    6.0015 H   0  0  0  0  0  0  0  0  0  0  0  0
    4.2222   -9.7366    6.4867 H   0  0  0  0  0  0  0  0  0  0  0  0
    4.4674   -7.3967    5.8129 H   0  0  0  0  0  0  0  0  0  0  0  0
    5.4064   -8.4462    4.8222 H   0  0  0  0  0  0  0  0  0  0  0  0
    1.9893   -7.4440    5.1316 H   0  0  0  0  0  0  0  0  0  0  0  0
    2.7050   -5.9595    4.8043 H   0  0  0  0  0  0  0  0  0  0  0  0
    0.4849   -6.1357    3.9450 H   0  0  0  0  0  0  0  0  0  0  0  0
    1.5764   -5.7656    2.6540 H   0  0  0  0  0  0  0  0  0  0  0  0
   -1.3514   -7.1259    2.6855 H   0  0  0  0  0  0  0  0  0  0  0  0
   -0.9714   -8.1011    1.2678 H   0  0  0  0  0  0  0  0  0  0  0  0
   -0.4599   -6.4252    1.3261 H   0  0  0  0  0  0  0  0  0  0  0  0
    0.5458   -8.8395    4.4849 H   0  0  0  0  0  0  0  0  0  0  0  0
   -0.4892   -9.3884    3.2482 H   0  0  0  0  0  0  0  0  0  0  0  0
    1.0577  -11.0961    3.6649 H   0  0  0  0  0  0  0  0  0  0  0  0
    1.1972  -10.5397    2.0726 H   0  0  0  0  0  0  0  0  0  0  0  0
    3.3151  -10.9013    2.5507 H   0  0  0  0  0  0  0  0  0  0  0  0
    6.0987  -10.6636    2.8808 H   0  0  0  0  0  0  0  0  0  0  0  0
    8.0749   -9.0698    3.2056 H   0  0  0  0  0  0  0  0  0  0  0  0
    7.6263   -6.6584    3.1527 H   0  0  0  0  0  0  0  0  0  0  0  0
    2.8895   -9.1641    0.6657 H   0  0  0  0  0  0  0  0  0  0  0  0
    5.2375   -5.9363    4.0641 H   0  0  0  0  0  0  0  0  0  0  0  0
    5.1069   -3.6135    3.0210 H   0  0  0  0  0  0  0  0  0  0  0  0
    5.4906   -4.4467    1.5214 H   0  0  0  0  0  0  0  0  0  0  0  0
    2.9027   -2.9770    2.0356 H   0  0  0  0  0  0  0  0  0  0  0  0
    4.8316   -4.7320   -0.7333 H   0  0  0  0  0  0  0  0  0  0  0  0
    3.6617   -3.8503   -1.7221 H   0  0  0  0  0  0  0  0  0  0  0  0
    5.9767   -2.7721   -0.3645 H   0  0  0  0  0  0  0  0  0  0  0  0
    4.7679   -1.8416   -1.2324 H   0  0  0  0  0  0  0  0  0  0  0  0
    3.9609   -0.1739    0.1076 H   0  0  0  0  0  0  0  0  0  0  0  0
    2.6172   -1.2983    0.0667 H   0  0  0  0  0  0  0  0  0  0  0  0
    3.7702   -0.2459    2.7037 H   0  0  0  0  0  0  0  0  0  0  0  0
    1.0037   -1.4189    1.9010 H   0  0  0  0  0  0  0  0  0  0  0  0
    1.5410   -0.8949    3.5804 H   0  0  0  0  0  0  0  0  0  0  0  0
    1.9441    1.4306    2.7213 H   0  0  0  0  0  0  0  0  0  0  0  0
    1.4024    0.8999    1.0420 H   0  0  0  0  0  0  0  0  0  0  0  0
  1  2  1  0
  1 35  1  0
  1 36  1  0
  1 37  1  0
  2 12  1  0
  2  3  1  0
  2 38  1  6
  3  4  1  0
  3 39  1  0
  3 40  1  0
  5  4  1  1
  4 41  1  0
  4 42  1  0
  5 13  1  0
  5 23  1  0
  5  6  1  0
  6  7  1  0
  6 43  1  0
  6 44  1  0
  7  8  1  0
  7 45  1  0
  7 46  1  0
  8 22  1  0
  8  9  1  6
  8 10  1  0
  9 47  1  0
  9 48  1  0
  9 49  1  0
 10 11  1  0
 10 50  1  0
 10 51  1  0
 11 12  1  0
 11 52  1  0
 11 53  1  0
 12 13  1  0
 12 54  1  6
 13 21  1  0
 13 14  1  6
 14 19  2  0
 14 15  1  0
 15 16  2  0
 15 55  1  0
 16 17  1  0
 16 56  1  0
 17 18  2  0
 17 57  1  0
 18 19  1  0
 18 23  1  0
 19 20  1  0
 20 21  1  0
 21 22  1  0
 21 58  1  6
 23 24  1  0
 23 59  1  1
 24 25  1  0
 25 26  1  0
 25 60  1  0
 25 61  1  0
 26 30  1  0
 26 27  1  0
 26 62  1  1
 27 28  1  0
 28 29  1  0
 28 63  1  0
 28 64  1  0
 29 30  1  0
 29 65  1  0
 29 66  1  0
 30 31  1  0
 31 32  1  0
 31 67  1  0
 31 68  1  0
 32 34  1  0
 32 33  1  0
 32 69  1  0
 33 34  1  0
 33 70  1  0
 33 71  1  0
 34 72  1  0
 34 73  1  0
M  END
>  <i_m_ct_stereo_status>  (429) 
1

>  <s_m_source_file>  (429) 
/var/tmp/pbs.5076255.sched01/tmpgahbdy6u/1388ql836nh.sdf

>  <i_m_source_file_index>  (429) 
37

>  <i_lp_mmshare_version>  (429) 
48012

>  <i_f3d_flags>  (429) 
0

>  <s_epik_input>  (429) 
W0NIMl0xW0NIMl1bQ0BASF0oW0NIM10pW0NASF0oW0NAQF0yM1tDQF0xNDUpW0NIMl1bQ0gyXVtDQEBdKFtDSDNdKShbQ0gyXVtDSDJdNClPW0NASF0zT2M2YzJbY0hdW2NIXVtjSF1jNltDQEhdNU9bQ0gyXVtDQEBIXTdPW0NIMl1bQ0gyXU43W0NIMl1bQ0hdOFtDSDJdW0NIMl04

>  <s_epik_cmdline>  (429) 
J2VwaWtfcHl0aG9uJywgJy1waHQnLCAnMi4wJywgJy1waCcsICc3LjAnLCAnLXRuJywgJzgnLCAnLW1hJywgJzIwMCcsICctaW1hZScsICc8aW5maWxlLm1hZT4nLCAnLW9tYWUnLCAnPG91dGZpbGUubWFlPic=

>  <r_lp_tautomer_probability>  (429) 
1

>  <r_epik_Ionization_Penalty>  (429) 
0.0444852

>  <r_epik_Ionization_Penalty_Charging>  (429) 
0

>  <r_epik_Ionization_Penalty_Neutral>  (429) 
0.0444852

>  <r_epik_State_Penalty>  (429) 
0.0377051

>  <r_epik_Charging_Adjusted_Penalty>  (429) 
0.0377051

>  <i_epik_Tot_Q>  (429) 
0

>  <i_epik_Tot_abs_Q>  (429) 
0

>  <s_epik_Chemistry_Notes>  (429) 
This compound contains an acetal/aminal-like group ( X-CH(R)-Y where X, Y are N, S, or O) that may be acid/base labile, releasing an aldehyde.

>  <s_lp_Force_Field>  (429) 
OPLS3e

>  <r_lp_Energy>  (429) 
185.043

>  <b_lp_Chiralities_Consistent>  (429) 
1

>  <s_lp_Variant>  (429) 
107:0-1

>  <s_i_glide_gridfile>  (429) 
pfpi4k_grid

>  <i_i_glide_lignum>  (429) 
37

>  <i_i_glide_rotatable_bonds>  (429) 
5

>  <r_i_docking_score>  (429) 
-1.54232

>  <r_i_glide_ligand_efficiency>  (429) 
-0.0453624

>  <r_i_glide_ligand_efficiency_sa>  (429) 
-0.146956

>  <r_i_glide_ligand_efficiency_ln>  (429) 
-0.340742

>  <r_i_glide_gscore>  (429) 
-1.54232

>  <r_i_glide_lipo>  (429) 
-0.316

>  <r_i_glide_hbond>  (429) 
0

>  <r_i_glide_metal>  (429) 
-0

>  <r_i_glide_rewards>  (429) 
-0.23882

>  <r_i_glide_evdw>  (429) 
-26.6977

>  <r_i_glide_ecoul>  (429) 
-0.647056

>  <r_i_glide_erotb>  (429) 
0.465128

>  <r_i_glide_esite>  (429) 
-0.0206862

>  <r_i_glide_emodel>  (429) 
-29.7715

>  <r_i_glide_energy>  (429) 
-27.3447

>  <r_i_glide_einternal>  (429) 
0.904524

>  <r_i_glide_intrahb_reward>  (429) 
-0

>  <i_i_glide_confnum>  (429) 
3

>  <i_i_glide_posenum>  (429) 
20

>  <r_i_glide_eff_state_penalty>  (429) 
0

>  <ligand_id>  (429) 
107

>  <original_smiles>  (429) 
CC1CCC23CCC4(C)CCC1C21c2cccc(c2OC1O4)C3OCC1OCCN1CC1CC1

>  <smiles>  (429) 
[H]c1c([H])c2c3c(c1[H])C14C([H])(O3)OC3(C([H])([H])[H])C([H])([H])C([H])([H])C1([H])C([H])(C([H])([H])[H])C([H])([H])C([H])([H])C4(C2([H])OC([H])([H])C1([H])OC([H])([H])C([H])([H])N1C([H])([H])C1([H])C([H])([H])C1([H])[H])C([H])([H])C3([H])[H]

$$$$
107:1:0
     RDKit          3D

 74 81  0  0  1  0  0  0  0  0999 V2000
    5.6148   -1.7322   -0.7091 C   0  0  0  0  0  0  0  0  0  0  0  0
    5.6599   -3.1183   -0.0397 C   0  0  2  0  0  0  0  0  0  0  0  0
    4.9324   -4.1749   -0.8787 C   0  0  0  0  0  0  0  0  0  0  0  0
    5.0568   -5.5941   -0.2731 C   0  0  0  0  0  0  0  0  0  0  0  0
    4.4873   -5.7513    1.1699 C   0  0  2  0  0  0  0  0  0  0  0  0
    2.9489   -5.6464    0.9673 C   0  0  0  0  0  0  0  0  0  0  0  0
    2.0679   -5.3252    2.1673 C   0  0  0  0  0  0  0  0  0  0  0  0
    2.4073   -4.0141    2.8781 C   0  0  2  0  0  0  0  0  0  0  0  0
    1.2343   -3.6833    3.8223 C   0  0  0  0  0  0  0  0  0  0  0  0
    2.6705   -2.8081    1.9305 C   0  0  0  0  0  0  0  0  0  0  0  0
    4.0982   -2.2362    1.9215 C   0  0  0  0  0  0  0  0  0  0  0  0
    5.2761   -3.1464    1.4722 C   0  0  1  0  0  0  0  0  0  0  0  0
    5.2335   -4.5975    2.0566 C   0  0  2  0  0  0  0  0  0  0  0  0
    6.6326   -5.1353    2.4133 C   0  0  0  0  0  0  0  0  0  0  0  0
    7.7551   -5.1654    1.5645 C   0  0  0  0  0  0  0  0  0  0  0  0
    8.1526   -6.4955    1.2846 C   0  0  0  0  0  0  0  0  0  0  0  0
    7.3254   -7.5892    1.6446 C   0  0  0  0  0  0  0  0  0  0  0  0
    6.1550   -7.3989    2.4306 C   0  0  0  0  0  0  0  0  0  0  0  0
    6.1638   -6.2055    3.1510 C   0  0  0  0  0  0  0  0  0  0  0  0
    5.0782   -5.8632    3.9180 O   0  0  0  0  0  0  0  0  0  0  0  0
    4.7443   -4.5882    3.5272 C   0  0  2  0  0  0  0  0  0  0  0  0
    3.4339   -4.2187    3.8308 O   0  0  0  0  0  0  0  0  0  0  0  0
    4.8235   -7.2658    1.6632 C   0  0  1  0  0  0  0  0  0  0  0  0
    3.7451   -7.7468    2.4660 O   0  0  0  0  0  0  0  0  0  0  0  0
    3.7313   -9.1295    2.7814 C   0  0  0  0  0  0  0  0  0  0  0  0
    2.6937   -9.3453    3.9091 C   0  0  2  0  0  0  0  0  0  0  0  0
    3.1934  -10.1905    4.8943 O   0  0  0  0  0  0  0  0  0  0  0  0
    3.1277  -11.5444    4.4550 C   0  0  0  0  0  0  0  0  0  0  0  0
    1.9774  -11.5990    3.4377 C   0  0  0  0  0  0  0  0  0  0  0  0
    1.5533  -10.2087    3.2286 N   0  0  1  0  0  0  0  0  0  0  0  0
    0.2407   -9.9022    3.8370 C   0  0  0  0  0  0  0  0  0  0  0  0
   -0.3434   -8.5867    3.3381 C   0  0  0  0  0  0  0  0  0  0  0  0
   -1.6531   -8.0651    3.8992 C   0  0  0  0  0  0  0  0  0  0  0  0
   -1.6006   -8.5842    2.4899 C   0  0  0  0  0  0  0  0  0  0  0  0
    4.5922   -1.3929   -0.8741 H   0  0  0  0  0  0  0  0  0  0  0  0
    6.0987   -1.7635   -1.6855 H   0  0  0  0  0  0  0  0  0  0  0  0
    6.1287   -0.9829   -0.1073 H   0  0  0  0  0  0  0  0  0  0  0  0
    6.7095   -3.3952   -0.0967 H   0  0  0  0  0  0  0  0  0  0  0  0
    3.9010   -3.8704   -1.0459 H   0  0  0  0  0  0  0  0  0  0  0  0
    5.3717   -4.1955   -1.8767 H   0  0  0  0  0  0  0  0  0  0  0  0
    4.6045   -6.3158   -0.9490 H   0  0  0  0  0  0  0  0  0  0  0  0
    6.1079   -5.8579   -0.2946 H   0  0  0  0  0  0  0  0  0  0  0  0
    2.6804   -4.9593    0.1768 H   0  0  0  0  0  0  0  0  0  0  0  0
    2.6056   -6.5938    0.5562 H   0  0  0  0  0  0  0  0  0  0  0  0
    1.0466   -5.2735    1.7990 H   0  0  0  0  0  0  0  0  0  0  0  0
    2.0587   -6.1393    2.8868 H   0  0  0  0  0  0  0  0  0  0  0  0
    0.3211   -3.4462    3.2800 H   0  0  0  0  0  0  0  0  0  0  0  0
    1.4689   -2.8243    4.4536 H   0  0  0  0  0  0  0  0  0  0  0  0
    1.0157   -4.5219    4.4871 H   0  0  0  0  0  0  0  0  0  0  0  0
    2.3356   -3.0001    0.9146 H   0  0  0  0  0  0  0  0  0  0  0  0
    2.0321   -1.9834    2.2472 H   0  0  0  0  0  0  0  0  0  0  0  0
    4.0811   -1.3268    1.3247 H   0  0  0  0  0  0  0  0  0  0  0  0
    4.3132   -1.8685    2.9266 H   0  0  0  0  0  0  0  0  0  0  0  0
    6.1244   -2.6579    1.9573 H   0  0  0  0  0  0  0  0  0  0  0  0
    8.2258   -4.3037    1.1212 H   0  0  0  0  0  0  0  0  0  0  0  0
    9.0027   -6.6780    0.6390 H   0  0  0  0  0  0  0  0  0  0  0  0
    7.4411   -8.5154    1.0953 H   0  0  0  0  0  0  0  0  0  0  0  0
    5.3387   -3.8909    4.1274 H   0  0  0  0  0  0  0  0  0  0  0  0
    4.8583   -7.9214    0.7897 H   0  0  0  0  0  0  0  0  0  0  0  0
    3.5445   -9.7419    1.8955 H   0  0  0  0  0  0  0  0  0  0  0  0
    4.7059   -9.4367    3.1696 H   0  0  0  0  0  0  0  0  0  0  0  0
    2.3427   -8.4055    4.3406 H   0  0  0  0  0  0  0  0  0  0  0  0
    4.0740  -11.8172    3.9830 H   0  0  0  0  0  0  0  0  0  0  0  0
    2.9755  -12.2287    5.2943 H   0  0  0  0  0  0  0  0  0  0  0  0
    2.3502  -12.0280    2.5074 H   0  0  0  0  0  0  0  0  0  0  0  0
    1.1597  -12.2267    3.7804 H   0  0  0  0  0  0  0  0  0  0  0  0
   -0.4831  -10.6862    3.6408 H   0  0  0  0  0  0  0  0  0  0  0  0
    0.3514   -9.8532    4.9225 H   0  0  0  0  0  0  0  0  0  0  0  0
    0.3918   -7.8093    3.1307 H   0  0  0  0  0  0  0  0  0  0  0  0
   -2.1806   -8.6642    4.6383 H   0  0  0  0  0  0  0  0  0  0  0  0
   -1.7585   -6.9911    4.0256 H   0  0  0  0  0  0  0  0  0  0  0  0
   -1.6346   -7.8602    1.6807 H   0  0  0  0  0  0  0  0  0  0  0  0
   -2.0849   -9.5397    2.2867 H   0  0  0  0  0  0  0  0  0  0  0  0
    1.4857  -10.0367    2.2322 H   0  0  0  0  0  0  0  0  0  0  0  0
  1  2  1  0
  1 35  1  0
  1 36  1  0
  1 37  1  0
  2 12  1  0
  2  3  1  0
  2 38  1  1
  3  4  1  0
  3 39  1  0
  3 40  1  0
  5  4  1  6
  4 41  1  0
  4 42  1  0
  5 13  1  0
  5 23  1  0
  5  6  1  0
  6  7  1  0
  6 43  1  0
  6 44  1  0
  7  8  1  0
  7 45  1  0
  7 46  1  0
  8 22  1  0
  8  9  1  1
  8 10  1  0
  9 47  1  0
  9 48  1  0
  9 49  1  0
 10 11  1  0
 10 50  1  0
 10 51  1  0
 11 12  1  0
 11 52  1  0
 11 53  1  0
 12 13  1  0
 12 54  1  1
 13 21  1  0
 13 14  1  1
 14 19  2  0
 14 15  1  0
 15 16  2  0
 15 55  1  0
 16 17  1  0
 16 56  1  0
 17 18  2  0
 17 57  1  0
 18 19  1  0
 18 23  1  0
 19 20  1  0
 20 21  1  0
 21 22  1  0
 21 58  1  1
 23 24  1  0
 23 59  1  6
 24 25  1  0
 25 26  1  0
 25 60  1  0
 25 61  1  0
 26 30  1  0
 26 27  1  0
 26 62  1  1
 27 28  1  0
 28 29  1  0
 28 63  1  0
 28 64  1  0
 29 30  1  0
 29 65  1  0
 29 66  1  0
 30 31  1  0
 30 74  1  6
 31 32  1  0
 31 67  1  0
 31 68  1  0
 32 34  1  0
 32 33  1  0
 32 69  1  0
 33 34  1  0
 33 70  1  0
 33 71  1  0
 34 72  1  0
 34 73  1  0
M  CHG  1  30   1
M  END
>  <i_m_ct_stereo_status>  (430) 
1

>  <s_m_source_file>  (430) 
/var/tmp/pbs.5076255.sched01/tmpgahbdy6u/1388ql836nh.sdf

>  <i_m_source_file_index>  (430) 
38

>  <i_lp_mmshare_version>  (430) 
48012

>  <i_f3d_flags>  (430) 
0

>  <s_epik_input>  (430) 
W0NIMl0xW0NIMl1bQ0BASF0oW0NIM10pW0NASF0oW0NAQF0yM1tDQF0xNDUpW0NIMl1bQ0gyXVtDQEBdKFtDSDNdKShbQ0gyXVtDSDJdNClPW0NASF0zT2M2YzJbY0hdW2NIXVtjSF1jNltDQEhdNU9bQ0gyXVtDQEBIXTdPW0NIMl1bQ0gyXU43W0NIMl1bQ0hdOFtDSDJdW0NIMl04

>  <s_epik_cmdline>  (430) 
J2VwaWtfcHl0aG9uJywgJy1waHQnLCAnMi4wJywgJy1waCcsICc3LjAnLCAnLXRuJywgJzgnLCAnLW1hJywgJzIwMCcsICctaW1hZScsICc8aW5maWxlLm1hZT4nLCAnLW9tYWUnLCAnPG91dGZpbGUubWFlPic=

>  <r_lp_tautomer_probability>  (430) 
1

>  <r_epik_Ionization_Penalty>  (430) 
1.55615

>  <r_epik_Ionization_Penalty_Charging>  (430) 
1.55615

>  <r_epik_Ionization_Penalty_Neutral>  (430) 
2.30753e-13

>  <r_epik_State_Penalty>  (430) 
1.65077

>  <r_epik_Charging_Adjusted_Penalty>  (430) 
3.20692

>  <i_epik_Tot_Q>  (430) 
1

>  <i_epik_Tot_abs_Q>  (430) 
1

>  <s_epik_Chemistry_Notes>  (430) 
This compound contains an acetal/aminal-like group ( X-CH(R)-Y where X, Y are N, S, or O) that may be acid/base labile, releasing an aldehyde.

>  <s_lp_Force_Field>  (430) 
OPLS3e

>  <r_lp_Energy>  (430) 
174.979

>  <b_lp_Chiralities_Consistent>  (430) 
1

>  <s_lp_Variant>  (430) 
107:0-2

>  <s_i_glide_gridfile>  (430) 
pfpi4k_grid

>  <i_i_glide_lignum>  (430) 
38

>  <i_i_glide_rotatable_bonds>  (430) 
5

>  <r_i_docking_score>  (430) 
-2.36632

>  <r_i_glide_ligand_efficiency>  (430) 
-0.0695976

>  <r_i_glide_ligand_efficiency_sa>  (430) 
-0.225469

>  <r_i_glide_ligand_efficiency_ln>  (430) 
-0.522786

>  <r_i_glide_gscore>  (430) 
-2.36632

>  <r_i_glide_lipo>  (430) 
-0.611683

>  <r_i_glide_hbond>  (430) 
0

>  <r_i_glide_metal>  (430) 
-0

>  <r_i_glide_rewards>  (430) 
-0.234536

>  <r_i_glide_evdw>  (430) 
-27.191

>  <r_i_glide_ecoul>  (430) 
-4.10362

>  <r_i_glide_erotb>  (430) 
0.463298

>  <r_i_glide_esite>  (430) 
-0.00830638

>  <r_i_glide_emodel>  (430) 
-35.9248

>  <r_i_glide_energy>  (430) 
-31.2946

>  <r_i_glide_einternal>  (430) 
2.5182

>  <r_i_glide_intrahb_reward>  (430) 
-0

>  <i_i_glide_confnum>  (430) 
3

>  <i_i_glide_posenum>  (430) 
5

>  <r_i_glide_eff_state_penalty>  (430) 
0

>  <ligand_id>  (430) 
107

>  <original_smiles>  (430) 
CC1CCC23CCC4(C)CCC1C21c2cccc(c2OC1O4)C3OCC1OCCN1CC1CC1

>  <smiles>  (430) 
[H]c1c([H])c2c3c(c1[H])C14C([H])(O3)OC3(C([H])([H])[H])C([H])([H])C([H])([H])C1([H])C([H])(C([H])([H])[H])C([H])([H])C([H])([H])C4(C2([H])OC([H])([H])C1([H])OC([H])([H])C([H])([H])[N+]1([H])C([H])([H])C1([H])C([H])([H])C1([H])[H])C([H])([H])C3([H])[H]

$$$$
107:1:1
     RDKit          3D

 74 81  0  0  1  0  0  0  0  0999 V2000
    5.6260   -1.9003   -0.8775 C   0  0  0  0  0  0  0  0  0  0  0  0
    5.6568   -3.2566   -0.1469 C   0  0  2  0  0  0  0  0  0  0  0  0
    4.8883   -4.3314   -0.9200 C   0  0  0  0  0  0  0  0  0  0  0  0
    4.9909   -5.7222   -0.2521 C   0  0  0  0  0  0  0  0  0  0  0  0
    4.4555   -5.8073    1.2056 C   0  0  2  0  0  0  0  0  0  0  0  0
    2.9223   -5.6756    1.0315 C   0  0  0  0  0  0  0  0  0  0  0  0
    2.0641   -5.2868    2.2292 C   0  0  0  0  0  0  0  0  0  0  0  0
    2.4387   -3.9473    2.8647 C   0  0  2  0  0  0  0  0  0  0  0  0
    1.2918   -3.5483    3.8120 C   0  0  0  0  0  0  0  0  0  0  0  0
    2.7126   -2.7979    1.8557 C   0  0  0  0  0  0  0  0  0  0  0  0
    4.1537   -2.2610    1.8048 C   0  0  0  0  0  0  0  0  0  0  0  0
    5.3046   -3.2056    1.3709 C   0  0  1  0  0  0  0  0  0  0  0  0
    5.2297   -4.6273    2.0205 C   0  0  2  0  0  0  0  0  0  0  0  0
    6.6234   -5.1867    2.3596 C   0  0  0  0  0  0  0  0  0  0  0  0
    7.7266   -5.2684    1.4923 C   0  0  0  0  0  0  0  0  0  0  0  0
    8.0842   -6.6165    1.2629 C   0  0  0  0  0  0  0  0  0  0  0  0
    7.2613   -7.6870    1.6972 C   0  0  0  0  0  0  0  0  0  0  0  0
    6.1152   -7.4275    2.5087 C   0  0  0  0  0  0  0  0  0  0  0  0
    6.1558   -6.2167    3.1672 C   0  0  0  0  0  0  0  0  0  0  0  0
    5.0744   -5.8224    3.9134 O   0  0  0  0  0  0  0  0  0  0  0  0
    4.7735   -4.5469    3.4923 C   0  0  2  0  0  0  0  0  0  0  0  0
    3.4893   -4.1116    3.8000 O   0  0  0  0  0  0  0  0  0  0  0  0
    4.7793   -7.3086    1.7485 C   0  0  1  0  0  0  0  0  0  0  0  0
    3.7035   -7.7542    2.5750 O   0  0  0  0  0  0  0  0  0  0  0  0
    3.6306   -9.1296    2.8900 C   0  0  0  0  0  0  0  0  0  0  0  0
    2.4473   -9.2572    3.8783 C   0  0  2  0  0  0  0  0  0  0  0  0
    2.8919   -9.4340    5.1843 O   0  0  0  0  0  0  0  0  0  0  0  0
    3.2835  -10.7819    5.4246 C   0  0  0  0  0  0  0  0  0  0  0  0
    2.4948  -11.6312    4.4005 C   0  0  0  0  0  0  0  0  0  0  0  0
    1.7856  -10.6857    3.5286 N   0  0  1  0  0  0  0  0  0  0  0  0
    0.3310  -10.6349    3.7714 C   0  0  0  0  0  0  0  0  0  0  0  0
   -0.4427  -10.0072    2.6227 C   0  0  0  0  0  0  0  0  0  0  0  0
   -0.5134   -8.5035    2.3944 C   0  0  0  0  0  0  0  0  0  0  0  0
   -1.7308   -9.2527    2.8686 C   0  0  0  0  0  0  0  0  0  0  0  0
    4.6069   -1.5494   -1.0382 H   0  0  0  0  0  0  0  0  0  0  0  0
    6.0915   -1.9853   -1.8598 H   0  0  0  0  0  0  0  0  0  0  0  0
    6.1656   -1.1384   -0.3169 H   0  0  0  0  0  0  0  0  0  0  0  0
    6.7009   -3.5526   -0.2221 H   0  0  0  0  0  0  0  0  0  0  0  0
    3.8621   -4.0109   -1.0840 H   0  0  0  0  0  0  0  0  0  0  0  0
    5.3098   -4.4114   -1.9208 H   0  0  0  0  0  0  0  0  0  0  0  0
    4.4989   -6.4685   -0.8675 H   0  0  0  0  0  0  0  0  0  0  0  0
    6.0353   -6.0020   -0.2760 H   0  0  0  0  0  0  0  0  0  0  0  0
    2.6544   -5.0181    0.2171 H   0  0  0  0  0  0  0  0  0  0  0  0
    2.5496   -6.6294    0.6686 H   0  0  0  0  0  0  0  0  0  0  0  0
    1.0400   -5.2277    1.8754 H   0  0  0  0  0  0  0  0  0  0  0  0
    2.0505   -6.0680    2.9862 H   0  0  0  0  0  0  0  0  0  0  0  0
    0.3761   -3.3199    3.2700 H   0  0  0  0  0  0  0  0  0  0  0  0
    1.5619   -2.6682    4.3970 H   0  0  0  0  0  0  0  0  0  0  0  0
    1.0765   -4.3537    4.5169 H   0  0  0  0  0  0  0  0  0  0  0  0
    2.3508   -3.0226    0.8558 H   0  0  0  0  0  0  0  0  0  0  0  0
    2.1023   -1.9459    2.1531 H   0  0  0  0  0  0  0  0  0  0  0  0
    4.1435   -1.3783    1.1696 H   0  0  0  0  0  0  0  0  0  0  0  0
    4.3942   -1.8547    2.7883 H   0  0  0  0  0  0  0  0  0  0  0  0
    6.1727   -2.7139    1.8146 H   0  0  0  0  0  0  0  0  0  0  0  0
    8.2140   -4.4309    1.0053 H   0  0  0  0  0  0  0  0  0  0  0  0
    8.9256   -6.8568    0.6159 H   0  0  0  0  0  0  0  0  0  0  0  0
    7.3616   -8.6390    1.2126 H   0  0  0  0  0  0  0  0  0  0  0  0
    5.4019   -3.8441    4.0561 H   0  0  0  0  0  0  0  0  0  0  0  0
    4.8026   -7.9911    0.8914 H   0  0  0  0  0  0  0  0  0  0  0  0
    3.4483   -9.6891    1.9763 H   0  0  0  0  0  0  0  0  0  0  0  0
    4.5637   -9.4987    3.3342 H   0  0  0  0  0  0  0  0  0  0  0  0
    1.7880   -8.4024    3.8271 H   0  0  0  0  0  0  0  0  0  0  0  0
    4.3543  -10.8601    5.2512 H   0  0  0  0  0  0  0  0  0  0  0  0
    3.0920  -11.0740    6.4592 H   0  0  0  0  0  0  0  0  0  0  0  0
    3.1967  -12.2236    3.7976 H   0  0  0  0  0  0  0  0  0  0  0  0
    1.8199  -12.3354    4.8846 H   0  0  0  0  0  0  0  0  0  0  0  0
   -0.0599  -11.6349    3.9401 H   0  0  0  0  0  0  0  0  0  0  0  0
    0.1462  -10.0987    4.7073 H   0  0  0  0  0  0  0  0  0  0  0  0
   -0.4821  -10.6711    1.7542 H   0  0  0  0  0  0  0  0  0  0  0  0
   -0.1617   -7.7771    3.1286 H   0  0  0  0  0  0  0  0  0  0  0  0
   -0.4580   -8.2073    1.3503 H   0  0  0  0  0  0  0  0  0  0  0  0
   -2.5413   -9.2862    2.1488 H   0  0  0  0  0  0  0  0  0  0  0  0
   -2.0326   -9.0583    3.8965 H   0  0  0  0  0  0  0  0  0  0  0  0
    1.9423  -10.9764    2.5671 H   0  0  0  0  0  0  0  0  0  0  0  0
  1  2  1  0
  1 35  1  0
  1 36  1  0
  1 37  1  0
  2 12  1  0
  2  3  1  0
  2 38  1  1
  3  4  1  0
  3 39  1  0
  3 40  1  0
  5  4  1  6
  4 41  1  0
  4 42  1  0
  5 13  1  0
  5 23  1  0
  5  6  1  0
  6  7  1  0
  6 43  1  0
  6 44  1  0
  7  8  1  0
  7 45  1  0
  7 46  1  0
  8 22  1  0
  8  9  1  1
  8 10  1  0
  9 47  1  0
  9 48  1  0
  9 49  1  0
 10 11  1  0
 10 50  1  0
 10 51  1  0
 11 12  1  0
 11 52  1  0
 11 53  1  0
 12 13  1  0
 12 54  1  1
 13 21  1  0
 13 14  1  1
 14 19  2  0
 14 15  1  0
 15 16  2  0
 15 55  1  0
 16 17  1  0
 16 56  1  0
 17 18  2  0
 17 57  1  0
 18 19  1  0
 18 23  1  0
 19 20  1  0
 20 21  1  0
 21 22  1  0
 21 58  1  1
 23 24  1  0
 23 59  1  6
 24 25  1  0
 25 26  1  0
 25 60  1  0
 25 61  1  0
 26 30  1  0
 26 27  1  0
 26 62  1  1
 27 28  1  0
 28 29  1  0
 28 63  1  0
 28 64  1  0
 29 30  1  0
 29 65  1  0
 29 66  1  0
 30 31  1  0
 30 74  1  6
 31 32  1  0
 31 67  1  0
 31 68  1  0
 32 34  1  0
 32 33  1  0
 32 69  1  0
 33 34  1  0
 33 70  1  0
 33 71  1  0
 34 72  1  0
 34 73  1  0
M  CHG  1  30   1
M  END
>  <i_m_ct_stereo_status>  (431) 
1

>  <s_m_source_file>  (431) 
/var/tmp/pbs.5076255.sched01/tmpgahbdy6u/1388ql836nh.sdf

>  <i_m_source_file_index>  (431) 
38

>  <i_lp_mmshare_version>  (431) 
48012

>  <i_f3d_flags>  (431) 
0

>  <s_epik_input>  (431) 
W0NIMl0xW0NIMl1bQ0BASF0oW0NIM10pW0NASF0oW0NAQF0yM1tDQF0xNDUpW0NIMl1bQ0gyXVtDQEBdKFtDSDNdKShbQ0gyXVtDSDJdNClPW0NASF0zT2M2YzJbY0hdW2NIXVtjSF1jNltDQEhdNU9bQ0gyXVtDQEBIXTdPW0NIMl1bQ0gyXU43W0NIMl1bQ0hdOFtDSDJdW0NIMl04

>  <s_epik_cmdline>  (431) 
J2VwaWtfcHl0aG9uJywgJy1waHQnLCAnMi4wJywgJy1waCcsICc3LjAnLCAnLXRuJywgJzgnLCAnLW1hJywgJzIwMCcsICctaW1hZScsICc8aW5maWxlLm1hZT4nLCAnLW9tYWUnLCAnPG91dGZpbGUubWFlPic=

>  <r_lp_tautomer_probability>  (431) 
1

>  <r_epik_Ionization_Penalty>  (431) 
1.55615

>  <r_epik_Ionization_Penalty_Charging>  (431) 
1.55615

>  <r_epik_Ionization_Penalty_Neutral>  (431) 
2.30753e-13

>  <r_epik_State_Penalty>  (431) 
1.65077

>  <r_epik_Charging_Adjusted_Penalty>  (431) 
3.20692

>  <i_epik_Tot_Q>  (431) 
1

>  <i_epik_Tot_abs_Q>  (431) 
1

>  <s_epik_Chemistry_Notes>  (431) 
This compound contains an acetal/aminal-like group ( X-CH(R)-Y where X, Y are N, S, or O) that may be acid/base labile, releasing an aldehyde.

>  <s_lp_Force_Field>  (431) 
OPLS3e

>  <r_lp_Energy>  (431) 
174.979

>  <b_lp_Chiralities_Consistent>  (431) 
1

>  <s_lp_Variant>  (431) 
107:0-2

>  <s_i_glide_gridfile>  (431) 
pfpi4k_grid

>  <i_i_glide_lignum>  (431) 
38

>  <i_i_glide_rotatable_bonds>  (431) 
5

>  <r_i_docking_score>  (431) 
-2.28469

>  <r_i_glide_ligand_efficiency>  (431) 
-0.0671967

>  <r_i_glide_ligand_efficiency_sa>  (431) 
-0.217691

>  <r_i_glide_ligand_efficiency_ln>  (431) 
-0.504752

>  <r_i_glide_gscore>  (431) 
-2.28469

>  <r_i_glide_lipo>  (431) 
-0.517611

>  <r_i_glide_hbond>  (431) 
0

>  <r_i_glide_metal>  (431) 
-0

>  <r_i_glide_rewards>  (431) 
-0.23555

>  <r_i_glide_evdw>  (431) 
-26.9451

>  <r_i_glide_ecoul>  (431) 
-4.25874

>  <r_i_glide_erotb>  (431) 
0.463298

>  <r_i_glide_esite>  (431) 
-0.0087599

>  <r_i_glide_emodel>  (431) 
-35.2238

>  <r_i_glide_energy>  (431) 
-31.2039

>  <r_i_glide_einternal>  (431) 
2.0905

>  <r_i_glide_intrahb_reward>  (431) 
-0

>  <i_i_glide_confnum>  (431) 
3

>  <i_i_glide_posenum>  (431) 
25

>  <r_i_glide_eff_state_penalty>  (431) 
0

>  <ligand_id>  (431) 
107

>  <original_smiles>  (431) 
CC1CCC23CCC4(C)CCC1C21c2cccc(c2OC1O4)C3OCC1OCCN1CC1CC1

>  <smiles>  (431) 
[H]c1c([H])c2c3c(c1[H])C14C([H])(O3)OC3(C([H])([H])[H])C([H])([H])C([H])([H])C1([H])C([H])(C([H])([H])[H])C([H])([H])C([H])([H])C4(C2([H])OC([H])([H])C1([H])OC([H])([H])C([H])([H])[N+]1([H])C([H])([H])C1([H])C([H])([H])C1([H])[H])C([H])([H])C3([H])[H]

$$$$
107:1:2
     RDKit          3D

 74 81  0  0  1  0  0  0  0  0999 V2000
   -1.8487    2.2797    7.9505 C   0  0  0  0  0  0  0  0  0  0  0  0
   -0.8859    2.2166    6.7500 C   0  0  2  0  0  0  0  0  0  0  0  0
   -1.6270    1.9061    5.4450 C   0  0  0  0  0  0  0  0  0  0  0  0
   -0.6941    1.9328    4.2084 C   0  0  0  0  0  0  0  0  0  0  0  0
    0.5098    0.9427    4.2620 C   0  0  2  0  0  0  0  0  0  0  0  0
   -0.1772   -0.4440    4.0869 C   0  0  0  0  0  0  0  0  0  0  0  0
    0.5646   -1.7086    4.4880 C   0  0  0  0  0  0  0  0  0  0  0  0
    1.0112   -1.7398    5.9481 C   0  0  2  0  0  0  0  0  0  0  0  0
    1.4324   -3.1855    6.2688 C   0  0  0  0  0  0  0  0  0  0  0  0
   -0.0679   -1.2749    6.9638 C   0  0  0  0  0  0  0  0  0  0  0  0
    0.2300    0.0187    7.7415 C   0  0  0  0  0  0  0  0  0  0  0  0
    0.3969    1.3540    6.9604 C   0  0  1  0  0  0  0  0  0  0  0  0
    1.2730    1.2522    5.6741 C   0  0  2  0  0  0  0  0  0  0  0  0
    2.1681    2.4888    5.4622 C   0  0  0  0  0  0  0  0  0  0  0  0
    1.7262    3.8306    5.4314 C   0  0  0  0  0  0  0  0  0  0  0  0
    1.9077    4.4039    4.1529 C   0  0  0  0  0  0  0  0  0  0  0  0
    2.2458    3.5983    3.0300 C   0  0  0  0  0  0  0  0  0  0  0  0
    2.5857    2.2205    3.1779 C   0  0  0  0  0  0  0  0  0  0  0  0
    2.9434    1.8784    4.4796 C   0  0  0  0  0  0  0  0  0  0  0  0
    3.2289    0.5637    4.7883 O   0  0  0  0  0  0  0  0  0  0  0  0
    2.4657    0.2825    5.8914 C   0  0  2  0  0  0  0  0  0  0  0  0
    2.2504   -1.0796    6.1153 O   0  0  0  0  0  0  0  0  0  0  0  0
    1.4314    1.2245    2.9463 C   0  0  1  0  0  0  0  0  0  0  0  0
    1.9552   -0.0126    2.4665 O   0  0  0  0  0  0  0  0  0  0  0  0
    2.6742   -0.0008    1.2402 C   0  0  0  0  0  0  0  0  0  0  0  0
    2.9390   -1.4819    0.8668 C   0  0  2  0  0  0  0  0  0  0  0  0
    3.9325   -2.0122    1.6943 O   0  0  0  0  0  0  0  0  0  0  0  0
    5.2212   -1.5524    1.2766 C   0  0  0  0  0  0  0  0  0  0  0  0
    5.1000   -1.2829   -0.2267 C   0  0  0  0  0  0  0  0  0  0  0  0
    3.6668   -1.4173   -0.5436 N   0  0  1  0  0  0  0  0  0  0  0  0
    3.3440   -2.6316   -1.3281 C   0  0  0  0  0  0  0  0  0  0  0  0
    3.8996   -2.6295   -2.7428 C   0  0  0  0  0  0  0  0  0  0  0  0
    3.1556   -1.9223   -3.8492 C   0  0  0  0  0  0  0  0  0  0  0  0
    3.2228   -3.4253   -3.8440 C   0  0  0  0  0  0  0  0  0  0  0  0
   -2.3989    1.3513    8.0855 H   0  0  0  0  0  0  0  0  0  0  0  0
   -2.5865    3.0688    7.8096 H   0  0  0  0  0  0  0  0  0  0  0  0
   -1.3157    2.5008    8.8741 H   0  0  0  0  0  0  0  0  0  0  0  0
   -0.5516    3.2447    6.6412 H   0  0  0  0  0  0  0  0  0  0  0  0
   -2.1729    0.9705    5.5453 H   0  0  0  0  0  0  0  0  0  0  0  0
   -2.4041    2.6576    5.3003 H   0  0  0  0  0  0  0  0  0  0  0  0
   -1.2930    1.7565    3.3132 H   0  0  0  0  0  0  0  0  0  0  0  0
   -0.3384    2.9525    4.0970 H   0  0  0  0  0  0  0  0  0  0  0  0
   -1.1568   -0.4855    4.5399 H   0  0  0  0  0  0  0  0  0  0  0  0
   -0.4207   -0.5314    3.0346 H   0  0  0  0  0  0  0  0  0  0  0  0
   -0.1219   -2.5363    4.3171 H   0  0  0  0  0  0  0  0  0  0  0  0
    1.4112   -1.9005    3.8333 H   0  0  0  0  0  0  0  0  0  0  0  0
    0.5879   -3.8762    6.2316 H   0  0  0  0  0  0  0  0  0  0  0  0
    1.8807   -3.2525    7.2634 H   0  0  0  0  0  0  0  0  0  0  0  0
    2.1829   -3.5385    5.5574 H   0  0  0  0  0  0  0  0  0  0  0  0
   -1.0533   -1.2349    6.5078 H   0  0  0  0  0  0  0  0  0  0  0  0
   -0.1626   -2.0506    7.7214 H   0  0  0  0  0  0  0  0  0  0  0  0
   -0.5326    0.1357    8.5070 H   0  0  0  0  0  0  0  0  0  0  0  0
    1.1360   -0.1491    8.3284 H   0  0  0  0  0  0  0  0  0  0  0  0
    0.9824    1.9434    7.6697 H   0  0  0  0  0  0  0  0  0  0  0  0
    1.2519    4.3464    6.2568 H   0  0  0  0  0  0  0  0  0  0  0  0
    1.6117    5.4249    3.9630 H   0  0  0  0  0  0  0  0  0  0  0  0
    1.9910    3.9625    2.0508 H   0  0  0  0  0  0  0  0  0  0  0  0
    3.0398    0.5793    6.7708 H   0  0  0  0  0  0  0  0  0  0  0  0
    0.7959    1.6084    2.1542 H   0  0  0  0  0  0  0  0  0  0  0  0
    2.0484    0.4770    0.4969 H   0  0  0  0  0  0  0  0  0  0  0  0
    3.5940    0.5818    1.3029 H   0  0  0  0  0  0  0  0  0  0  0  0
    2.0148   -2.0688    0.8845 H   0  0  0  0  0  0  0  0  0  0  0  0
    5.4997   -0.6422    1.8137 H   0  0  0  0  0  0  0  0  0  0  0  0
    5.9782   -2.3011    1.5088 H   0  0  0  0  0  0  0  0  0  0  0  0
    5.4227   -0.2720   -0.4626 H   0  0  0  0  0  0  0  0  0  0  0  0
    5.7234   -1.9655   -0.8022 H   0  0  0  0  0  0  0  0  0  0  0  0
    3.7084   -3.5218   -0.8204 H   0  0  0  0  0  0  0  0  0  0  0  0
    2.2624   -2.7263   -1.3899 H   0  0  0  0  0  0  0  0  0  0  0  0
    4.9873   -2.6481   -2.8068 H   0  0  0  0  0  0  0  0  0  0  0  0
    2.2204   -1.4601   -3.5825 H   0  0  0  0  0  0  0  0  0  0  0  0
    3.7604   -1.3819   -4.5732 H   0  0  0  0  0  0  0  0  0  0  0  0
    3.8528   -3.8822   -4.6008 H   0  0  0  0  0  0  0  0  0  0  0  0
    2.2997   -3.9596   -3.6240 H   0  0  0  0  0  0  0  0  0  0  0  0
    3.3333   -0.6409   -1.1019 H   0  0  0  0  0  0  0  0  0  0  0  0
  1  2  1  0
  1 35  1  0
  1 36  1  0
  1 37  1  0
  2 12  1  0
  2  3  1  0
  2 38  1  6
  3  4  1  0
  3 39  1  0
  3 40  1  0
  5  4  1  6
  4 41  1  0
  4 42  1  0
  5 13  1  0
  5 23  1  0
  5  6  1  0
  6  7  1  0
  6 43  1  0
  6 44  1  0
  7  8  1  0
  7 45  1  0
  7 46  1  0
  8 22  1  0
  8  9  1  1
  8 10  1  0
  9 47  1  0
  9 48  1  0
  9 49  1  0
 10 11  1  0
 10 50  1  0
 10 51  1  0
 11 12  1  0
 11 52  1  0
 11 53  1  0
 12 13  1  0
 12 54  1  1
 13 21  1  0
 13 14  1  6
 14 19  2  0
 14 15  1  0
 15 16  2  0
 15 55  1  0
 16 17  1  0
 16 56  1  0
 17 18  2  0
 17 57  1  0
 18 19  1  0
 18 23  1  0
 19 20  1  0
 20 21  1  0
 21 22  1  0
 21 58  1  1
 23 24  1  0
 23 59  1  6
 24 25  1  0
 25 26  1  0
 25 60  1  0
 25 61  1  0
 26 30  1  0
 26 27  1  0
 26 62  1  6
 27 28  1  0
 28 29  1  0
 28 63  1  0
 28 64  1  0
 29 30  1  0
 29 65  1  0
 29 66  1  0
 30 31  1  0
 30 74  1  6
 31 32  1  0
 31 67  1  0
 31 68  1  0
 32 34  1  0
 32 33  1  0
 32 69  1  0
 33 34  1  0
 33 70  1  0
 33 71  1  0
 34 72  1  0
 34 73  1  0
M  CHG  1  30   1
M  END
>  <i_m_ct_stereo_status>  (432) 
1

>  <s_m_source_file>  (432) 
/var/tmp/pbs.5076255.sched01/tmpgahbdy6u/1388ql836nh.sdf

>  <i_m_source_file_index>  (432) 
38

>  <i_lp_mmshare_version>  (432) 
48012

>  <i_f3d_flags>  (432) 
0

>  <s_epik_input>  (432) 
W0NIMl0xW0NIMl1bQ0BASF0oW0NIM10pW0NASF0oW0NAQF0yM1tDQF0xNDUpW0NIMl1bQ0gyXVtDQEBdKFtDSDNdKShbQ0gyXVtDSDJdNClPW0NASF0zT2M2YzJbY0hdW2NIXVtjSF1jNltDQEhdNU9bQ0gyXVtDQEBIXTdPW0NIMl1bQ0gyXU43W0NIMl1bQ0hdOFtDSDJdW0NIMl04

>  <s_epik_cmdline>  (432) 
J2VwaWtfcHl0aG9uJywgJy1waHQnLCAnMi4wJywgJy1waCcsICc3LjAnLCAnLXRuJywgJzgnLCAnLW1hJywgJzIwMCcsICctaW1hZScsICc8aW5maWxlLm1hZT4nLCAnLW9tYWUnLCAnPG91dGZpbGUubWFlPic=

>  <r_lp_tautomer_probability>  (432) 
1

>  <r_epik_Ionization_Penalty>  (432) 
1.55615

>  <r_epik_Ionization_Penalty_Charging>  (432) 
1.55615

>  <r_epik_Ionization_Penalty_Neutral>  (432) 
2.30753e-13

>  <r_epik_State_Penalty>  (432) 
1.65077

>  <r_epik_Charging_Adjusted_Penalty>  (432) 
3.20692

>  <i_epik_Tot_Q>  (432) 
1

>  <i_epik_Tot_abs_Q>  (432) 
1

>  <s_epik_Chemistry_Notes>  (432) 
This compound contains an acetal/aminal-like group ( X-CH(R)-Y where X, Y are N, S, or O) that may be acid/base labile, releasing an aldehyde.

>  <s_lp_Force_Field>  (432) 
OPLS3e

>  <r_lp_Energy>  (432) 
174.979

>  <b_lp_Chiralities_Consistent>  (432) 
1

>  <s_lp_Variant>  (432) 
107:0-2

>  <s_i_glide_gridfile>  (432) 
pfpi4k_grid

>  <i_i_glide_lignum>  (432) 
38

>  <i_i_glide_rotatable_bonds>  (432) 
5

>  <r_i_docking_score>  (432) 
-2.10144

>  <r_i_glide_ligand_efficiency>  (432) 
-0.0618071

>  <r_i_glide_ligand_efficiency_sa>  (432) 
-0.200231

>  <r_i_glide_ligand_efficiency_ln>  (432) 
-0.464268

>  <r_i_glide_gscore>  (432) 
-2.10144

>  <r_i_glide_lipo>  (432) 
-0.378668

>  <r_i_glide_hbond>  (432) 
0

>  <r_i_glide_metal>  (432) 
-0

>  <r_i_glide_rewards>  (432) 
-0.227508

>  <r_i_glide_evdw>  (432) 
-26.4444

>  <r_i_glide_ecoul>  (432) 
-3.22291

>  <r_i_glide_erotb>  (432) 
0.463298

>  <r_i_glide_esite>  (432) 
-0.152907

>  <r_i_glide_emodel>  (432) 
-34.1008

>  <r_i_glide_energy>  (432) 
-29.6673

>  <r_i_glide_einternal>  (432) 
0.96903

>  <r_i_glide_intrahb_reward>  (432) 
-0

>  <i_i_glide_confnum>  (432) 
4

>  <i_i_glide_posenum>  (432) 
1

>  <r_i_glide_eff_state_penalty>  (432) 
0

>  <ligand_id>  (432) 
107

>  <original_smiles>  (432) 
CC1CCC23CCC4(C)CCC1C21c2cccc(c2OC1O4)C3OCC1OCCN1CC1CC1

>  <smiles>  (432) 
[H]c1c([H])c2c3c(c1[H])C14C([H])(O3)OC3(C([H])([H])[H])C([H])([H])C([H])([H])C1([H])C([H])(C([H])([H])[H])C([H])([H])C([H])([H])C4(C2([H])OC([H])([H])C1([H])OC([H])([H])C([H])([H])[N+]1([H])C([H])([H])C1([H])C([H])([H])C1([H])[H])C([H])([H])C3([H])[H]

$$$$
109:0:0
     RDKit          3D

 32 34  0  0  1  0  0  0  0  0999 V2000
    0.2026    1.7387    1.4927 N   0  0  0  0  0  0  0  0  0  0  0  0
   -0.0701    1.3911    2.7422 C   0  0  0  0  0  0  0  0  0  0  0  0
   -0.1770    0.2082    3.0754 O   0  0  0  0  0  0  0  0  0  0  0  0
   -0.2235    2.4489    3.5658 N   0  0  0  0  0  0  0  0  0  0  0  0
   -0.4781    2.5063    5.0197 C   0  0  1  0  0  0  0  0  0  0  0  0
   -1.7974    3.2759    5.3013 C   0  0  0  0  0  0  0  0  0  0  0  0
   -2.0613    3.3440    6.8259 C   0  0  2  0  0  0  0  0  0  0  0  0
   -0.9015    4.0959    7.5131 C   0  0  0  0  0  0  0  0  0  0  0  0
    0.4174    3.3406    7.2576 C   0  0  1  0  0  0  0  0  0  0  0  0
    0.3132    1.9165    7.8495 C   0  0  0  0  0  0  0  0  0  0  0  0
   -0.8515    1.1784    7.1639 C   0  0  1  0  0  0  0  0  0  0  0  0
   -2.1812    1.9154    7.4030 C   0  0  0  0  0  0  0  0  0  0  0  0
   -0.5907    1.0989    5.6656 C   0  0  0  0  0  0  0  0  0  0  0  0
    0.6777    3.2656    5.7302 C   0  0  0  0  0  0  0  0  0  0  0  0
    0.2281    1.0206    0.7760 H   0  0  0  0  0  0  0  0  0  0  0  0
    0.2159    2.7381    1.2250 H   0  0  0  0  0  0  0  0  0  0  0  0
   -0.1323    3.3544    3.1233 H   0  0  0  0  0  0  0  0  0  0  0  0
   -1.7467    4.2921    4.8969 H   0  0  0  0  0  0  0  0  0  0  0  0
   -2.6364    2.7920    4.7997 H   0  0  0  0  0  0  0  0  0  0  0  0
   -2.9882    3.8789    7.0156 H   0  0  0  0  0  0  0  0  0  0  0  0
   -0.8293    5.1126    7.1219 H   0  0  0  0  0  0  0  0  0  0  0  0
   -1.0930    4.1868    8.5843 H   0  0  0  0  0  0  0  0  0  0  0  0
    1.2374    3.8686    7.7459 H   0  0  0  0  0  0  0  0  0  0  0  0
    1.2423    1.3760    7.6714 H   0  0  0  0  0  0  0  0  0  0  0  0
    0.1614    1.9462    8.9280 H   0  0  0  0  0  0  0  0  0  0  0  0
   -0.9150    0.1622    7.5611 H   0  0  0  0  0  0  0  0  0  0  0  0
   -2.4224    1.9410    8.4654 H   0  0  0  0  0  0  0  0  0  0  0  0
   -2.9882    1.3862    6.9004 H   0  0  0  0  0  0  0  0  0  0  0  0
   -1.4117    0.5369    5.2101 H   0  0  0  0  0  0  0  0  0  0  0  0
    0.3337    0.5374    5.5171 H   0  0  0  0  0  0  0  0  0  0  0  0
    1.6338    2.7708    5.5461 H   0  0  0  0  0  0  0  0  0  0  0  0
    0.7858    4.2808    5.3361 H   0  0  0  0  0  0  0  0  0  0  0  0
  1  2  1  0
  1 15  1  0
  1 16  1  0
  2  3  2  0
  2  4  1  0
  5  4  1  6
  4 17  1  0
  5 13  1  0
  5 14  1  0
  5  6  1  0
  6  7  1  0
  6 18  1  0
  6 19  1  0
  7 12  1  0
  7  8  1  0
  7 20  1  6
  8  9  1  0
  8 21  1  0
  8 22  1  0
  9 10  1  0
  9 14  1  0
  9 23  1  1
 10 11  1  0
 10 24  1  0
 10 25  1  0
 11 12  1  0
 11 13  1  0
 11 26  1  1
 12 27  1  0
 12 28  1  0
 13 29  1  0
 13 30  1  0
 14 31  1  0
 14 32  1  0
M  END
>  <i_m_ct_stereo_status>  (433) 
1

>  <s_m_source_file>  (433) 
/var/tmp/pbs.5076255.sched01/tmpgahbdy6u/1388ql836nh.sdf

>  <i_m_source_file_index>  (433) 
40

>  <i_lp_mmshare_version>  (433) 
48012

>  <i_f3d_flags>  (433) 
0

>  <s_epik_input>  (433) 
W05IMl1DKD1PKVtOSF1DMTJbQ0gyXVtDQEhdM1tDSDJdW0NAQEhdKFtDSDJdMilbQ0gyXVtDQEhdKFtDSDJdMylbQ0gyXTE=

>  <s_epik_cmdline>  (433) 
J2VwaWtfcHl0aG9uJywgJy1waHQnLCAnMi4wJywgJy1waCcsICc3LjAnLCAnLXRuJywgJzgnLCAnLW1hJywgJzIwMCcsICctaW1hZScsICc8aW5maWxlLm1hZT4nLCAnLW9tYWUnLCAnPG91dGZpbGUubWFlPic=

>  <r_lp_tautomer_probability>  (433) 
1

>  <r_epik_Ionization_Penalty>  (433) 
6.96699e-05

>  <r_epik_Ionization_Penalty_Charging>  (433) 
0

>  <r_epik_Ionization_Penalty_Neutral>  (433) 
6.96699e-05

>  <r_epik_State_Penalty>  (433) 
-0

>  <r_epik_Charging_Adjusted_Penalty>  (433) 
0

>  <i_epik_Tot_Q>  (433) 
0

>  <i_epik_Tot_abs_Q>  (433) 
0

>  <s_lp_Force_Field>  (433) 
OPLS3e

>  <r_lp_Energy>  (433) 
-10.554

>  <b_lp_Chiralities_Consistent>  (433) 
1

>  <s_lp_Variant>  (433) 
109:0-1

>  <s_i_glide_gridfile>  (433) 
pfpi4k_grid

>  <i_i_glide_lignum>  (433) 
40

>  <i_i_glide_rotatable_bonds>  (433) 
2

>  <r_i_docking_score>  (433) 
-3.81177

>  <r_i_glide_ligand_efficiency>  (433) 
-0.272269

>  <r_i_glide_ligand_efficiency_sa>  (433) 
-0.656207

>  <r_i_glide_ligand_efficiency_ln>  (433) 
-1.04746

>  <r_i_glide_gscore>  (433) 
-3.81177

>  <r_i_glide_lipo>  (433) 
-0.076245

>  <r_i_glide_hbond>  (433) 
-0.237112

>  <r_i_glide_metal>  (433) 
-0

>  <r_i_glide_rewards>  (433) 
-2.0845

>  <r_i_glide_evdw>  (433) 
-12.8533

>  <r_i_glide_ecoul>  (433) 
-3.91526

>  <r_i_glide_erotb>  (433) 
0

>  <r_i_glide_esite>  (433) 
-0.183952

>  <r_i_glide_emodel>  (433) 
-18.6072

>  <r_i_glide_energy>  (433) 
-16.7686

>  <r_i_glide_einternal>  (433) 
6.58462

>  <r_i_glide_intrahb_reward>  (433) 
-0

>  <i_i_glide_confnum>  (433) 
2

>  <i_i_glide_posenum>  (433) 
24

>  <r_i_glide_eff_state_penalty>  (433) 
0

>  <ligand_id>  (433) 
109

>  <original_smiles>  (433) 
NC(=O)NC12CC3CC(CC(C3)C1)C2

>  <smiles>  (433) 
[H]N([H])C(=O)N([H])C12C([H])([H])C3([H])C([H])([H])C([H])(C([H])([H])C([H])(C3([H])[H])C1([H])[H])C2([H])[H]

$$$$
109:0:1
     RDKit          3D

 32 34  0  0  1  0  0  0  0  0999 V2000
    0.1653    1.7293    1.5667 N   0  0  0  0  0  0  0  0  0  0  0  0
   -0.0894    1.4404    2.8277 C   0  0  0  0  0  0  0  0  0  0  0  0
   -0.1977    0.2821    3.2228 O   0  0  0  0  0  0  0  0  0  0  0  0
   -0.2057    2.5380    3.5910 N   0  0  0  0  0  0  0  0  0  0  0  0
   -0.4528    2.5820    5.0352 C   0  0  1  0  0  0  0  0  0  0  0  0
    0.7153    1.9215    5.8147 C   0  0  0  0  0  0  0  0  0  0  0  0
    0.4450    2.0039    7.3287 C   0  0  2  0  0  0  0  0  0  0  0  0
   -0.8725    1.2695    7.6537 C   0  0  0  0  0  0  0  0  0  0  0  0
   -2.0400    1.9522    6.9075 C   0  0  1  0  0  0  0  0  0  0  0  0
   -2.1420    3.4275    7.3425 C   0  0  0  0  0  0  0  0  0  0  0  0
   -0.8226    4.1476    6.9953 C   0  0  1  0  0  0  0  0  0  0  0  0
    0.3464    3.4852    7.7506 C   0  0  0  0  0  0  0  0  0  0  0  0
   -0.5647    4.0666    5.4750 C   0  0  0  0  0  0  0  0  0  0  0  0
   -1.7875    1.8754    5.3929 C   0  0  0  0  0  0  0  0  0  0  0  0
    0.1954    0.9913    0.8720 H   0  0  0  0  0  0  0  0  0  0  0  0
    0.2175    2.7148    1.2654 H   0  0  0  0  0  0  0  0  0  0  0  0
   -0.1043    3.4216    3.1149 H   0  0  0  0  0  0  0  0  0  0  0  0
    0.8383    0.8746    5.5342 H   0  0  0  0  0  0  0  0  0  0  0  0
    1.6596    2.4161    5.5744 H   0  0  0  0  0  0  0  0  0  0  0  0
    1.2655    1.5291    7.8670 H   0  0  0  0  0  0  0  0  0  0  0  0
   -0.7935    0.2297    7.3427 H   0  0  0  0  0  0  0  0  0  0  0  0
   -1.0516    1.2658    8.7283 H   0  0  0  0  0  0  0  0  0  0  0  0
   -2.9752    1.4448    7.1435 H   0  0  0  0  0  0  0  0  0  0  0  0
   -2.9804    3.9050    6.8336 H   0  0  0  0  0  0  0  0  0  0  0  0
   -2.3456    3.4980    8.4139 H   0  0  0  0  0  0  0  0  0  0  0  0
   -0.8928    5.1946    7.2983 H   0  0  0  0  0  0  0  0  0  0  0  0
    0.2025    3.5661    8.8292 H   0  0  0  0  0  0  0  0  0  0  0  0
    1.2819    4.0002    7.5220 H   0  0  0  0  0  0  0  0  0  0  0  0
    0.3525    4.6059    5.2232 H   0  0  0  0  0  0  0  0  0  0  0  0
   -1.3718    4.5624    4.9341 H   0  0  0  0  0  0  0  0  0  0  0  0
   -2.6064    2.3402    4.8466 H   0  0  0  0  0  0  0  0  0  0  0  0
   -1.7834    0.8242    5.1020 H   0  0  0  0  0  0  0  0  0  0  0  0
  1  2  1  0
  1 15  1  0
  1 16  1  0
  2  3  2  0
  2  4  1  0
  5  4  1  6
  4 17  1  0
  5 13  1  0
  5 14  1  0
  5  6  1  0
  6  7  1  0
  6 18  1  0
  6 19  1  0
  7 12  1  0
  7  8  1  0
  7 20  1  1
  8  9  1  0
  8 21  1  0
  8 22  1  0
  9 10  1  0
  9 14  1  0
  9 23  1  6
 10 11  1  0
 10 24  1  0
 10 25  1  0
 11 12  1  0
 11 13  1  0
 11 26  1  1
 12 27  1  0
 12 28  1  0
 13 29  1  0
 13 30  1  0
 14 31  1  0
 14 32  1  0
M  END
>  <i_m_ct_stereo_status>  (434) 
1

>  <s_m_source_file>  (434) 
/var/tmp/pbs.5076255.sched01/tmpgahbdy6u/1388ql836nh.sdf

>  <i_m_source_file_index>  (434) 
40

>  <i_lp_mmshare_version>  (434) 
48012

>  <i_f3d_flags>  (434) 
0

>  <s_epik_input>  (434) 
W05IMl1DKD1PKVtOSF1DMTJbQ0gyXVtDQEhdM1tDSDJdW0NAQEhdKFtDSDJdMilbQ0gyXVtDQEhdKFtDSDJdMylbQ0gyXTE=

>  <s_epik_cmdline>  (434) 
J2VwaWtfcHl0aG9uJywgJy1waHQnLCAnMi4wJywgJy1waCcsICc3LjAnLCAnLXRuJywgJzgnLCAnLW1hJywgJzIwMCcsICctaW1hZScsICc8aW5maWxlLm1hZT4nLCAnLW9tYWUnLCAnPG91dGZpbGUubWFlPic=

>  <r_lp_tautomer_probability>  (434) 
1

>  <r_epik_Ionization_Penalty>  (434) 
6.96699e-05

>  <r_epik_Ionization_Penalty_Charging>  (434) 
0

>  <r_epik_Ionization_Penalty_Neutral>  (434) 
6.96699e-05

>  <r_epik_State_Penalty>  (434) 
-0

>  <r_epik_Charging_Adjusted_Penalty>  (434) 
0

>  <i_epik_Tot_Q>  (434) 
0

>  <i_epik_Tot_abs_Q>  (434) 
0

>  <s_lp_Force_Field>  (434) 
OPLS3e

>  <r_lp_Energy>  (434) 
-10.554

>  <b_lp_Chiralities_Consistent>  (434) 
1

>  <s_lp_Variant>  (434) 
109:0-1

>  <s_i_glide_gridfile>  (434) 
pfpi4k_grid

>  <i_i_glide_lignum>  (434) 
40

>  <i_i_glide_rotatable_bonds>  (434) 
2

>  <r_i_docking_score>  (434) 
-3.80945

>  <r_i_glide_ligand_efficiency>  (434) 
-0.272103

>  <r_i_glide_ligand_efficiency_sa>  (434) 
-0.655808

>  <r_i_glide_ligand_efficiency_ln>  (434) 
-1.04682

>  <r_i_glide_gscore>  (434) 
-3.80945

>  <r_i_glide_lipo>  (434) 
-0.0781722

>  <r_i_glide_hbond>  (434) 
-0.223659

>  <r_i_glide_metal>  (434) 
-0

>  <r_i_glide_rewards>  (434) 
-2.0845

>  <r_i_glide_evdw>  (434) 
-13.0286

>  <r_i_glide_ecoul>  (434) 
-3.92062

>  <r_i_glide_erotb>  (434) 
0

>  <r_i_glide_esite>  (434) 
-0.183593

>  <r_i_glide_emodel>  (434) 
-22.7156

>  <r_i_glide_energy>  (434) 
-16.9492

>  <r_i_glide_einternal>  (434) 
0.0691922

>  <r_i_glide_intrahb_reward>  (434) 
-0

>  <i_i_glide_confnum>  (434) 
2

>  <i_i_glide_posenum>  (434) 
13

>  <r_i_glide_eff_state_penalty>  (434) 
0

>  <ligand_id>  (434) 
109

>  <original_smiles>  (434) 
NC(=O)NC12CC3CC(CC(C3)C1)C2

>  <smiles>  (434) 
[H]N([H])C(=O)N([H])C12C([H])([H])C3([H])C([H])([H])C([H])(C([H])([H])C([H])(C3([H])[H])C1([H])[H])C2([H])[H]

$$$$
109:0:2
     RDKit          3D

 32 34  0  0  1  0  0  0  0  0999 V2000
    1.4450    0.5374    1.2809 N   0  0  0  0  0  0  0  0  0  0  0  0
    0.6238    0.9435    2.2329 C   0  0  0  0  0  0  0  0  0  0  0  0
   -0.5372    0.5503    2.3107 O   0  0  0  0  0  0  0  0  0  0  0  0
    1.2122    1.7833    3.0862 N   0  0  0  0  0  0  0  0  0  0  0  0
    0.5949    2.4056    4.2616 C   0  0  1  0  0  0  0  0  0  0  0  0
    0.1834    1.3292    5.3060 C   0  0  0  0  0  0  0  0  0  0  0  0
   -0.4248    2.0093    6.5448 C   0  0  2  0  0  0  0  0  0  0  0  0
   -1.6673    2.8226    6.1215 C   0  0  0  0  0  0  0  0  0  0  0  0
   -1.2440    3.9165    5.1182 C   0  0  1  0  0  0  0  0  0  0  0  0
   -0.1995    4.8487    5.7648 C   0  0  0  0  0  0  0  0  0  0  0  0
    1.0371    4.0195    6.1664 C   0  0  1  0  0  0  0  0  0  0  0  0
    0.6272    2.9368    7.1854 C   0  0  0  0  0  0  0  0  0  0  0  0
    1.6406    3.3473    4.9132 C   0  0  0  0  0  0  0  0  0  0  0  0
   -0.6437    3.2586    3.8660 C   0  0  0  0  0  0  0  0  0  0  0  0
    1.0627   -0.0691    0.5438 H   0  0  0  0  0  0  0  0  0  0  0  0
    2.3955    0.8637    1.2243 H   0  0  0  0  0  0  0  0  0  0  0  0
    2.1734    2.0389    2.9007 H   0  0  0  0  0  0  0  0  0  0  0  0
   -0.5506    0.6338    4.8991 H   0  0  0  0  0  0  0  0  0  0  0  0
    1.0486    0.7296    5.5943 H   0  0  0  0  0  0  0  0  0  0  0  0
   -0.7185    1.2473    7.2657 H   0  0  0  0  0  0  0  0  0  0  0  0
   -2.3999    2.1631    5.6562 H   0  0  0  0  0  0  0  0  0  0  0  0
   -2.1474    3.2662    6.9917 H   0  0  0  0  0  0  0  0  0  0  0  0
   -2.1191    4.4929    4.8229 H   0  0  0  0  0  0  0  0  0  0  0  0
    0.0891    5.6337    5.0653 H   0  0  0  0  0  0  0  0  0  0  0  0
   -0.6195    5.3431    6.6391 H   0  0  0  0  0  0  0  0  0  0  0  0
    1.7775    4.6793    6.6214 H   0  0  0  0  0  0  0  0  0  0  0  0
    0.2343    3.3972    8.0902 H   0  0  0  0  0  0  0  0  0  0  0  0
    1.5019    2.3574    7.4811 H   0  0  0  0  0  0  0  0  0  0  0  0
    2.5402    2.7924    5.1893 H   0  0  0  0  0  0  0  0  0  0  0  0
    1.9602    4.1127    4.2023 H   0  0  0  0  0  0  0  0  0  0  0  0
   -0.3602    4.0177    3.1348 H   0  0  0  0  0  0  0  0  0  0  0  0
   -1.4230    2.6603    3.3943 H   0  0  0  0  0  0  0  0  0  0  0  0
  1  2  1  0
  1 15  1  0
  1 16  1  0
  2  3  2  0
  2  4  1  0
  5  4  1  6
  4 17  1  0
  5 13  1  0
  5 14  1  0
  5  6  1  0
  6  7  1  0
  6 18  1  0
  6 19  1  0
  7 12  1  0
  7  8  1  0
  7 20  1  1
  8  9  1  0
  8 21  1  0
  8 22  1  0
  9 10  1  0
  9 14  1  0
  9 23  1  6
 10 11  1  0
 10 24  1  0
 10 25  1  0
 11 12  1  0
 11 13  1  0
 11 26  1  1
 12 27  1  0
 12 28  1  0
 13 29  1  0
 13 30  1  0
 14 31  1  0
 14 32  1  0
M  END
>  <i_m_ct_stereo_status>  (435) 
1

>  <s_m_source_file>  (435) 
/var/tmp/pbs.5076255.sched01/tmpgahbdy6u/1388ql836nh.sdf

>  <i_m_source_file_index>  (435) 
40

>  <i_lp_mmshare_version>  (435) 
48012

>  <i_f3d_flags>  (435) 
0

>  <s_epik_input>  (435) 
W05IMl1DKD1PKVtOSF1DMTJbQ0gyXVtDQEhdM1tDSDJdW0NAQEhdKFtDSDJdMilbQ0gyXVtDQEhdKFtDSDJdMylbQ0gyXTE=

>  <s_epik_cmdline>  (435) 
J2VwaWtfcHl0aG9uJywgJy1waHQnLCAnMi4wJywgJy1waCcsICc3LjAnLCAnLXRuJywgJzgnLCAnLW1hJywgJzIwMCcsICctaW1hZScsICc8aW5maWxlLm1hZT4nLCAnLW9tYWUnLCAnPG91dGZpbGUubWFlPic=

>  <r_lp_tautomer_probability>  (435) 
1

>  <r_epik_Ionization_Penalty>  (435) 
6.96699e-05

>  <r_epik_Ionization_Penalty_Charging>  (435) 
0

>  <r_epik_Ionization_Penalty_Neutral>  (435) 
6.96699e-05

>  <r_epik_State_Penalty>  (435) 
-0

>  <r_epik_Charging_Adjusted_Penalty>  (435) 
0

>  <i_epik_Tot_Q>  (435) 
0

>  <i_epik_Tot_abs_Q>  (435) 
0

>  <s_lp_Force_Field>  (435) 
OPLS3e

>  <r_lp_Energy>  (435) 
-10.554

>  <b_lp_Chiralities_Consistent>  (435) 
1

>  <s_lp_Variant>  (435) 
109:0-1

>  <s_i_glide_gridfile>  (435) 
pfpi4k_grid

>  <i_i_glide_lignum>  (435) 
40

>  <i_i_glide_rotatable_bonds>  (435) 
2

>  <r_i_docking_score>  (435) 
-3.47712

>  <r_i_glide_ligand_efficiency>  (435) 
-0.248366

>  <r_i_glide_ligand_efficiency_sa>  (435) 
-0.598597

>  <r_i_glide_ligand_efficiency_ln>  (435) 
-0.9555

>  <r_i_glide_gscore>  (435) 
-3.47712

>  <r_i_glide_lipo>  (435) 
-0.0471748

>  <r_i_glide_hbond>  (435) 
-0.16266

>  <r_i_glide_metal>  (435) 
-0

>  <r_i_glide_rewards>  (435) 
-2.0845

>  <r_i_glide_evdw>  (435) 
-12.0344

>  <r_i_glide_ecoul>  (435) 
-2.74715

>  <r_i_glide_erotb>  (435) 
0

>  <r_i_glide_esite>  (435) 
-0.168993

>  <r_i_glide_emodel>  (435) 
-19.8944

>  <r_i_glide_energy>  (435) 
-14.7816

>  <r_i_glide_einternal>  (435) 
0.355223

>  <r_i_glide_intrahb_reward>  (435) 
-0

>  <i_i_glide_confnum>  (435) 
1

>  <i_i_glide_posenum>  (435) 
19

>  <r_i_glide_eff_state_penalty>  (435) 
0

>  <ligand_id>  (435) 
109

>  <original_smiles>  (435) 
NC(=O)NC12CC3CC(CC(C3)C1)C2

>  <smiles>  (435) 
[H]N([H])C(=O)N([H])C12C([H])([H])C3([H])C([H])([H])C([H])(C([H])([H])C([H])(C3([H])[H])C1([H])[H])C2([H])[H]

$$$$
110:0:0
     RDKit          3D

 46 50  0  0  1  0  0  0  0  0999 V2000
    7.0399   -4.3629    0.8089 C   0  0  0  0  0  0  0  0  0  0  0  0
    5.5439   -4.7991    0.8161 C   0  0  2  0  0  0  0  0  0  0  0  0
    4.9384   -4.4870   -0.5938 C   0  0  0  0  0  0  0  0  0  0  0  0
    4.8337   -3.0217   -0.8416 C   0  0  0  0  0  0  0  0  0  0  0  0
    4.8582   -2.4162   -2.0034 N   0  0  0  0  0  0  0  0  0  0  0  0
    4.7182   -1.0533   -1.6918 O   0  0  0  0  0  0  0  0  0  0  0  0
    4.6292   -0.8757   -0.2974 N   0  0  0  0  0  0  0  0  0  0  0  0
    4.6981   -2.0859    0.1989 C   0  0  0  0  0  0  0  0  0  0  0  0
    4.6718   -2.4477    1.6450 C   0  0  0  0  0  0  0  0  0  0  0  0
    4.8201   -3.9540    1.8929 C   0  0  0  0  0  0  0  0  0  0  0  0
    4.3655   -4.4903    3.0413 C   0  0  0  0  0  0  0  0  0  0  0  0
    4.5592   -5.9320    3.4545 C   0  0  0  0  0  0  0  0  0  0  0  0
    5.6714   -6.6335    2.6528 C   0  0  2  0  0  0  0  0  0  0  0  0
    5.5090   -6.3420    1.1376 C   0  0  1  0  0  0  0  0  0  0  0  0
    4.3174   -7.1597    0.5753 C   0  0  0  0  0  0  0  0  0  0  0  0
    4.5078   -8.6820    0.7498 C   0  0  0  0  0  0  0  0  0  0  0  0
    4.8287   -9.1201    2.1868 C   0  0  1  0  0  0  0  0  0  0  0  0
    3.5172   -9.5177    2.8734 C   0  0  0  0  0  0  0  0  0  0  0  0
    5.9770  -10.1525    2.3434 C   0  0  1  0  0  0  0  0  0  0  0  0
    6.2278  -11.0492    1.2781 O   0  0  0  0  0  0  0  0  0  0  0  0
    6.9324   -8.9700    2.4818 C   0  0  0  0  0  0  0  0  0  0  0  0
    5.7382   -8.1343    2.9609 C   0  0  1  0  0  0  0  0  0  0  0  0
    7.6258   -4.9227    0.0782 H   0  0  0  0  0  0  0  0  0  0  0  0
    7.5131   -4.5179    1.7775 H   0  0  0  0  0  0  0  0  0  0  0  0
    7.1681   -3.3076    0.5710 H   0  0  0  0  0  0  0  0  0  0  0  0
    5.4747   -4.9831   -1.3977 H   0  0  0  0  0  0  0  0  0  0  0  0
    3.9187   -4.8666   -0.6442 H   0  0  0  0  0  0  0  0  0  0  0  0
    5.5123   -1.9586    2.1431 H   0  0  0  0  0  0  0  0  0  0  0  0
    3.7648   -2.0746    2.1235 H   0  0  0  0  0  0  0  0  0  0  0  0
    3.8406   -3.8689    3.7504 H   0  0  0  0  0  0  0  0  0  0  0  0
    4.8265   -5.9418    4.5136 H   0  0  0  0  0  0  0  0  0  0  0  0
    3.6067   -6.4535    3.3664 H   0  0  0  0  0  0  0  0  0  0  0  0
    6.6142   -6.1915    2.9717 H   0  0  0  0  0  0  0  0  0  0  0  0
    6.3833   -6.7583    0.6408 H   0  0  0  0  0  0  0  0  0  0  0  0
    3.3799   -6.8490    1.0397 H   0  0  0  0  0  0  0  0  0  0  0  0
    4.2190   -6.9962   -0.4935 H   0  0  0  0  0  0  0  0  0  0  0  0
    3.6537   -9.2318    0.3513 H   0  0  0  0  0  0  0  0  0  0  0  0
    5.3374   -8.9517    0.0989 H   0  0  0  0  0  0  0  0  0  0  0  0
    3.6878   -9.8060    3.9150 H   0  0  0  0  0  0  0  0  0  0  0  0
    3.0519  -10.3754    2.3840 H   0  0  0  0  0  0  0  0  0  0  0  0
    2.7956   -8.7019    2.8768 H   0  0  0  0  0  0  0  0  0  0  0  0
    5.8965  -10.7033    3.2800 H   0  0  0  0  0  0  0  0  0  0  0  0
    5.3716  -11.4358    1.0275 H   0  0  0  0  0  0  0  0  0  0  0  0
    7.7147   -9.1018    3.2316 H   0  0  0  0  0  0  0  0  0  0  0  0
    7.3413   -8.6488    1.5238 H   0  0  0  0  0  0  0  0  0  0  0  0
    5.6288   -8.3263    4.0335 H   0  0  0  0  0  0  0  0  0  0  0  0
  2  1  1  6
  1 23  1  0
  1 24  1  0
  1 25  1  0
  2 10  1  0
  2 14  1  0
  2  3  1  0
  3  4  1  0
  3 26  1  0
  3 27  1  0
  4  8  1  0
  4  5  2  0
  5  6  1  0
  6  7  1  0
  7  8  2  0
  8  9  1  0
  9 10  1  0
  9 28  1  0
  9 29  1  0
 10 11  2  0
 11 12  1  0
 11 30  1  0
 12 13  1  0
 12 31  1  0
 12 32  1  0
 13 22  1  0
 13 14  1  0
 13 33  1  1
 14 15  1  0
 14 34  1  6
 15 16  1  0
 15 35  1  0
 15 36  1  0
 16 17  1  0
 16 37  1  0
 16 38  1  0
 17 22  1  0
 17 18  1  1
 17 19  1  0
 18 39  1  0
 18 40  1  0
 18 41  1  0
 19 20  1  0
 19 21  1  0
 19 42  1  1
 20 43  1  0
 21 22  1  0
 21 44  1  0
 21 45  1  0
 22 46  1  1
M  END
>  <i_m_ct_stereo_status>  (436) 
1

>  <s_m_source_file>  (436) 
/var/tmp/pbs.5076255.sched01/tmpgahbdy6u/1388ql836nh.sdf

>  <i_m_source_file_index>  (436) 
41

>  <i_lp_mmshare_version>  (436) 
48012

>  <i_f3d_flags>  (436) 
0

>  <s_epik_input>  (436) 
bjFvbmMoW0NIMl0yKWMxW0NIMl1DKFtDQF0yM1tDSDNdKT1bQ0hdW0NIMl1bQ0BASF00W0NASF0zW0NIMl1bQ0gyXVtDQF01KFtDSDNdKVtDQEhdNFtDSDJdW0NAQEhdNVtPSF0=

>  <s_epik_cmdline>  (436) 
J2VwaWtfcHl0aG9uJywgJy1waHQnLCAnMi4wJywgJy1waCcsICc3LjAnLCAnLXRuJywgJzgnLCAnLW1hJywgJzIwMCcsICctaW1hZScsICc8aW5maWxlLm1hZT4nLCAnLW9tYWUnLCAnPG91dGZpbGUubWFlPic=

>  <r_lp_tautomer_probability>  (436) 
1

>  <r_epik_Ionization_Penalty>  (436) 
2.75073e-06

>  <r_epik_Ionization_Penalty_Charging>  (436) 
0

>  <r_epik_Ionization_Penalty_Neutral>  (436) 
2.75073e-06

>  <r_epik_State_Penalty>  (436) 
-0

>  <r_epik_Charging_Adjusted_Penalty>  (436) 
0

>  <i_epik_Tot_Q>  (436) 
0

>  <i_epik_Tot_abs_Q>  (436) 
0

>  <s_lp_Force_Field>  (436) 
OPLS3e

>  <r_lp_Energy>  (436) 
29.6025

>  <b_lp_Chiralities_Consistent>  (436) 
1

>  <s_lp_Variant>  (436) 
110:0-1

>  <s_i_glide_gridfile>  (436) 
pfpi4k_grid

>  <i_i_glide_lignum>  (436) 
41

>  <i_i_glide_rotatable_bonds>  (436) 
1

>  <r_i_docking_score>  (436) 
-4.1919

>  <r_i_glide_ligand_efficiency>  (436) 
-0.190541

>  <r_i_glide_ligand_efficiency_sa>  (436) 
-0.533903

>  <r_i_glide_ligand_efficiency_ln>  (436) 
-1.02465

>  <r_i_glide_gscore>  (436) 
-4.1919

>  <r_i_glide_lipo>  (436) 
-0.626925

>  <r_i_glide_hbond>  (436) 
-0.16

>  <r_i_glide_metal>  (436) 
-0

>  <r_i_glide_rewards>  (436) 
-1.36094

>  <r_i_glide_evdw>  (436) 
-19.1593

>  <r_i_glide_ecoul>  (436) 
-6.80682

>  <r_i_glide_erotb>  (436) 
0

>  <r_i_glide_esite>  (436) 
-0.0650457

>  <r_i_glide_emodel>  (436) 
-32.4616

>  <r_i_glide_energy>  (436) 
-25.9661

>  <r_i_glide_einternal>  (436) 
1.71494

>  <r_i_glide_intrahb_reward>  (436) 
-0

>  <i_i_glide_confnum>  (436) 
2

>  <i_i_glide_posenum>  (436) 
40

>  <r_i_glide_eff_state_penalty>  (436) 
0

>  <ligand_id>  (436) 
110

>  <original_smiles>  (436) 
CC12Cc3nonc3CC1=CCC1C2CCC2(C)C(O)CC12

>  <smiles>  (436) 
[H]OC1([H])C([H])([H])C2([H])C3([H])C([H])([H])C([H])=C4C([H])([H])c5nonc5C([H])([H])C4(C([H])([H])[H])C3([H])C([H])([H])C([H])([H])C12C([H])([H])[H]

$$$$
110:0:1
     RDKit          3D

 46 50  0  0  1  0  0  0  0  0999 V2000
    5.5548   -3.7199   -1.7679 C   0  0  0  0  0  0  0  0  0  0  0  0
    4.2778   -3.3053   -0.9907 C   0  0  2  0  0  0  0  0  0  0  0  0
    3.1446   -3.0633   -2.0371 C   0  0  0  0  0  0  0  0  0  0  0  0
    3.4125   -1.8783   -2.8825 C   0  0  0  0  0  0  0  0  0  0  0  0
    3.0171   -1.6946   -4.1133 N   0  0  0  0  0  0  0  0  0  0  0  0
    3.4751   -0.4101   -4.4431 O   0  0  0  0  0  0  0  0  0  0  0  0
    4.1909    0.1324   -3.3678 N   0  0  0  0  0  0  0  0  0  0  0  0
    4.1598   -0.7855   -2.4368 C   0  0  0  0  0  0  0  0  0  0  0  0
    4.8166   -0.7324   -1.1014 C   0  0  0  0  0  0  0  0  0  0  0  0
    4.5886   -1.9825   -0.2555 C   0  0  0  0  0  0  0  0  0  0  0  0
    4.7014   -1.9097    1.0795 C   0  0  0  0  0  0  0  0  0  0  0  0
    4.6092   -3.0880    2.0182 C   0  0  0  0  0  0  0  0  0  0  0  0
    4.7914   -4.4348    1.2888 C   0  0  2  0  0  0  0  0  0  0  0  0
    3.9275   -4.4802    0.0006 C   0  0  1  0  0  0  0  0  0  0  0  0
    2.4362   -4.6592    0.3901 C   0  0  0  0  0  0  0  0  0  0  0  0
    2.1791   -5.9598    1.1764 C   0  0  0  0  0  0  0  0  0  0  0  0
    3.0794   -6.1390    2.4107 C   0  0  1  0  0  0  0  0  0  0  0  0
    2.3223   -5.6177    3.6361 C   0  0  0  0  0  0  0  0  0  0  0  0
    3.7131   -7.5386    2.5950 C   0  0  1  0  0  0  0  0  0  0  0  0
    3.0151   -8.6433    2.0680 O   0  0  0  0  0  0  0  0  0  0  0  0
    4.9053   -7.0412    1.7866 C   0  0  0  0  0  0  0  0  0  0  0  0
    4.5251   -5.6232    2.2232 C   0  0  1  0  0  0  0  0  0  0  0  0
    5.3899   -4.6498   -2.3179 H   0  0  0  0  0  0  0  0  0  0  0  0
    6.4082   -3.8632   -1.1040 H   0  0  0  0  0  0  0  0  0  0  0  0
    5.8724   -2.9801   -2.5029 H   0  0  0  0  0  0  0  0  0  0  0  0
    2.9672   -3.9090   -2.6868 H   0  0  0  0  0  0  0  0  0  0  0  0
    2.2074   -2.8605   -1.5228 H   0  0  0  0  0  0  0  0  0  0  0  0
    5.8889   -0.6577   -1.2531 H   0  0  0  0  0  0  0  0  0  0  0  0
    4.5022    0.1408   -0.5345 H   0  0  0  0  0  0  0  0  0  0  0  0
    4.8848   -0.9530    1.5450 H   0  0  0  0  0  0  0  0  0  0  0  0
    5.3944   -2.9773    2.7673 H   0  0  0  0  0  0  0  0  0  0  0  0
    3.6570   -3.0381    2.5476 H   0  0  0  0  0  0  0  0  0  0  0  0
    5.8355   -4.4851    0.9855 H   0  0  0  0  0  0  0  0  0  0  0  0
    4.1828   -5.4012   -0.5261 H   0  0  0  0  0  0  0  0  0  0  0  0
    2.0983   -3.7959    0.9642 H   0  0  0  0  0  0  0  0  0  0  0  0
    1.8172   -4.7199   -0.5037 H   0  0  0  0  0  0  0  0  0  0  0  0
    1.1235   -6.0582    1.4317 H   0  0  0  0  0  0  0  0  0  0  0  0
    2.3732   -6.7691    0.4765 H   0  0  0  0  0  0  0  0  0  0  0  0
    2.9334   -5.6919    4.5399 H   0  0  0  0  0  0  0  0  0  0  0  0
    1.4148   -6.1958    3.8254 H   0  0  0  0  0  0  0  0  0  0  0  0
    2.0337   -4.5721    3.5230 H   0  0  0  0  0  0  0  0  0  0  0  0
    3.9940   -7.7303    3.6343 H   0  0  0  0  0  0  0  0  0  0  0  0
    2.1520   -8.6375    2.4523 H   0  0  0  0  0  0  0  0  0  0  0  0
    5.8734   -7.3784    2.1544 H   0  0  0  0  0  0  0  0  0  0  0  0
    4.7913   -7.2253    0.7183 H   0  0  0  0  0  0  0  0  0  0  0  0
    4.9722   -5.4630    3.2073 H   0  0  0  0  0  0  0  0  0  0  0  0
  2  1  1  6
  1 23  1  0
  1 24  1  0
  1 25  1  0
  2 10  1  0
  2 14  1  0
  2  3  1  0
  3  4  1  0
  3 26  1  0
  3 27  1  0
  4  8  1  0
  4  5  2  0
  5  6  1  0
  6  7  1  0
  7  8  2  0
  8  9  1  0
  9 10  1  0
  9 28  1  0
  9 29  1  0
 10 11  2  0
 11 12  1  0
 11 30  1  0
 12 13  1  0
 12 31  1  0
 12 32  1  0
 13 22  1  0
 13 14  1  0
 13 33  1  6
 14 15  1  0
 14 34  1  6
 15 16  1  0
 15 35  1  0
 15 36  1  0
 16 17  1  0
 16 37  1  0
 16 38  1  0
 17 22  1  0
 17 18  1  1
 17 19  1  0
 18 39  1  0
 18 40  1  0
 18 41  1  0
 19 20  1  0
 19 21  1  0
 19 42  1  1
 20 43  1  0
 21 22  1  0
 21 44  1  0
 21 45  1  0
 22 46  1  1
M  END
>  <i_m_ct_stereo_status>  (437) 
1

>  <s_m_source_file>  (437) 
/var/tmp/pbs.5076255.sched01/tmpgahbdy6u/1388ql836nh.sdf

>  <i_m_source_file_index>  (437) 
41

>  <i_lp_mmshare_version>  (437) 
48012

>  <i_f3d_flags>  (437) 
0

>  <s_epik_input>  (437) 
bjFvbmMoW0NIMl0yKWMxW0NIMl1DKFtDQF0yM1tDSDNdKT1bQ0hdW0NIMl1bQ0BASF00W0NASF0zW0NIMl1bQ0gyXVtDQF01KFtDSDNdKVtDQEhdNFtDSDJdW0NAQEhdNVtPSF0=

>  <s_epik_cmdline>  (437) 
J2VwaWtfcHl0aG9uJywgJy1waHQnLCAnMi4wJywgJy1waCcsICc3LjAnLCAnLXRuJywgJzgnLCAnLW1hJywgJzIwMCcsICctaW1hZScsICc8aW5maWxlLm1hZT4nLCAnLW9tYWUnLCAnPG91dGZpbGUubWFlPic=

>  <r_lp_tautomer_probability>  (437) 
1

>  <r_epik_Ionization_Penalty>  (437) 
2.75073e-06

>  <r_epik_Ionization_Penalty_Charging>  (437) 
0

>  <r_epik_Ionization_Penalty_Neutral>  (437) 
2.75073e-06

>  <r_epik_State_Penalty>  (437) 
-0

>  <r_epik_Charging_Adjusted_Penalty>  (437) 
0

>  <i_epik_Tot_Q>  (437) 
0

>  <i_epik_Tot_abs_Q>  (437) 
0

>  <s_lp_Force_Field>  (437) 
OPLS3e

>  <r_lp_Energy>  (437) 
29.6025

>  <b_lp_Chiralities_Consistent>  (437) 
1

>  <s_lp_Variant>  (437) 
110:0-1

>  <s_i_glide_gridfile>  (437) 
pfpi4k_grid

>  <i_i_glide_lignum>  (437) 
41

>  <i_i_glide_rotatable_bonds>  (437) 
1

>  <r_i_docking_score>  (437) 
-2.91792

>  <r_i_glide_ligand_efficiency>  (437) 
-0.132633

>  <r_i_glide_ligand_efficiency_sa>  (437) 
-0.371642

>  <r_i_glide_ligand_efficiency_ln>  (437) 
-0.713247

>  <r_i_glide_gscore>  (437) 
-2.91792

>  <r_i_glide_lipo>  (437) 
-0.243431

>  <r_i_glide_hbond>  (437) 
0

>  <r_i_glide_metal>  (437) 
-0

>  <r_i_glide_rewards>  (437) 
-1.36094

>  <r_i_glide_evdw>  (437) 
-21.9675

>  <r_i_glide_ecoul>  (437) 
-1.4345

>  <r_i_glide_erotb>  (437) 
0

>  <r_i_glide_esite>  (437) 
0

>  <r_i_glide_emodel>  (437) 
-27.6236

>  <r_i_glide_energy>  (437) 
-23.402

>  <r_i_glide_einternal>  (437) 
1.67776

>  <r_i_glide_intrahb_reward>  (437) 
-0

>  <i_i_glide_confnum>  (437) 
2

>  <i_i_glide_posenum>  (437) 
1

>  <r_i_glide_eff_state_penalty>  (437) 
0

>  <ligand_id>  (437) 
110

>  <original_smiles>  (437) 
CC12Cc3nonc3CC1=CCC1C2CCC2(C)C(O)CC12

>  <smiles>  (437) 
[H]OC1([H])C([H])([H])C2([H])C3([H])C([H])([H])C([H])=C4C([H])([H])c5nonc5C([H])([H])C4(C([H])([H])[H])C3([H])C([H])([H])C([H])([H])C12C([H])([H])[H]

$$$$
110:0:2
     RDKit          3D

 46 50  0  0  1  0  0  0  0  0999 V2000
    5.4740   -3.7691   -1.5848 C   0  0  0  0  0  0  0  0  0  0  0  0
    4.1840   -3.3569   -0.8242 C   0  0  2  0  0  0  0  0  0  0  0  0
    3.0700   -3.0756   -1.8842 C   0  0  0  0  0  0  0  0  0  0  0  0
    3.3745   -1.8725   -2.6921 C   0  0  0  0  0  0  0  0  0  0  0  0
    2.9892   -1.6491   -3.9229 N   0  0  0  0  0  0  0  0  0  0  0  0
    3.4888   -0.3706   -4.2238 O   0  0  0  0  0  0  0  0  0  0  0  0
    4.2100    0.1236   -3.1268 N   0  0  0  0  0  0  0  0  0  0  0  0
    4.1430   -0.8132   -2.2183 C   0  0  0  0  0  0  0  0  0  0  0  0
    4.7693   -0.7839   -0.8622 C   0  0  0  0  0  0  0  0  0  0  0  0
    4.4991   -2.0542   -0.0494 C   0  0  0  0  0  0  0  0  0  0  0  0
    4.5855   -2.0176    1.2917 C   0  0  0  0  0  0  0  0  0  0  0  0
    4.4638   -3.2247    2.1959 C   0  0  0  0  0  0  0  0  0  0  0  0
    4.6401   -4.5525    1.4336 C   0  0  2  0  0  0  0  0  0  0  0  0
    3.7992   -4.5515    0.1326 C   0  0  1  0  0  0  0  0  0  0  0  0
    2.2995   -4.7231    0.4890 C   0  0  0  0  0  0  0  0  0  0  0  0
    2.0151   -6.0458    1.2291 C   0  0  0  0  0  0  0  0  0  0  0  0
    2.8889   -6.2720    2.4805 C   0  0  1  0  0  0  0  0  0  0  0  0
    2.1173   -5.7696    3.7054 C   0  0  0  0  0  0  0  0  0  0  0  0
    3.5148   -7.6815    2.6422 C   0  0  1  0  0  0  0  0  0  0  0  0
    2.8117   -8.7776    2.1024 O   0  0  0  0  0  0  0  0  0  0  0  0
    4.7205   -7.1754    1.8626 C   0  0  0  0  0  0  0  0  0  0  0  0
    4.3412   -5.7643    2.3315 C   0  0  1  0  0  0  0  0  0  0  0  0
    5.3190   -4.6791   -2.1649 H   0  0  0  0  0  0  0  0  0  0  0  0
    6.3109   -3.9431   -0.9056 H   0  0  0  0  0  0  0  0  0  0  0  0
    5.8121   -3.0144   -2.2963 H   0  0  0  0  0  0  0  0  0  0  0  0
    2.8955   -3.9042   -2.5538 H   0  0  0  0  0  0  0  0  0  0  0  0
    2.1285   -2.8755   -1.3814 H   0  0  0  0  0  0  0  0  0  0  0  0
    5.8457   -0.7110   -0.9846 H   0  0  0  0  0  0  0  0  0  0  0  0
    4.4530    0.0950   -0.3020 H   0  0  0  0  0  0  0  0  0  0  0  0
    4.7764   -1.0756    1.7878 H   0  0  0  0  0  0  0  0  0  0  0  0
    5.2377   -3.1436    2.9596 H   0  0  0  0  0  0  0  0  0  0  0  0
    3.5044   -3.1749    2.7122 H   0  0  0  0  0  0  0  0  0  0  0  0
    5.6887   -4.6090    1.1475 H   0  0  0  0  0  0  0  0  0  0  0  0
    4.0500   -5.4603   -0.4136 H   0  0  0  0  0  0  0  0  0  0  0  0
    1.9587   -3.8782    1.0863 H   0  0  0  0  0  0  0  0  0  0  0  0
    1.6956   -4.7517   -0.4183 H   0  0  0  0  0  0  0  0  0  0  0  0
    0.9527   -6.1413    1.4648 H   0  0  0  0  0  0  0  0  0  0  0  0
    2.2079   -6.8363    0.5084 H   0  0  0  0  0  0  0  0  0  0  0  0
    2.7107   -5.8741    4.6147 H   0  0  0  0  0  0  0  0  0  0  0  0
    1.1991   -6.3393    3.8649 H   0  0  0  0  0  0  0  0  0  0  0  0
    1.8455   -4.7167    3.6142 H   0  0  0  0  0  0  0  0  0  0  0  0
    3.7782   -7.8859    3.6831 H   0  0  0  0  0  0  0  0  0  0  0  0
    3.3244   -9.5576    2.2656 H   0  0  0  0  0  0  0  0  0  0  0  0
    5.6801   -7.5319    2.2373 H   0  0  0  0  0  0  0  0  0  0  0  0
    4.6183   -7.3288    0.7868 H   0  0  0  0  0  0  0  0  0  0  0  0
    4.7716   -5.6364    3.3261 H   0  0  0  0  0  0  0  0  0  0  0  0
  2  1  1  6
  1 23  1  0
  1 24  1  0
  1 25  1  0
  2 10  1  0
  2 14  1  0
  2  3  1  0
  3  4  1  0
  3 26  1  0
  3 27  1  0
  4  8  1  0
  4  5  2  0
  5  6  1  0
  6  7  1  0
  7  8  2  0
  8  9  1  0
  9 10  1  0
  9 28  1  0
  9 29  1  0
 10 11  2  0
 11 12  1  0
 11 30  1  0
 12 13  1  0
 12 31  1  0
 12 32  1  0
 13 22  1  0
 13 14  1  0
 13 33  1  6
 14 15  1  0
 14 34  1  6
 15 16  1  0
 15 35  1  0
 15 36  1  0
 16 17  1  0
 16 37  1  0
 16 38  1  0
 17 22  1  0
 17 18  1  1
 17 19  1  0
 18 39  1  0
 18 40  1  0
 18 41  1  0
 19 20  1  0
 19 21  1  0
 19 42  1  1
 20 43  1  0
 21 22  1  0
 21 44  1  0
 21 45  1  0
 22 46  1  1
M  END
>  <i_m_ct_stereo_status>  (438) 
1

>  <s_m_source_file>  (438) 
/var/tmp/pbs.5076255.sched01/tmpgahbdy6u/1388ql836nh.sdf

>  <i_m_source_file_index>  (438) 
41

>  <i_lp_mmshare_version>  (438) 
48012

>  <i_f3d_flags>  (438) 
0

>  <s_epik_input>  (438) 
bjFvbmMoW0NIMl0yKWMxW0NIMl1DKFtDQF0yM1tDSDNdKT1bQ0hdW0NIMl1bQ0BASF00W0NASF0zW0NIMl1bQ0gyXVtDQF01KFtDSDNdKVtDQEhdNFtDSDJdW0NAQEhdNVtPSF0=

>  <s_epik_cmdline>  (438) 
J2VwaWtfcHl0aG9uJywgJy1waHQnLCAnMi4wJywgJy1waCcsICc3LjAnLCAnLXRuJywgJzgnLCAnLW1hJywgJzIwMCcsICctaW1hZScsICc8aW5maWxlLm1hZT4nLCAnLW9tYWUnLCAnPG91dGZpbGUubWFlPic=

>  <r_lp_tautomer_probability>  (438) 
1

>  <r_epik_Ionization_Penalty>  (438) 
2.75073e-06

>  <r_epik_Ionization_Penalty_Charging>  (438) 
0

>  <r_epik_Ionization_Penalty_Neutral>  (438) 
2.75073e-06

>  <r_epik_State_Penalty>  (438) 
-0

>  <r_epik_Charging_Adjusted_Penalty>  (438) 
0

>  <i_epik_Tot_Q>  (438) 
0

>  <i_epik_Tot_abs_Q>  (438) 
0

>  <s_lp_Force_Field>  (438) 
OPLS3e

>  <r_lp_Energy>  (438) 
29.6025

>  <b_lp_Chiralities_Consistent>  (438) 
1

>  <s_lp_Variant>  (438) 
110:0-1

>  <s_i_glide_gridfile>  (438) 
pfpi4k_grid

>  <i_i_glide_lignum>  (438) 
41

>  <i_i_glide_rotatable_bonds>  (438) 
1

>  <r_i_docking_score>  (438) 
-2.87072

>  <r_i_glide_ligand_efficiency>  (438) 
-0.130487

>  <r_i_glide_ligand_efficiency_sa>  (438) 
-0.36563

>  <r_i_glide_ligand_efficiency_ln>  (438) 
-0.701708

>  <r_i_glide_gscore>  (438) 
-2.87072

>  <r_i_glide_lipo>  (438) 
-0.180408

>  <r_i_glide_hbond>  (438) 
0

>  <r_i_glide_metal>  (438) 
-0

>  <r_i_glide_rewards>  (438) 
-1.36094

>  <r_i_glide_evdw>  (438) 
-22.4689

>  <r_i_glide_ecoul>  (438) 
-1.37283

>  <r_i_glide_erotb>  (438) 
0

>  <r_i_glide_esite>  (438) 
0

>  <r_i_glide_emodel>  (438) 
-28.1657

>  <r_i_glide_energy>  (438) 
-23.8417

>  <r_i_glide_einternal>  (438) 
1.30953

>  <r_i_glide_intrahb_reward>  (438) 
-0

>  <i_i_glide_confnum>  (438) 
2

>  <i_i_glide_posenum>  (438) 
10

>  <r_i_glide_eff_state_penalty>  (438) 
0

>  <ligand_id>  (438) 
110

>  <original_smiles>  (438) 
CC12Cc3nonc3CC1=CCC1C2CCC2(C)C(O)CC12

>  <smiles>  (438) 
[H]OC1([H])C([H])([H])C2([H])C3([H])C([H])([H])C([H])=C4C([H])([H])c5nonc5C([H])([H])C4(C([H])([H])[H])C3([H])C([H])([H])C([H])([H])C12C([H])([H])[H]

$$$$
111:0:0
     RDKit          3D

 40 43  0  0  1  0  0  0  0  0999 V2000
    4.6215   -7.7750    4.5771 C   0  0  0  0  0  0  0  0  0  0  0  0
    4.2864   -9.0573    3.9318 N   0  0  0  0  0  0  0  0  0  0  0  0
    3.6128  -10.0811    4.5395 C   0  0  0  0  0  0  0  0  0  0  0  0
    3.4937  -11.0899    3.6167 C   0  0  0  0  0  0  0  0  0  0  0  0
    4.1116  -10.6456    2.4798 N   0  0  0  0  0  0  0  0  0  0  0  0
    4.5980   -9.4019    2.6666 C   0  0  0  0  0  0  0  0  0  0  0  0
    5.3177   -8.5807    1.6399 C   0  0  2  0  0  0  0  0  0  0  0  0
    6.6628   -7.9995    2.0965 C   0  0  0  0  0  0  0  0  0  0  0  0
    6.4819   -6.4899    1.9310 C   0  0  0  0  0  0  0  0  0  0  0  0
    5.5118   -6.3791    0.8441 N   0  0  0  0  0  0  0  0  0  0  0  0
    4.9397   -5.0374    0.7324 C   0  0  0  0  0  0  0  0  0  0  0  0
    5.8459   -4.0307    0.0747 C   0  0  0  0  0  0  0  0  0  0  0  0
    7.0696   -3.7034    0.4922 N   0  0  0  0  0  0  0  0  0  0  0  0
    7.4979   -2.7779   -0.4432 N   0  0  0  0  0  0  0  0  0  0  0  0
    6.5826   -2.5449   -1.3335 N   0  0  0  0  0  0  0  0  0  0  0  0
    5.5108   -3.3242   -1.0164 N   0  0  0  0  0  0  0  0  0  0  0  0
    4.2738   -3.3123   -1.8001 C   0  0  0  0  0  0  0  0  0  0  0  0
    4.4628   -3.3541   -3.3012 C   0  0  0  0  0  0  0  0  0  0  0  0
    4.0052   -2.0747   -2.6361 C   0  0  0  0  0  0  0  0  0  0  0  0
    4.4951   -7.3771    1.1542 C   0  0  0  0  0  0  0  0  0  0  0  0
    4.0600   -7.6848    5.5061 H   0  0  0  0  0  0  0  0  0  0  0  0
    4.3396   -6.9330    3.9457 H   0  0  0  0  0  0  0  0  0  0  0  0
    5.6882   -7.7348    4.8107 H   0  0  0  0  0  0  0  0  0  0  0  0
    3.2713  -10.0342    5.5672 H   0  0  0  0  0  0  0  0  0  0  0  0
    3.0258  -12.0624    3.7107 H   0  0  0  0  0  0  0  0  0  0  0  0
    5.5049   -9.2540    0.8037 H   0  0  0  0  0  0  0  0  0  0  0  0
    6.9598   -8.2779    3.1085 H   0  0  0  0  0  0  0  0  0  0  0  0
    7.4735   -8.3506    1.4538 H   0  0  0  0  0  0  0  0  0  0  0  0
    6.0779   -6.0465    2.8417 H   0  0  0  0  0  0  0  0  0  0  0  0
    7.4257   -5.9935    1.7157 H   0  0  0  0  0  0  0  0  0  0  0  0
    4.0097   -5.1220    0.1648 H   0  0  0  0  0  0  0  0  0  0  0  0
    4.6574   -4.6428    1.7074 H   0  0  0  0  0  0  0  0  0  0  0  0
    3.4248   -3.8218   -1.3460 H   0  0  0  0  0  0  0  0  0  0  0  0
    5.4662   -3.3692   -3.7196 H   0  0  0  0  0  0  0  0  0  0  0  0
    3.7240   -3.9212   -3.8633 H   0  0  0  0  0  0  0  0  0  0  0  0
    2.9601   -1.7976   -2.7592 H   0  0  0  0  0  0  0  0  0  0  0  0
    4.6963   -1.2350   -2.6330 H   0  0  0  0  0  0  0  0  0  0  0  0
    3.8716   -7.6215    0.2929 H   0  0  0  0  0  0  0  0  0  0  0  0
    3.8177   -7.0020    1.9240 H   0  0  0  0  0  0  0  0  0  0  0  0
    4.1801  -11.1832    1.5890 H   0  0  0  0  0  0  0  0  0  0  0  0
  1  2  1  0
  1 21  1  0
  1 22  1  0
  1 23  1  0
  2  6  1  0
  2  3  1  0
  3  4  2  0
  3 24  1  0
  4  5  1  0
  4 25  1  0
  5  6  2  0
  5 40  1  0
  6  7  1  0
  7 20  1  0
  7  8  1  0
  7 26  1  6
  8  9  1  0
  8 27  1  0
  8 28  1  0
  9 10  1  0
  9 29  1  0
  9 30  1  0
 10 11  1  0
 10 20  1  0
 11 12  1  0
 11 31  1  0
 11 32  1  0
 12 16  1  0
 12 13  2  0
 13 14  1  0
 14 15  2  0
 15 16  1  0
 16 17  1  0
 17 19  1  0
 17 18  1  0
 17 33  1  0
 18 19  1  0
 18 34  1  0
 18 35  1  0
 19 36  1  0
 19 37  1  0
 20 38  1  0
 20 39  1  0
M  CHG  1   5   1
M  END
>  <i_m_ct_stereo_status>  (439) 
1

>  <s_m_source_file>  (439) 
/var/tmp/pbs.5076255.sched01/tmpgahbdy6u/1388ql836nh.sdf

>  <i_m_source_file_index>  (439) 
42

>  <i_lp_mmshare_version>  (439) 
48012

>  <i_f3d_flags>  (439) 
0

>  <s_epik_input>  (439) 
W0NIM11uMVtjSF1bY0hdbmMxW0NAQEhdMltDSDJdW0NIMl1OKFtDSDJdMilbQ0gyXWMzbm5ubjNbQ0hdNFtDSDJdW0NIMl00

>  <s_epik_cmdline>  (439) 
J2VwaWtfcHl0aG9uJywgJy1waHQnLCAnMi4wJywgJy1waCcsICc3LjAnLCAnLXRuJywgJzgnLCAnLW1hJywgJzIwMCcsICctaW1hZScsICc8aW5maWxlLm1hZT4nLCAnLW9tYWUnLCAnPG91dGZpbGUubWFlPic=

>  <r_lp_tautomer_probability>  (439) 
1

>  <r_epik_Ionization_Penalty>  (439) 
0.116823

>  <r_epik_Ionization_Penalty_Charging>  (439) 
0

>  <r_epik_Ionization_Penalty_Neutral>  (439) 
0.116823

>  <r_epik_State_Penalty>  (439) 
0.229692

>  <r_epik_Charging_Adjusted_Penalty>  (439) 
0.229692

>  <i_epik_Tot_Q>  (439) 
1

>  <i_epik_Tot_abs_Q>  (439) 
1

>  <s_lp_Force_Field>  (439) 
OPLS3e

>  <r_lp_Energy>  (439) 
14.9115

>  <b_lp_Chiralities_Consistent>  (439) 
1

>  <s_lp_Variant>  (439) 
111:0-1

>  <s_i_glide_gridfile>  (439) 
pfpi4k_grid

>  <i_i_glide_lignum>  (439) 
42

>  <i_i_glide_rotatable_bonds>  (439) 
4

>  <r_i_docking_score>  (439) 
-4.05106

>  <r_i_glide_ligand_efficiency>  (439) 
-0.202553

>  <r_i_glide_ligand_efficiency_sa>  (439) 
-0.549813

>  <r_i_glide_ligand_efficiency_ln>  (439) 
-1.01385

>  <r_i_glide_gscore>  (439) 
-4.05106

>  <r_i_glide_lipo>  (439) 
-0.502764

>  <r_i_glide_hbond>  (439) 
-0.2

>  <r_i_glide_metal>  (439) 
-0

>  <r_i_glide_rewards>  (439) 
-1.74557

>  <r_i_glide_evdw>  (439) 
-21.0385

>  <r_i_glide_ecoul>  (439) 
-8.93778

>  <r_i_glide_erotb>  (439) 
0.95424

>  <r_i_glide_esite>  (439) 
-0.164373

>  <r_i_glide_emodel>  (439) 
-39.1851

>  <r_i_glide_energy>  (439) 
-29.9762

>  <r_i_glide_einternal>  (439) 
2.13616

>  <r_i_glide_intrahb_reward>  (439) 
-0

>  <i_i_glide_confnum>  (439) 
4

>  <i_i_glide_posenum>  (439) 
29

>  <r_i_glide_eff_state_penalty>  (439) 
0

>  <ligand_id>  (439) 
111

>  <original_smiles>  (439) 
Cn1ccnc1C1CCN(Cc2nnnn2C2CC2)C1

>  <smiles>  (439) 
[H]c1c([H])[n+]([H])c(C2([H])C([H])([H])N(C([H])([H])c3nnnn3C3([H])C([H])([H])C3([H])[H])C([H])([H])C2([H])[H])n1C([H])([H])[H]

$$$$
111:0:1
     RDKit          3D

 40 43  0  0  1  0  0  0  0  0999 V2000
    2.6752   -3.0106   -2.9195 C   0  0  0  0  0  0  0  0  0  0  0  0
    3.8268   -3.2666   -2.0488 N   0  0  0  0  0  0  0  0  0  0  0  0
    5.1457   -3.0941   -2.3961 C   0  0  0  0  0  0  0  0  0  0  0  0
    5.8898   -3.4469   -1.3024 C   0  0  0  0  0  0  0  0  0  0  0  0
    4.9990   -3.8332   -0.3401 N   0  0  0  0  0  0  0  0  0  0  0  0
    3.7440   -3.7130   -0.7793 C   0  0  0  0  0  0  0  0  0  0  0  0
    2.5259   -4.0674    0.0227 C   0  0  2  0  0  0  0  0  0  0  0  0
    2.6604   -3.8950    1.5414 C   0  0  0  0  0  0  0  0  0  0  0  0
    2.3026   -5.2712    2.1137 C   0  0  0  0  0  0  0  0  0  0  0  0
    1.4172   -5.8587    1.1131 N   0  0  0  0  0  0  0  0  0  0  0  0
    1.2356   -7.3015    1.3050 C   0  0  0  0  0  0  0  0  0  0  0  0
    0.2434   -7.6501    2.3752 C   0  0  0  0  0  0  0  0  0  0  0  0
   -0.9396   -7.0675    2.5210 N   0  0  0  0  0  0  0  0  0  0  0  0
   -1.4868   -7.7045    3.6152 N   0  0  0  0  0  0  0  0  0  0  0  0
   -0.6707   -8.5990    4.0904 N   0  0  0  0  0  0  0  0  0  0  0  0
    0.4339   -8.5984    3.3022 N   0  0  0  0  0  0  0  0  0  0  0  0
    1.5827   -9.4453    3.5822 C   0  0  0  0  0  0  0  0  0  0  0  0
    1.4854  -10.8383    3.0044 C   0  0  0  0  0  0  0  0  0  0  0  0
    1.3820  -10.6423    4.4986 C   0  0  0  0  0  0  0  0  0  0  0  0
    2.0732   -5.5245   -0.1449 C   0  0  0  0  0  0  0  0  0  0  0  0
    3.0172   -2.4568   -3.7966 H   0  0  0  0  0  0  0  0  0  0  0  0
    1.9334   -2.4129   -2.3873 H   0  0  0  0  0  0  0  0  0  0  0  0
    2.2354   -3.9568   -3.2403 H   0  0  0  0  0  0  0  0  0  0  0  0
    5.4574   -2.7495   -3.3742 H   0  0  0  0  0  0  0  0  0  0  0  0
    6.9588   -3.4572   -1.1418 H   0  0  0  0  0  0  0  0  0  0  0  0
    1.7603   -3.3845   -0.3334 H   0  0  0  0  0  0  0  0  0  0  0  0
    3.6494   -3.5772    1.8762 H   0  0  0  0  0  0  0  0  0  0  0  0
    1.9548   -3.1386    1.8910 H   0  0  0  0  0  0  0  0  0  0  0  0
    3.2160   -5.8657    2.1939 H   0  0  0  0  0  0  0  0  0  0  0  0
    1.8495   -5.2077    3.1042 H   0  0  0  0  0  0  0  0  0  0  0  0
    0.8517   -7.7456    0.3880 H   0  0  0  0  0  0  0  0  0  0  0  0
    2.1930   -7.7834    1.5200 H   0  0  0  0  0  0  0  0  0  0  0  0
    2.5275   -8.9054    3.5849 H   0  0  0  0  0  0  0  0  0  0  0  0
    0.5734  -11.1350    2.4899 H   0  0  0  0  0  0  0  0  0  0  0  0
    2.4022  -11.2833    2.6179 H   0  0  0  0  0  0  0  0  0  0  0  0
    2.2324  -10.9634    5.0987 H   0  0  0  0  0  0  0  0  0  0  0  0
    0.4132  -10.8362    4.9570 H   0  0  0  0  0  0  0  0  0  0  0  0
    1.3938   -5.6410   -0.9895 H   0  0  0  0  0  0  0  0  0  0  0  0
    2.9345   -6.1806   -0.2964 H   0  0  0  0  0  0  0  0  0  0  0  0
    5.2389   -4.1619    0.5865 H   0  0  0  0  0  0  0  0  0  0  0  0
  1  2  1  0
  1 21  1  0
  1 22  1  0
  1 23  1  0
  2  6  1  0
  2  3  1  0
  3  4  2  0
  3 24  1  0
  4  5  1  0
  4 25  1  0
  5  6  2  0
  5 40  1  0
  6  7  1  0
  7 20  1  0
  7  8  1  0
  7 26  1  6
  8  9  1  0
  8 27  1  0
  8 28  1  0
  9 10  1  0
  9 29  1  0
  9 30  1  0
 10 11  1  0
 10 20  1  0
 11 12  1  0
 11 31  1  0
 11 32  1  0
 12 16  1  0
 12 13  2  0
 13 14  1  0
 14 15  2  0
 15 16  1  0
 16 17  1  0
 17 19  1  0
 17 18  1  0
 17 33  1  0
 18 19  1  0
 18 34  1  0
 18 35  1  0
 19 36  1  0
 19 37  1  0
 20 38  1  0
 20 39  1  0
M  CHG  1   5   1
M  END
>  <i_m_ct_stereo_status>  (440) 
1

>  <s_m_source_file>  (440) 
/var/tmp/pbs.5076255.sched01/tmpgahbdy6u/1388ql836nh.sdf

>  <i_m_source_file_index>  (440) 
42

>  <i_lp_mmshare_version>  (440) 
48012

>  <i_f3d_flags>  (440) 
0

>  <s_epik_input>  (440) 
W0NIM11uMVtjSF1bY0hdbmMxW0NAQEhdMltDSDJdW0NIMl1OKFtDSDJdMilbQ0gyXWMzbm5ubjNbQ0hdNFtDSDJdW0NIMl00

>  <s_epik_cmdline>  (440) 
J2VwaWtfcHl0aG9uJywgJy1waHQnLCAnMi4wJywgJy1waCcsICc3LjAnLCAnLXRuJywgJzgnLCAnLW1hJywgJzIwMCcsICctaW1hZScsICc8aW5maWxlLm1hZT4nLCAnLW9tYWUnLCAnPG91dGZpbGUubWFlPic=

>  <r_lp_tautomer_probability>  (440) 
1

>  <r_epik_Ionization_Penalty>  (440) 
0.116823

>  <r_epik_Ionization_Penalty_Charging>  (440) 
0

>  <r_epik_Ionization_Penalty_Neutral>  (440) 
0.116823

>  <r_epik_State_Penalty>  (440) 
0.229692

>  <r_epik_Charging_Adjusted_Penalty>  (440) 
0.229692

>  <i_epik_Tot_Q>  (440) 
1

>  <i_epik_Tot_abs_Q>  (440) 
1

>  <s_lp_Force_Field>  (440) 
OPLS3e

>  <r_lp_Energy>  (440) 
14.9115

>  <b_lp_Chiralities_Consistent>  (440) 
1

>  <s_lp_Variant>  (440) 
111:0-1

>  <s_i_glide_gridfile>  (440) 
pfpi4k_grid

>  <i_i_glide_lignum>  (440) 
42

>  <i_i_glide_rotatable_bonds>  (440) 
4

>  <r_i_docking_score>  (440) 
-4.01591

>  <r_i_glide_ligand_efficiency>  (440) 
-0.200796

>  <r_i_glide_ligand_efficiency_sa>  (440) 
-0.545043

>  <r_i_glide_ligand_efficiency_ln>  (440) 
-1.00505

>  <r_i_glide_gscore>  (440) 
-4.01591

>  <r_i_glide_lipo>  (440) 
-0.476976

>  <r_i_glide_hbond>  (440) 
-0.148557

>  <r_i_glide_metal>  (440) 
-0

>  <r_i_glide_rewards>  (440) 
-1.53856

>  <r_i_glide_evdw>  (440) 
-24.993

>  <r_i_glide_ecoul>  (440) 
-8.02501

>  <r_i_glide_erotb>  (440) 
0.95424

>  <r_i_glide_esite>  (440) 
-0.352659

>  <r_i_glide_emodel>  (440) 
-42.0802

>  <r_i_glide_energy>  (440) 
-33.018

>  <r_i_glide_einternal>  (440) 
1.84174

>  <r_i_glide_intrahb_reward>  (440) 
-0

>  <i_i_glide_confnum>  (440) 
3

>  <i_i_glide_posenum>  (440) 
7

>  <r_i_glide_eff_state_penalty>  (440) 
0

>  <ligand_id>  (440) 
111

>  <original_smiles>  (440) 
Cn1ccnc1C1CCN(Cc2nnnn2C2CC2)C1

>  <smiles>  (440) 
[H]c1c([H])[n+]([H])c(C2([H])C([H])([H])N(C([H])([H])c3nnnn3C3([H])C([H])([H])C3([H])[H])C([H])([H])C2([H])[H])n1C([H])([H])[H]

$$$$
111:0:2
     RDKit          3D

 40 43  0  0  1  0  0  0  0  0999 V2000
    1.1339    0.5033    5.5112 C   0  0  0  0  0  0  0  0  0  0  0  0
    0.4820    0.7107    4.2145 N   0  0  0  0  0  0  0  0  0  0  0  0
   -0.7210    1.3446    4.0168 C   0  0  0  0  0  0  0  0  0  0  0  0
   -0.9507    1.3422    2.6663 C   0  0  0  0  0  0  0  0  0  0  0  0
    0.1132    0.6978    2.0924 N   0  0  0  0  0  0  0  0  0  0  0  0
    0.9872    0.3079    3.0300 C   0  0  0  0  0  0  0  0  0  0  0  0
    2.2842   -0.3997    2.7522 C   0  0  2  0  0  0  0  0  0  0  0  0
    3.2499    0.4112    1.8929 C   0  0  0  0  0  0  0  0  0  0  0  0
    3.5342   -0.4933    0.7003 C   0  0  0  0  0  0  0  0  0  0  0  0
    3.3519   -1.8404    1.2236 N   0  0  0  0  0  0  0  0  0  0  0  0
    3.2187   -2.8269    0.1468 C   0  0  0  0  0  0  0  0  0  0  0  0
    4.3979   -2.8858   -0.7892 C   0  0  0  0  0  0  0  0  0  0  0  0
    5.6519   -3.1116   -0.4172 N   0  0  0  0  0  0  0  0  0  0  0  0
    6.3657   -3.0368   -1.5960 N   0  0  0  0  0  0  0  0  0  0  0  0
    5.5813   -2.7968   -2.6033 N   0  0  0  0  0  0  0  0  0  0  0  0
    4.3162   -2.6931   -2.1155 N   0  0  0  0  0  0  0  0  0  0  0  0
    3.1709   -2.4003   -2.9780 C   0  0  0  0  0  0  0  0  0  0  0  0
    3.1459   -3.1413   -4.2949 C   0  0  0  0  0  0  0  0  0  0  0  0
    3.4417   -1.6595   -4.2730 C   0  0  0  0  0  0  0  0  0  0  0  0
    2.1193   -1.7263    1.9981 C   0  0  0  0  0  0  0  0  0  0  0  0
    0.6264    1.1095    6.2651 H   0  0  0  0  0  0  0  0  0  0  0  0
    2.1787    0.8164    5.4557 H   0  0  0  0  0  0  0  0  0  0  0  0
    1.0656   -0.5520    5.7847 H   0  0  0  0  0  0  0  0  0  0  0  0
   -1.3150    1.7533    4.8268 H   0  0  0  0  0  0  0  0  0  0  0  0
   -1.7730    1.7391    2.0877 H   0  0  0  0  0  0  0  0  0  0  0  0
    2.7566   -0.6032    3.7111 H   0  0  0  0  0  0  0  0  0  0  0  0
    2.8503    1.3766    1.5755 H   0  0  0  0  0  0  0  0  0  0  0  0
    4.1691    0.5930    2.4496 H   0  0  0  0  0  0  0  0  0  0  0  0
    2.7993   -0.3032   -0.0793 H   0  0  0  0  0  0  0  0  0  0  0  0
    4.5339   -0.3380    0.2927 H   0  0  0  0  0  0  0  0  0  0  0  0
    3.1080   -3.8148    0.5929 H   0  0  0  0  0  0  0  0  0  0  0  0
    2.3056   -2.6529   -0.4204 H   0  0  0  0  0  0  0  0  0  0  0  0
    2.2413   -2.2042   -2.4505 H   0  0  0  0  0  0  0  0  0  0  0  0
    3.9653   -3.8095   -4.5526 H   0  0  0  0  0  0  0  0  0  0  0  0
    2.1654   -3.4575   -4.6458 H   0  0  0  0  0  0  0  0  0  0  0  0
    2.6538   -0.9942   -4.6268 H   0  0  0  0  0  0  0  0  0  0  0  0
    4.4514   -1.3439   -4.5317 H   0  0  0  0  0  0  0  0  0  0  0  0
    1.9707   -2.5741    2.6687 H   0  0  0  0  0  0  0  0  0  0  0  0
    1.2631   -1.6748    1.3222 H   0  0  0  0  0  0  0  0  0  0  0  0
    0.2259    0.5427    1.0927 H   0  0  0  0  0  0  0  0  0  0  0  0
  1  2  1  0
  1 21  1  0
  1 22  1  0
  1 23  1  0
  2  6  1  0
  2  3  1  0
  3  4  2  0
  3 24  1  0
  4  5  1  0
  4 25  1  0
  5  6  2  0
  5 40  1  0
  6  7  1  0
  7 20  1  0
  7  8  1  0
  7 26  1  1
  8  9  1  0
  8 27  1  0
  8 28  1  0
  9 10  1  0
  9 29  1  0
  9 30  1  0
 10 11  1  0
 10 20  1  0
 11 12  1  0
 11 31  1  0
 11 32  1  0
 12 16  1  0
 12 13  2  0
 13 14  1  0
 14 15  2  0
 15 16  1  0
 16 17  1  0
 17 19  1  0
 17 18  1  0
 17 33  1  0
 18 19  1  0
 18 34  1  0
 18 35  1  0
 19 36  1  0
 19 37  1  0
 20 38  1  0
 20 39  1  0
M  CHG  1   5   1
M  END
>  <i_m_ct_stereo_status>  (441) 
1

>  <s_m_source_file>  (441) 
/var/tmp/pbs.5076255.sched01/tmpgahbdy6u/1388ql836nh.sdf

>  <i_m_source_file_index>  (441) 
42

>  <i_lp_mmshare_version>  (441) 
48012

>  <i_f3d_flags>  (441) 
0

>  <s_epik_input>  (441) 
W0NIM11uMVtjSF1bY0hdbmMxW0NAQEhdMltDSDJdW0NIMl1OKFtDSDJdMilbQ0gyXWMzbm5ubjNbQ0hdNFtDSDJdW0NIMl00

>  <s_epik_cmdline>  (441) 
J2VwaWtfcHl0aG9uJywgJy1waHQnLCAnMi4wJywgJy1waCcsICc3LjAnLCAnLXRuJywgJzgnLCAnLW1hJywgJzIwMCcsICctaW1hZScsICc8aW5maWxlLm1hZT4nLCAnLW9tYWUnLCAnPG91dGZpbGUubWFlPic=

>  <r_lp_tautomer_probability>  (441) 
1

>  <r_epik_Ionization_Penalty>  (441) 
0.116823

>  <r_epik_Ionization_Penalty_Charging>  (441) 
0

>  <r_epik_Ionization_Penalty_Neutral>  (441) 
0.116823

>  <r_epik_State_Penalty>  (441) 
0.229692

>  <r_epik_Charging_Adjusted_Penalty>  (441) 
0.229692

>  <i_epik_Tot_Q>  (441) 
1

>  <i_epik_Tot_abs_Q>  (441) 
1

>  <s_lp_Force_Field>  (441) 
OPLS3e

>  <r_lp_Energy>  (441) 
14.9115

>  <b_lp_Chiralities_Consistent>  (441) 
1

>  <s_lp_Variant>  (441) 
111:0-1

>  <s_i_glide_gridfile>  (441) 
pfpi4k_grid

>  <i_i_glide_lignum>  (441) 
42

>  <i_i_glide_rotatable_bonds>  (441) 
4

>  <r_i_docking_score>  (441) 
-2.98871

>  <r_i_glide_ligand_efficiency>  (441) 
-0.149435

>  <r_i_glide_ligand_efficiency_sa>  (441) 
-0.40563

>  <r_i_glide_ligand_efficiency_ln>  (441) 
-0.747975

>  <r_i_glide_gscore>  (441) 
-2.98871

>  <r_i_glide_lipo>  (441) 
-0.0980782

>  <r_i_glide_hbond>  (441) 
-0.0522325

>  <r_i_glide_metal>  (441) 
-0

>  <r_i_glide_rewards>  (441) 
-1.53856

>  <r_i_glide_evdw>  (441) 
-25.918

>  <r_i_glide_ecoul>  (441) 
-5.659

>  <r_i_glide_erotb>  (441) 
0.95424

>  <r_i_glide_esite>  (441) 
-0.109327

>  <r_i_glide_emodel>  (441) 
-38.7367

>  <r_i_glide_energy>  (441) 
-31.577

>  <r_i_glide_einternal>  (441) 
1.0206

>  <r_i_glide_intrahb_reward>  (441) 
-0

>  <i_i_glide_confnum>  (441) 
3

>  <i_i_glide_posenum>  (441) 
13

>  <r_i_glide_eff_state_penalty>  (441) 
0

>  <ligand_id>  (441) 
111

>  <original_smiles>  (441) 
Cn1ccnc1C1CCN(Cc2nnnn2C2CC2)C1

>  <smiles>  (441) 
[H]c1c([H])[n+]([H])c(C2([H])C([H])([H])N(C([H])([H])c3nnnn3C3([H])C([H])([H])C3([H])[H])C([H])([H])C2([H])[H])n1C([H])([H])[H]

$$$$
111:1:0
     RDKit          3D

 39 42  0  0  1  0  0  0  0  0999 V2000
    3.0872   -1.6174   -1.7353 C   0  0  0  0  0  0  0  0  0  0  0  0
    4.2796   -2.4238   -1.7032 N   0  0  0  0  0  0  0  0  0  0  0  0
    5.2466   -2.4508   -2.6966 C   0  0  0  0  0  0  0  0  0  0  0  0
    6.2178   -3.3167   -2.2664 C   0  0  0  0  0  0  0  0  0  0  0  0
    5.8483   -3.8506   -1.0433 N   0  0  0  0  0  0  0  0  0  0  0  0
    4.6938   -3.2729   -0.7419 C   0  0  0  0  0  0  0  0  0  0  0  0
    3.9455   -3.5778    0.5216 C   0  0  2  0  0  0  0  0  0  0  0  0
    4.8360   -3.5918    1.7688 C   0  0  0  0  0  0  0  0  0  0  0  0
    4.6333   -4.9890    2.3553 C   0  0  0  0  0  0  0  0  0  0  0  0
    3.2957   -5.3570    1.9104 N   0  0  0  0  0  0  0  0  0  0  0  0
    3.0143   -6.7843    2.0957 C   0  0  0  0  0  0  0  0  0  0  0  0
    1.5526   -7.1302    2.0191 C   0  0  0  0  0  0  0  0  0  0  0  0
    0.5701   -6.2808    1.7440 N   0  0  0  0  0  0  0  0  0  0  0  0
   -0.5715   -7.0511    1.8246 N   0  0  0  0  0  0  0  0  0  0  0  0
   -0.2872   -8.2777    2.1188 N   0  0  0  0  0  0  0  0  0  0  0  0
    1.0633   -8.3594    2.2411 N   0  0  0  0  0  0  0  0  0  0  0  0
    1.7210   -9.6368    2.4797 C   0  0  0  0  0  0  0  0  0  0  0  0
    0.9124  -10.6781    3.2333 C   0  0  0  0  0  0  0  0  0  0  0  0
    2.0300   -9.9358    3.9268 C   0  0  0  0  0  0  0  0  0  0  0  0
    3.2825   -4.9584    0.5045 C   0  0  0  0  0  0  0  0  0  0  0  0
    3.1454   -0.8745   -2.5345 H   0  0  0  0  0  0  0  0  0  0  0  0
    3.0189   -1.0839   -0.7857 H   0  0  0  0  0  0  0  0  0  0  0  0
    2.2167   -2.2542   -1.9063 H   0  0  0  0  0  0  0  0  0  0  0  0
    5.1584   -1.8572   -3.5920 H   0  0  0  0  0  0  0  0  0  0  0  0
    7.1460   -3.6030   -2.7237 H   0  0  0  0  0  0  0  0  0  0  0  0
    3.1666   -2.8332    0.6846 H   0  0  0  0  0  0  0  0  0  0  0  0
    5.8907   -3.4099    1.5600 H   0  0  0  0  0  0  0  0  0  0  0  0
    4.5090   -2.8199    2.4656 H   0  0  0  0  0  0  0  0  0  0  0  0
    5.3754   -5.6802    1.9475 H   0  0  0  0  0  0  0  0  0  0  0  0
    4.7173   -4.9912    3.4433 H   0  0  0  0  0  0  0  0  0  0  0  0
    3.5601   -7.3803    1.3602 H   0  0  0  0  0  0  0  0  0  0  0  0
    3.3711   -7.0988    3.0780 H   0  0  0  0  0  0  0  0  0  0  0  0
    2.3933   -9.9329    1.6806 H   0  0  0  0  0  0  0  0  0  0  0  0
   -0.1005  -10.4547    3.5641 H   0  0  0  0  0  0  0  0  0  0  0  0
    1.0837  -11.7254    2.9878 H   0  0  0  0  0  0  0  0  0  0  0  0
    2.9409  -10.4964    4.1399 H   0  0  0  0  0  0  0  0  0  0  0  0
    1.7415   -9.2097    4.6841 H   0  0  0  0  0  0  0  0  0  0  0  0
    2.2770   -4.9285    0.0823 H   0  0  0  0  0  0  0  0  0  0  0  0
    3.8740   -5.6618   -0.0862 H   0  0  0  0  0  0  0  0  0  0  0  0
  1  2  1  0
  1 21  1  0
  1 22  1  0
  1 23  1  0
  2  6  1  0
  2  3  1  0
  3  4  2  0
  3 24  1  0
  4  5  1  0
  4 25  1  0
  5  6  2  0
  6  7  1  0
  7 20  1  0
  7  8  1  0
  7 26  1  1
  8  9  1  0
  8 27  1  0
  8 28  1  0
  9 10  1  0
  9 29  1  0
  9 30  1  0
 10 11  1  0
 10 20  1  0
 11 12  1  0
 11 31  1  0
 11 32  1  0
 12 16  1  0
 12 13  2  0
 13 14  1  0
 14 15  2  0
 15 16  1  0
 16 17  1  0
 17 19  1  0
 17 18  1  0
 17 33  1  0
 18 19  1  0
 18 34  1  0
 18 35  1  0
 19 36  1  0
 19 37  1  0
 20 38  1  0
 20 39  1  0
M  END
>  <i_m_ct_stereo_status>  (442) 
1

>  <s_m_source_file>  (442) 
/var/tmp/pbs.5076255.sched01/tmpgahbdy6u/1388ql836nh.sdf

>  <i_m_source_file_index>  (442) 
43

>  <i_lp_mmshare_version>  (442) 
48012

>  <i_f3d_flags>  (442) 
0

>  <s_epik_input>  (442) 
W0NIM11uMVtjSF1bY0hdbmMxW0NAQEhdMltDSDJdW0NIMl1OKFtDSDJdMilbQ0gyXWMzbm5ubjNbQ0hdNFtDSDJdW0NIMl00

>  <s_epik_cmdline>  (442) 
J2VwaWtfcHl0aG9uJywgJy1waHQnLCAnMi4wJywgJy1waCcsICc3LjAnLCAnLXRuJywgJzgnLCAnLW1hJywgJzIwMCcsICctaW1hZScsICc8aW5maWxlLm1hZT4nLCAnLW9tYWUnLCAnPG91dGZpbGUubWFlPic=

>  <r_lp_tautomer_probability>  (442) 
1

>  <r_epik_Ionization_Penalty>  (442) 
1.21065

>  <r_epik_Ionization_Penalty_Charging>  (442) 
1.16191

>  <r_epik_Ionization_Penalty_Neutral>  (442) 
0.0487409

>  <r_epik_State_Penalty>  (442) 
0.795287

>  <r_epik_Charging_Adjusted_Penalty>  (442) 
1.95719

>  <i_epik_Tot_Q>  (442) 
0

>  <i_epik_Tot_abs_Q>  (442) 
0

>  <s_lp_Force_Field>  (442) 
OPLS3e

>  <r_lp_Energy>  (442) 
8.40922

>  <b_lp_Chiralities_Consistent>  (442) 
1

>  <s_lp_Variant>  (442) 
111:0-2

>  <s_i_glide_gridfile>  (442) 
pfpi4k_grid

>  <i_i_glide_lignum>  (442) 
43

>  <i_i_glide_rotatable_bonds>  (442) 
4

>  <r_i_docking_score>  (442) 
-3.26452

>  <r_i_glide_ligand_efficiency>  (442) 
-0.163226

>  <r_i_glide_ligand_efficiency_sa>  (442) 
-0.443063

>  <r_i_glide_ligand_efficiency_ln>  (442) 
-0.817001

>  <r_i_glide_gscore>  (442) 
-3.26452

>  <r_i_glide_lipo>  (442) 
-0.646416

>  <r_i_glide_hbond>  (442) 
0

>  <r_i_glide_metal>  (442) 
-0

>  <r_i_glide_rewards>  (442) 
-1.59836

>  <r_i_glide_evdw>  (442) 
-21.3395

>  <r_i_glide_ecoul>  (442) 
-3.8172

>  <r_i_glide_erotb>  (442) 
0.960344

>  <r_i_glide_esite>  (442) 
-0.340525

>  <r_i_glide_emodel>  (442) 
-29.8675

>  <r_i_glide_energy>  (442) 
-25.1567

>  <r_i_glide_einternal>  (442) 
2.95139

>  <r_i_glide_intrahb_reward>  (442) 
-0

>  <i_i_glide_confnum>  (442) 
3

>  <i_i_glide_posenum>  (442) 
38

>  <r_i_glide_eff_state_penalty>  (442) 
0

>  <ligand_id>  (442) 
111

>  <original_smiles>  (442) 
Cn1ccnc1C1CCN(Cc2nnnn2C2CC2)C1

>  <smiles>  (442) 
[H]c1nc(C2([H])C([H])([H])N(C([H])([H])c3nnnn3C3([H])C([H])([H])C3([H])[H])C([H])([H])C2([H])[H])n(C([H])([H])[H])c1[H]

$$$$
111:1:1
     RDKit          3D

 39 42  0  0  1  0  0  0  0  0999 V2000
    4.0524   -0.4858    0.4722 C   0  0  0  0  0  0  0  0  0  0  0  0
    4.4304   -1.4237   -0.5723 N   0  0  0  0  0  0  0  0  0  0  0  0
    4.6921   -1.0992   -1.8968 C   0  0  0  0  0  0  0  0  0  0  0  0
    5.0159   -2.2760   -2.5339 C   0  0  0  0  0  0  0  0  0  0  0  0
    4.9721   -3.3208   -1.6226 N   0  0  0  0  0  0  0  0  0  0  0  0
    4.6083   -2.7586   -0.4749 C   0  0  0  0  0  0  0  0  0  0  0  0
    4.4510   -3.5389    0.7953 C   0  0  2  0  0  0  0  0  0  0  0  0
    5.7365   -4.1781    1.3099 C   0  0  0  0  0  0  0  0  0  0  0  0
    5.3990   -5.6698    1.3971 C   0  0  0  0  0  0  0  0  0  0  0  0
    3.9506   -5.6978    1.6034 N   0  0  0  0  0  0  0  0  0  0  0  0
    3.3998   -7.0350    1.3490 C   0  0  0  0  0  0  0  0  0  0  0  0
    1.8949   -7.1351    1.4640 C   0  0  0  0  0  0  0  0  0  0  0  0
    1.0176   -6.3527    0.8470 N   0  0  0  0  0  0  0  0  0  0  0  0
   -0.2004   -6.7745    1.3135 N   0  0  0  0  0  0  0  0  0  0  0  0
   -0.0771   -7.7716    2.1261 N   0  0  0  0  0  0  0  0  0  0  0  0
    1.2492   -8.0457    2.2047 N   0  0  0  0  0  0  0  0  0  0  0  0
    1.7331   -9.1033    3.0660 C   0  0  0  0  0  0  0  0  0  0  0  0
    2.4792  -10.2077    2.3562 C   0  0  0  0  0  0  0  0  0  0  0  0
    1.0835  -10.4604    2.8796 C   0  0  0  0  0  0  0  0  0  0  0  0
    3.4825   -4.7034    0.6396 C   0  0  0  0  0  0  0  0  0  0  0  0
    4.2147    0.5385    0.1300 H   0  0  0  0  0  0  0  0  0  0  0  0
    4.6592   -0.6469    1.3647 H   0  0  0  0  0  0  0  0  0  0  0  0
    2.9972   -0.6131    0.7200 H   0  0  0  0  0  0  0  0  0  0  0  0
    4.6322   -0.0868   -2.2703 H   0  0  0  0  0  0  0  0  0  0  0  0
    5.2889   -2.4623   -3.5547 H   0  0  0  0  0  0  0  0  0  0  0  0
    4.0416   -2.9054    1.5842 H   0  0  0  0  0  0  0  0  0  0  0  0
    6.5870   -3.9885    0.6535 H   0  0  0  0  0  0  0  0  0  0  0  0
    5.9748   -3.7776    2.2963 H   0  0  0  0  0  0  0  0  0  0  0  0
    5.6600   -6.1481    0.4490 H   0  0  0  0  0  0  0  0  0  0  0  0
    5.9500   -6.1742    2.1913 H   0  0  0  0  0  0  0  0  0  0  0  0
    3.7033   -7.3892    0.3616 H   0  0  0  0  0  0  0  0  0  0  0  0
    3.8442   -7.7236    2.0671 H   0  0  0  0  0  0  0  0  0  0  0  0
    2.0215   -8.7490    4.0452 H   0  0  0  0  0  0  0  0  0  0  0  0
    2.5983  -10.1389    1.2773 H   0  0  0  0  0  0  0  0  0  0  0  0
    3.3130  -10.6600    2.8915 H   0  0  0  0  0  0  0  0  0  0  0  0
    0.9893  -11.1013    3.7556 H   0  0  0  0  0  0  0  0  0  0  0  0
    0.2964  -10.5775    2.1374 H   0  0  0  0  0  0  0  0  0  0  0  0
    2.4701   -4.3502    0.8409 H   0  0  0  0  0  0  0  0  0  0  0  0
    3.5216   -5.1273   -0.3681 H   0  0  0  0  0  0  0  0  0  0  0  0
  1  2  1  0
  1 21  1  0
  1 22  1  0
  1 23  1  0
  2  6  1  0
  2  3  1  0
  3  4  2  0
  3 24  1  0
  4  5  1  0
  4 25  1  0
  5  6  2  0
  6  7  1  0
  7 20  1  0
  7  8  1  0
  7 26  1  1
  8  9  1  0
  8 27  1  0
  8 28  1  0
  9 10  1  0
  9 29  1  0
  9 30  1  0
 10 11  1  0
 10 20  1  0
 11 12  1  0
 11 31  1  0
 11 32  1  0
 12 16  1  0
 12 13  2  0
 13 14  1  0
 14 15  2  0
 15 16  1  0
 16 17  1  0
 17 19  1  0
 17 18  1  0
 17 33  1  0
 18 19  1  0
 18 34  1  0
 18 35  1  0
 19 36  1  0
 19 37  1  0
 20 38  1  0
 20 39  1  0
M  END
>  <i_m_ct_stereo_status>  (443) 
1

>  <s_m_source_file>  (443) 
/var/tmp/pbs.5076255.sched01/tmpgahbdy6u/1388ql836nh.sdf

>  <i_m_source_file_index>  (443) 
43

>  <i_lp_mmshare_version>  (443) 
48012

>  <i_f3d_flags>  (443) 
0

>  <s_epik_input>  (443) 
W0NIM11uMVtjSF1bY0hdbmMxW0NAQEhdMltDSDJdW0NIMl1OKFtDSDJdMilbQ0gyXWMzbm5ubjNbQ0hdNFtDSDJdW0NIMl00

>  <s_epik_cmdline>  (443) 
J2VwaWtfcHl0aG9uJywgJy1waHQnLCAnMi4wJywgJy1waCcsICc3LjAnLCAnLXRuJywgJzgnLCAnLW1hJywgJzIwMCcsICctaW1hZScsICc8aW5maWxlLm1hZT4nLCAnLW9tYWUnLCAnPG91dGZpbGUubWFlPic=

>  <r_lp_tautomer_probability>  (443) 
1

>  <r_epik_Ionization_Penalty>  (443) 
1.21065

>  <r_epik_Ionization_Penalty_Charging>  (443) 
1.16191

>  <r_epik_Ionization_Penalty_Neutral>  (443) 
0.0487409

>  <r_epik_State_Penalty>  (443) 
0.795287

>  <r_epik_Charging_Adjusted_Penalty>  (443) 
1.95719

>  <i_epik_Tot_Q>  (443) 
0

>  <i_epik_Tot_abs_Q>  (443) 
0

>  <s_lp_Force_Field>  (443) 
OPLS3e

>  <r_lp_Energy>  (443) 
8.40922

>  <b_lp_Chiralities_Consistent>  (443) 
1

>  <s_lp_Variant>  (443) 
111:0-2

>  <s_i_glide_gridfile>  (443) 
pfpi4k_grid

>  <i_i_glide_lignum>  (443) 
43

>  <i_i_glide_rotatable_bonds>  (443) 
4

>  <r_i_docking_score>  (443) 
-3.26239

>  <r_i_glide_ligand_efficiency>  (443) 
-0.163119

>  <r_i_glide_ligand_efficiency_sa>  (443) 
-0.442774

>  <r_i_glide_ligand_efficiency_ln>  (443) 
-0.816468

>  <r_i_glide_gscore>  (443) 
-3.26239

>  <r_i_glide_lipo>  (443) 
-0.61095

>  <r_i_glide_hbond>  (443) 
0

>  <r_i_glide_metal>  (443) 
-0

>  <r_i_glide_rewards>  (443) 
-1.54543

>  <r_i_glide_evdw>  (443) 
-25.6959

>  <r_i_glide_ecoul>  (443) 
-2.80821

>  <r_i_glide_erotb>  (443) 
0.960344

>  <r_i_glide_esite>  (443) 
-0.360324

>  <r_i_glide_emodel>  (443) 
-34.0447

>  <r_i_glide_energy>  (443) 
-28.5041

>  <r_i_glide_einternal>  (443) 
1.38297

>  <r_i_glide_intrahb_reward>  (443) 
-0

>  <i_i_glide_confnum>  (443) 
1

>  <i_i_glide_posenum>  (443) 
7

>  <r_i_glide_eff_state_penalty>  (443) 
0

>  <ligand_id>  (443) 
111

>  <original_smiles>  (443) 
Cn1ccnc1C1CCN(Cc2nnnn2C2CC2)C1

>  <smiles>  (443) 
[H]c1nc(C2([H])C([H])([H])N(C([H])([H])c3nnnn3C3([H])C([H])([H])C3([H])[H])C([H])([H])C2([H])[H])n(C([H])([H])[H])c1[H]

$$$$
111:1:2
     RDKit          3D

 39 42  0  0  1  0  0  0  0  0999 V2000
    3.0837   -3.8457   -0.7286 C   0  0  0  0  0  0  0  0  0  0  0  0
    3.3945   -3.0270    0.4412 N   0  0  0  0  0  0  0  0  0  0  0  0
    3.4234   -1.6400    0.4507 C   0  0  0  0  0  0  0  0  0  0  0  0
    3.7619   -1.2396    1.7208 C   0  0  0  0  0  0  0  0  0  0  0  0
    3.9404   -2.3700    2.5165 N   0  0  0  0  0  0  0  0  0  0  0  0
    3.7067   -3.4003    1.7073 C   0  0  0  0  0  0  0  0  0  0  0  0
    3.7672   -4.8284    2.1575 C   0  0  2  0  0  0  0  0  0  0  0  0
    4.7224   -5.7199    1.3591 C   0  0  0  0  0  0  0  0  0  0  0  0
    3.8136   -6.8318    0.8281 C   0  0  0  0  0  0  0  0  0  0  0  0
    2.7477   -6.9270    1.8266 N   0  0  0  0  0  0  0  0  0  0  0  0
    1.5987   -7.6808    1.3222 C   0  0  0  0  0  0  0  0  0  0  0  0
    0.5054   -7.8387    2.3299 C   0  0  0  0  0  0  0  0  0  0  0  0
   -0.5756   -7.0703    2.4047 N   0  0  0  0  0  0  0  0  0  0  0  0
   -1.2436   -7.5636    3.5098 N   0  0  0  0  0  0  0  0  0  0  0  0
   -0.6005   -8.5562    4.0467 N   0  0  0  0  0  0  0  0  0  0  0  0
    0.5164   -8.7597    3.3026 N   0  0  0  0  0  0  0  0  0  0  0  0
    1.5279   -9.7600    3.6365 C   0  0  0  0  0  0  0  0  0  0  0  0
    1.1822  -11.1755    3.2320 C   0  0  0  0  0  0  0  0  0  0  0  0
    1.1790  -10.7873    4.6930 C   0  0  0  0  0  0  0  0  0  0  0  0
    2.4037   -5.5384    2.1387 C   0  0  0  0  0  0  0  0  0  0  0  0
    2.6991   -3.2083   -1.5311 H   0  0  0  0  0  0  0  0  0  0  0  0
    2.3325   -4.6008   -0.5071 H   0  0  0  0  0  0  0  0  0  0  0  0
    3.9933   -4.3300   -1.0938 H   0  0  0  0  0  0  0  0  0  0  0  0
    3.1990   -1.0644   -0.4322 H   0  0  0  0  0  0  0  0  0  0  0  0
    3.8820   -0.2432    2.1158 H   0  0  0  0  0  0  0  0  0  0  0  0
    4.1250   -4.8382    3.1929 H   0  0  0  0  0  0  0  0  0  0  0  0
    5.2508   -5.1901    0.5620 H   0  0  0  0  0  0  0  0  0  0  0  0
    5.4953   -6.1374    2.0065 H   0  0  0  0  0  0  0  0  0  0  0  0
    3.4101   -6.5328   -0.1410 H   0  0  0  0  0  0  0  0  0  0  0  0
    4.3457   -7.7736    0.6824 H   0  0  0  0  0  0  0  0  0  0  0  0
    1.1646   -7.1737    0.4547 H   0  0  0  0  0  0  0  0  0  0  0  0
    1.9197   -8.6725    0.9990 H   0  0  0  0  0  0  0  0  0  0  0  0
    2.5421   -9.3933    3.5364 H   0  0  0  0  0  0  0  0  0  0  0  0
    0.2180  -11.3605    2.7672 H   0  0  0  0  0  0  0  0  0  0  0  0
    1.9960  -11.8156    2.8874 H   0  0  0  0  0  0  0  0  0  0  0  0
    1.9898  -11.1753    5.3104 H   0  0  0  0  0  0  0  0  0  0  0  0
    0.2155  -10.7565    5.1900 H   0  0  0  0  0  0  0  0  0  0  0  0
    1.8695   -5.4367    3.0929 H   0  0  0  0  0  0  0  0  0  0  0  0
    1.7662   -5.1301    1.3536 H   0  0  0  0  0  0  0  0  0  0  0  0
  1  2  1  0
  1 21  1  0
  1 22  1  0
  1 23  1  0
  2  6  1  0
  2  3  1  0
  3  4  2  0
  3 24  1  0
  4  5  1  0
  4 25  1  0
  5  6  2  0
  6  7  1  0
  7 20  1  0
  7  8  1  0
  7 26  1  1
  8  9  1  0
  8 27  1  0
  8 28  1  0
  9 10  1  0
  9 29  1  0
  9 30  1  0
 10 11  1  0
 10 20  1  0
 11 12  1  0
 11 31  1  0
 11 32  1  0
 12 16  1  0
 12 13  2  0
 13 14  1  0
 14 15  2  0
 15 16  1  0
 16 17  1  0
 17 19  1  0
 17 18  1  0
 17 33  1  0
 18 19  1  0
 18 34  1  0
 18 35  1  0
 19 36  1  0
 19 37  1  0
 20 38  1  0
 20 39  1  0
M  END
>  <i_m_ct_stereo_status>  (444) 
1

>  <s_m_source_file>  (444) 
/var/tmp/pbs.5076255.sched01/tmpgahbdy6u/1388ql836nh.sdf

>  <i_m_source_file_index>  (444) 
43

>  <i_lp_mmshare_version>  (444) 
48012

>  <i_f3d_flags>  (444) 
0

>  <s_epik_input>  (444) 
W0NIM11uMVtjSF1bY0hdbmMxW0NAQEhdMltDSDJdW0NIMl1OKFtDSDJdMilbQ0gyXWMzbm5ubjNbQ0hdNFtDSDJdW0NIMl00

>  <s_epik_cmdline>  (444) 
J2VwaWtfcHl0aG9uJywgJy1waHQnLCAnMi4wJywgJy1waCcsICc3LjAnLCAnLXRuJywgJzgnLCAnLW1hJywgJzIwMCcsICctaW1hZScsICc8aW5maWxlLm1hZT4nLCAnLW9tYWUnLCAnPG91dGZpbGUubWFlPic=

>  <r_lp_tautomer_probability>  (444) 
1

>  <r_epik_Ionization_Penalty>  (444) 
1.21065

>  <r_epik_Ionization_Penalty_Charging>  (444) 
1.16191

>  <r_epik_Ionization_Penalty_Neutral>  (444) 
0.0487409

>  <r_epik_State_Penalty>  (444) 
0.795287

>  <r_epik_Charging_Adjusted_Penalty>  (444) 
1.95719

>  <i_epik_Tot_Q>  (444) 
0

>  <i_epik_Tot_abs_Q>  (444) 
0

>  <s_lp_Force_Field>  (444) 
OPLS3e

>  <r_lp_Energy>  (444) 
8.40922

>  <b_lp_Chiralities_Consistent>  (444) 
1

>  <s_lp_Variant>  (444) 
111:0-2

>  <s_i_glide_gridfile>  (444) 
pfpi4k_grid

>  <i_i_glide_lignum>  (444) 
43

>  <i_i_glide_rotatable_bonds>  (444) 
4

>  <r_i_docking_score>  (444) 
-2.97055

>  <r_i_glide_ligand_efficiency>  (444) 
-0.148528

>  <r_i_glide_ligand_efficiency_sa>  (444) 
-0.403166

>  <r_i_glide_ligand_efficiency_ln>  (444) 
-0.743431

>  <r_i_glide_gscore>  (444) 
-2.97055

>  <r_i_glide_lipo>  (444) 
-0.364952

>  <r_i_glide_hbond>  (444) 
0

>  <r_i_glide_metal>  (444) 
-0

>  <r_i_glide_rewards>  (444) 
-1.55154

>  <r_i_glide_evdw>  (444) 
-23.492

>  <r_i_glide_ecoul>  (444) 
-3.42977

>  <r_i_glide_erotb>  (444) 
0.960344

>  <r_i_glide_esite>  (444) 
-0.325333

>  <r_i_glide_emodel>  (444) 
-31.6146

>  <r_i_glide_energy>  (444) 
-26.9218

>  <r_i_glide_einternal>  (444) 
2.20132

>  <r_i_glide_intrahb_reward>  (444) 
-0

>  <i_i_glide_confnum>  (444) 
2

>  <i_i_glide_posenum>  (444) 
25

>  <r_i_glide_eff_state_penalty>  (444) 
0

>  <ligand_id>  (444) 
111

>  <original_smiles>  (444) 
Cn1ccnc1C1CCN(Cc2nnnn2C2CC2)C1

>  <smiles>  (444) 
[H]c1nc(C2([H])C([H])([H])N(C([H])([H])c3nnnn3C3([H])C([H])([H])C3([H])[H])C([H])([H])C2([H])[H])n(C([H])([H])[H])c1[H]

$$$$
111:2:0
     RDKit          3D

 40 43  0  0  1  0  0  0  0  0999 V2000
    3.4868   -0.6525   -3.3878 C   0  0  0  0  0  0  0  0  0  0  0  0
    4.1033   -1.8038   -2.7666 N   0  0  0  0  0  0  0  0  0  0  0  0
    4.2208   -3.0593   -3.3483 C   0  0  0  0  0  0  0  0  0  0  0  0
    4.8259   -3.8568   -2.4202 C   0  0  0  0  0  0  0  0  0  0  0  0
    5.0674   -3.1368   -1.2587 N   0  0  0  0  0  0  0  0  0  0  0  0
    4.6419   -1.9107   -1.5443 C   0  0  0  0  0  0  0  0  0  0  0  0
    4.6985   -0.8056   -0.5336 C   0  0  2  0  0  0  0  0  0  0  0  0
    6.0028   -0.7699    0.2825 C   0  0  0  0  0  0  0  0  0  0  0  0
    5.5468   -0.8166    1.7482 C   0  0  0  0  0  0  0  0  0  0  0  0
    4.1775   -0.2633    1.7429 N   0  0  2  0  0  0  0  0  0  0  0  0
    3.3840   -0.5114    2.9689 C   0  0  0  0  0  0  0  0  0  0  0  0
    3.7681    0.5549    3.9605 C   0  0  0  0  0  0  0  0  0  0  0  0
    4.5564    0.3482    5.0116 N   0  0  0  0  0  0  0  0  0  0  0  0
    4.5324    1.5501    5.6914 N   0  0  0  0  0  0  0  0  0  0  0  0
    3.7976    2.4210    5.0698 N   0  0  0  0  0  0  0  0  0  0  0  0
    3.2747    1.7847    3.9841 N   0  0  0  0  0  0  0  0  0  0  0  0
    2.4502    2.5128    3.0356 C   0  0  0  0  0  0  0  0  0  0  0  0
    1.4594    3.5041    3.6055 C   0  0  0  0  0  0  0  0  0  0  0  0
    0.9885    2.1495    3.1192 C   0  0  0  0  0  0  0  0  0  0  0  0
    3.5897   -0.8394    0.5189 C   0  0  0  0  0  0  0  0  0  0  0  0
    3.0187   -0.9449   -4.3275 H   0  0  0  0  0  0  0  0  0  0  0  0
    4.2391    0.1095   -3.5820 H   0  0  0  0  0  0  0  0  0  0  0  0
    2.7200   -0.2568   -2.7260 H   0  0  0  0  0  0  0  0  0  0  0  0
    3.8408   -3.3057   -4.3327 H   0  0  0  0  0  0  0  0  0  0  0  0
    5.0546   -4.9189   -2.4665 H   0  0  0  0  0  0  0  0  0  0  0  0
    4.6158    0.1369   -1.0691 H   0  0  0  0  0  0  0  0  0  0  0  0
    6.6977   -1.5894    0.0617 H   0  0  0  0  0  0  0  0  0  0  0  0
    6.5392    0.1590    0.0793 H   0  0  0  0  0  0  0  0  0  0  0  0
    5.5049   -1.8662    2.0488 H   0  0  0  0  0  0  0  0  0  0  0  0
    6.2184   -0.2890    2.4227 H   0  0  0  0  0  0  0  0  0  0  0  0
    2.3173   -0.4175    2.7797 H   0  0  0  0  0  0  0  0  0  0  0  0
    3.5653   -1.4924    3.4040 H   0  0  0  0  0  0  0  0  0  0  0  0
    2.9502    2.6849    2.0830 H   0  0  0  0  0  0  0  0  0  0  0  0
    1.4322    3.6873    4.6798 H   0  0  0  0  0  0  0  0  0  0  0  0
    1.2171    4.3666    2.9896 H   0  0  0  0  0  0  0  0  0  0  0  0
    0.4348    2.1140    2.1829 H   0  0  0  0  0  0  0  0  0  0  0  0
    0.6684    1.4356    3.8793 H   0  0  0  0  0  0  0  0  0  0  0  0
    2.7182   -0.2739    0.2065 H   0  0  0  0  0  0  0  0  0  0  0  0
    3.2909   -1.8685    0.7112 H   0  0  0  0  0  0  0  0  0  0  0  0
    4.2342    0.7336    1.5906 H   0  0  0  0  0  0  0  0  0  0  0  0
  1  2  1  0
  1 21  1  0
  1 22  1  0
  1 23  1  0
  2  6  1  0
  2  3  1  0
  3  4  2  0
  3 24  1  0
  4  5  1  0
  4 25  1  0
  5  6  2  0
  6  7  1  0
  7 20  1  0
  7  8  1  0
  7 26  1  6
  8  9  1  0
  8 27  1  0
  8 28  1  0
  9 10  1  0
  9 29  1  0
  9 30  1  0
 10 11  1  0
 10 20  1  0
 10 40  1  6
 11 12  1  0
 11 31  1  0
 11 32  1  0
 12 16  1  0
 12 13  2  0
 13 14  1  0
 14 15  2  0
 15 16  1  0
 16 17  1  0
 17 19  1  0
 17 18  1  0
 17 33  1  0
 18 19  1  0
 18 34  1  0
 18 35  1  0
 19 36  1  0
 19 37  1  0
 20 38  1  0
 20 39  1  0
M  CHG  1  10   1
M  END
>  <i_m_ct_stereo_status>  (445) 
1

>  <s_m_source_file>  (445) 
/var/tmp/pbs.5076255.sched01/tmpgahbdy6u/1388ql836nh.sdf

>  <i_m_source_file_index>  (445) 
44

>  <i_lp_mmshare_version>  (445) 
48012

>  <i_f3d_flags>  (445) 
0

>  <s_epik_input>  (445) 
W0NIM11uMVtjSF1bY0hdbmMxW0NAQEhdMltDSDJdW0NIMl1OKFtDSDJdMilbQ0gyXWMzbm5ubjNbQ0hdNFtDSDJdW0NIMl00

>  <s_epik_cmdline>  (445) 
J2VwaWtfcHl0aG9uJywgJy1waHQnLCAnMi4wJywgJy1waCcsICc3LjAnLCAnLXRuJywgJzgnLCAnLW1hJywgJzIwMCcsICctaW1hZScsICc8aW5maWxlLm1hZT4nLCAnLW9tYWUnLCAnPG91dGZpbGUubWFlPic=

>  <r_epik_Ionization_Penalty>  (445) 
1.55269

>  <r_epik_Ionization_Penalty_Charging>  (445) 
1.55269

>  <r_epik_Ionization_Penalty_Neutral>  (445) 
9.23381e-12

>  <r_epik_State_Penalty>  (445) 
1.76992

>  <r_epik_Charging_Adjusted_Penalty>  (445) 
3.32261

>  <i_epik_Tot_Q>  (445) 
1

>  <i_epik_Tot_abs_Q>  (445) 
1

>  <s_lp_Force_Field>  (445) 
OPLS3e

>  <r_lp_Energy>  (445) 
8.0133

>  <b_lp_Chiralities_Consistent>  (445) 
1

>  <s_lp_Variant>  (445) 
111:0-3

>  <s_i_glide_gridfile>  (445) 
pfpi4k_grid

>  <i_i_glide_lignum>  (445) 
44

>  <i_i_glide_rotatable_bonds>  (445) 
4

>  <r_i_docking_score>  (445) 
-3.09183

>  <r_i_glide_ligand_efficiency>  (445) 
-0.154592

>  <r_i_glide_ligand_efficiency_sa>  (445) 
-0.419626

>  <r_i_glide_ligand_efficiency_ln>  (445) 
-0.773783

>  <r_i_glide_gscore>  (445) 
-3.09183

>  <r_i_glide_lipo>  (445) 
-0.521261

>  <r_i_glide_hbond>  (445) 
0

>  <r_i_glide_metal>  (445) 
-0

>  <r_i_glide_rewards>  (445) 
-1.55256

>  <r_i_glide_evdw>  (445) 
-23.1805

>  <r_i_glide_ecoul>  (445) 
-5.07541

>  <r_i_glide_erotb>  (445) 
0.95424

>  <r_i_glide_esite>  (445) 
-0.0519146

>  <r_i_glide_emodel>  (445) 
-34.6582

>  <r_i_glide_energy>  (445) 
-28.2559

>  <r_i_glide_einternal>  (445) 
1.35374

>  <r_i_glide_intrahb_reward>  (445) 
-0

>  <i_i_glide_confnum>  (445) 
5

>  <i_i_glide_posenum>  (445) 
11

>  <r_i_glide_eff_state_penalty>  (445) 
0

>  <ligand_id>  (445) 
111

>  <original_smiles>  (445) 
Cn1ccnc1C1CCN(Cc2nnnn2C2CC2)C1

>  <smiles>  (445) 
[H]c1nc(C2([H])C([H])([H])C([H])([H])[N+]([H])(C([H])([H])c3nnnn3C3([H])C([H])([H])C3([H])[H])C2([H])[H])n(C([H])([H])[H])c1[H]

$$$$
111:2:1
     RDKit          3D

 40 43  0  0  1  0  0  0  0  0999 V2000
    5.8791  -12.3412    2.4611 C   0  0  0  0  0  0  0  0  0  0  0  0
    6.4599  -11.8426    3.7043 N   0  0  0  0  0  0  0  0  0  0  0  0
    7.7865  -11.9925    4.0625 C   0  0  0  0  0  0  0  0  0  0  0  0
    7.9475  -11.4274    5.3108 C   0  0  0  0  0  0  0  0  0  0  0  0
    6.7234  -10.9008    5.7181 N   0  0  0  0  0  0  0  0  0  0  0  0
    5.8743  -11.1811    4.7331 C   0  0  0  0  0  0  0  0  0  0  0  0
    4.4146  -10.8319    4.7694 C   0  0  2  0  0  0  0  0  0  0  0  0
    3.4549  -12.0291    4.7216 C   0  0  0  0  0  0  0  0  0  0  0  0
    2.5412  -11.7210    3.5276 C   0  0  0  0  0  0  0  0  0  0  0  0
    2.5361  -10.2507    3.3936 N   0  0  2  0  0  0  0  0  0  0  0  0
    1.9940   -9.8057    2.0802 C   0  0  0  0  0  0  0  0  0  0  0  0
    1.7235   -8.3446    2.1920 C   0  0  0  0  0  0  0  0  0  0  0  0
    2.5185   -7.4007    1.7386 N   0  0  0  0  0  0  0  0  0  0  0  0
    1.8061   -6.2353    1.9514 N   0  0  0  0  0  0  0  0  0  0  0  0
    0.6652   -6.4787    2.5184 N   0  0  0  0  0  0  0  0  0  0  0  0
    0.5762   -7.8213    2.6731 N   0  0  0  0  0  0  0  0  0  0  0  0
   -0.5669   -8.4259    3.3182 C   0  0  0  0  0  0  0  0  0  0  0  0
   -1.6225   -8.9354    2.3609 C   0  0  0  0  0  0  0  0  0  0  0  0
   -1.8940   -7.6938    3.1821 C   0  0  0  0  0  0  0  0  0  0  0  0
    3.9310   -9.8515    3.6878 C   0  0  0  0  0  0  0  0  0  0  0  0
    6.6160  -12.9354    1.9240 H   0  0  0  0  0  0  0  0  0  0  0  0
    5.5882  -11.5169    1.8140 H   0  0  0  0  0  0  0  0  0  0  0  0
    5.0353  -13.0035    2.6499 H   0  0  0  0  0  0  0  0  0  0  0  0
    8.4858  -12.4911    3.4130 H   0  0  0  0  0  0  0  0  0  0  0  0
    8.8301  -11.3605    5.9244 H   0  0  0  0  0  0  0  0  0  0  0  0
    4.2401  -10.3476    5.7378 H   0  0  0  0  0  0  0  0  0  0  0  0
    3.9627  -12.9929    4.6438 H   0  0  0  0  0  0  0  0  0  0  0  0
    2.8686  -12.0702    5.6425 H   0  0  0  0  0  0  0  0  0  0  0  0
    2.9595  -12.1349    2.6021 H   0  0  0  0  0  0  0  0  0  0  0  0
    1.5372  -12.1294    3.6541 H   0  0  0  0  0  0  0  0  0  0  0  0
    2.6632   -9.9902    1.2315 H   0  0  0  0  0  0  0  0  0  0  0  0
    1.0420  -10.2829    1.8832 H   0  0  0  0  0  0  0  0  0  0  0  0
   -0.3077   -8.9605    4.2287 H   0  0  0  0  0  0  0  0  0  0  0  0
   -1.4715   -8.7914    1.2920 H   0  0  0  0  0  0  0  0  0  0  0  0
   -2.1368   -9.8507    2.6391 H   0  0  0  0  0  0  0  0  0  0  0  0
   -2.5854   -7.7810    4.0153 H   0  0  0  0  0  0  0  0  0  0  0  0
   -1.9656   -6.7541    2.6384 H   0  0  0  0  0  0  0  0  0  0  0  0
    3.9851   -8.8123    4.0188 H   0  0  0  0  0  0  0  0  0  0  0  0
    4.5068   -9.9412    2.7703 H   0  0  0  0  0  0  0  0  0  0  0  0
    1.9547   -9.8916    4.1396 H   0  0  0  0  0  0  0  0  0  0  0  0
  1  2  1  0
  1 21  1  0
  1 22  1  0
  1 23  1  0
  2  6  1  0
  2  3  1  0
  3  4  2  0
  3 24  1  0
  4  5  1  0
  4 25  1  0
  5  6  2  0
  6  7  1  0
  7 20  1  0
  7  8  1  0
  7 26  1  1
  8  9  1  0
  8 27  1  0
  8 28  1  0
  9 10  1  0
  9 29  1  0
  9 30  1  0
 10 11  1  0
 10 20  1  0
 10 40  1  1
 11 12  1  0
 11 31  1  0
 11 32  1  0
 12 16  1  0
 12 13  2  0
 13 14  1  0
 14 15  2  0
 15 16  1  0
 16 17  1  0
 17 19  1  0
 17 18  1  0
 17 33  1  0
 18 19  1  0
 18 34  1  0
 18 35  1  0
 19 36  1  0
 19 37  1  0
 20 38  1  0
 20 39  1  0
M  CHG  1  10   1
M  END
>  <i_m_ct_stereo_status>  (446) 
1

>  <s_m_source_file>  (446) 
/var/tmp/pbs.5076255.sched01/tmpgahbdy6u/1388ql836nh.sdf

>  <i_m_source_file_index>  (446) 
44

>  <i_lp_mmshare_version>  (446) 
48012

>  <i_f3d_flags>  (446) 
0

>  <s_epik_input>  (446) 
W0NIM11uMVtjSF1bY0hdbmMxW0NAQEhdMltDSDJdW0NIMl1OKFtDSDJdMilbQ0gyXWMzbm5ubjNbQ0hdNFtDSDJdW0NIMl00

>  <s_epik_cmdline>  (446) 
J2VwaWtfcHl0aG9uJywgJy1waHQnLCAnMi4wJywgJy1waCcsICc3LjAnLCAnLXRuJywgJzgnLCAnLW1hJywgJzIwMCcsICctaW1hZScsICc8aW5maWxlLm1hZT4nLCAnLW9tYWUnLCAnPG91dGZpbGUubWFlPic=

>  <r_epik_Ionization_Penalty>  (446) 
1.55269

>  <r_epik_Ionization_Penalty_Charging>  (446) 
1.55269

>  <r_epik_Ionization_Penalty_Neutral>  (446) 
9.23381e-12

>  <r_epik_State_Penalty>  (446) 
1.76992

>  <r_epik_Charging_Adjusted_Penalty>  (446) 
3.32261

>  <i_epik_Tot_Q>  (446) 
1

>  <i_epik_Tot_abs_Q>  (446) 
1

>  <s_lp_Force_Field>  (446) 
OPLS3e

>  <r_lp_Energy>  (446) 
8.0133

>  <b_lp_Chiralities_Consistent>  (446) 
1

>  <s_lp_Variant>  (446) 
111:0-3

>  <s_i_glide_gridfile>  (446) 
pfpi4k_grid

>  <i_i_glide_lignum>  (446) 
44

>  <i_i_glide_rotatable_bonds>  (446) 
4

>  <r_i_docking_score>  (446) 
-2.97036

>  <r_i_glide_ligand_efficiency>  (446) 
-0.148518

>  <r_i_glide_ligand_efficiency_sa>  (446) 
-0.40314

>  <r_i_glide_ligand_efficiency_ln>  (446) 
-0.743383

>  <r_i_glide_gscore>  (446) 
-2.97036

>  <r_i_glide_lipo>  (446) 
-0.327904

>  <r_i_glide_hbond>  (446) 
0

>  <r_i_glide_metal>  (446) 
-0

>  <r_i_glide_rewards>  (446) 
-1.53856

>  <r_i_glide_evdw>  (446) 
-20.6147

>  <r_i_glide_ecoul>  (446) 
-5.64129

>  <r_i_glide_erotb>  (446) 
0.95424

>  <r_i_glide_esite>  (446) 
-0.18121

>  <r_i_glide_emodel>  (446) 
-31.947

>  <r_i_glide_energy>  (446) 
-26.256

>  <r_i_glide_einternal>  (446) 
2.46056

>  <r_i_glide_intrahb_reward>  (446) 
-0

>  <i_i_glide_confnum>  (446) 
3

>  <i_i_glide_posenum>  (446) 
25

>  <r_i_glide_eff_state_penalty>  (446) 
0

>  <ligand_id>  (446) 
111

>  <original_smiles>  (446) 
Cn1ccnc1C1CCN(Cc2nnnn2C2CC2)C1

>  <smiles>  (446) 
[H]c1nc(C2([H])C([H])([H])C([H])([H])[N+]([H])(C([H])([H])c3nnnn3C3([H])C([H])([H])C3([H])[H])C2([H])[H])n(C([H])([H])[H])c1[H]

$$$$
111:2:2
     RDKit          3D

 40 43  0  0  1  0  0  0  0  0999 V2000
    1.4989    1.4757    6.5276 C   0  0  0  0  0  0  0  0  0  0  0  0
    0.5134    1.1999    5.4912 N   0  0  0  0  0  0  0  0  0  0  0  0
   -0.8562    1.3826    5.6099 C   0  0  0  0  0  0  0  0  0  0  0  0
   -1.4139    1.0373    4.4049 C   0  0  0  0  0  0  0  0  0  0  0  0
   -0.4028    0.6265    3.5394 N   0  0  0  0  0  0  0  0  0  0  0  0
    0.7206    0.7515    4.2369 C   0  0  0  0  0  0  0  0  0  0  0  0
    2.0779    0.4503    3.6502 C   0  0  2  0  0  0  0  0  0  0  0  0
    2.4924    1.3748    2.5008 C   0  0  0  0  0  0  0  0  0  0  0  0
    2.7959    0.4353    1.3334 C   0  0  0  0  0  0  0  0  0  0  0  0
    3.1453   -0.8639    1.9406 N   0  0  2  0  0  0  0  0  0  0  0  0
    3.1111   -2.0375    1.0284 C   0  0  0  0  0  0  0  0  0  0  0  0
    4.2927   -1.9147    0.1080 C   0  0  0  0  0  0  0  0  0  0  0  0
    5.5508   -1.8528    0.4959 N   0  0  0  0  0  0  0  0  0  0  0  0
    6.2504   -1.8635   -0.7009 N   0  0  0  0  0  0  0  0  0  0  0  0
    5.4563   -1.8777   -1.7226 N   0  0  0  0  0  0  0  0  0  0  0  0
    4.1922   -1.9377   -1.2328 N   0  0  0  0  0  0  0  0  0  0  0  0
    3.0607   -1.9349   -2.1223 C   0  0  0  0  0  0  0  0  0  0  0  0
    2.2310   -3.1962   -2.0752 C   0  0  0  0  0  0  0  0  0  0  0  0
    3.1020   -2.9205   -3.2836 C   0  0  0  0  0  0  0  0  0  0  0  0
    2.1930   -0.9607    3.0619 C   0  0  0  0  0  0  0  0  0  0  0  0
    0.9866    1.6971    7.4641 H   0  0  0  0  0  0  0  0  0  0  0  0
    2.1142    2.3330    6.2472 H   0  0  0  0  0  0  0  0  0  0  0  0
    2.1380    0.6067    6.6789 H   0  0  0  0  0  0  0  0  0  0  0  0
   -1.3193    1.7504    6.5160 H   0  0  0  0  0  0  0  0  0  0  0  0
   -2.4425    1.0383    4.0896 H   0  0  0  0  0  0  0  0  0  0  0  0
    2.8404    0.5404    4.4305 H   0  0  0  0  0  0  0  0  0  0  0  0
    1.7323    2.1127    2.2407 H   0  0  0  0  0  0  0  0  0  0  0  0
    3.3982    1.9025    2.7933 H   0  0  0  0  0  0  0  0  0  0  0  0
    1.8721    0.3094    0.7584 H   0  0  0  0  0  0  0  0  0  0  0  0
    3.6069    0.7908    0.6991 H   0  0  0  0  0  0  0  0  0  0  0  0
    3.2372   -2.9689    1.5822 H   0  0  0  0  0  0  0  0  0  0  0  0
    2.1850   -2.1047    0.4730 H   0  0  0  0  0  0  0  0  0  0  0  0
    2.6233   -0.9480   -2.2452 H   0  0  0  0  0  0  0  0  0  0  0  0
    2.5471   -3.9984   -1.4114 H   0  0  0  0  0  0  0  0  0  0  0  0
    1.1569   -3.0750   -2.1803 H   0  0  0  0  0  0  0  0  0  0  0  0
    2.5880   -2.6461   -4.2015 H   0  0  0  0  0  0  0  0  0  0  0  0
    3.9638   -3.5747   -3.4242 H   0  0  0  0  0  0  0  0  0  0  0  0
    2.5378   -1.6792    3.8046 H   0  0  0  0  0  0  0  0  0  0  0  0
    1.2306   -1.2868    2.6524 H   0  0  0  0  0  0  0  0  0  0  0  0
    4.0789   -0.7932    2.3322 H   0  0  0  0  0  0  0  0  0  0  0  0
  1  2  1  0
  1 21  1  0
  1 22  1  0
  1 23  1  0
  2  6  1  0
  2  3  1  0
  3  4  2  0
  3 24  1  0
  4  5  1  0
  4 25  1  0
  5  6  2  0
  6  7  1  0
  7 20  1  0
  7  8  1  0
  7 26  1  1
  8  9  1  0
  8 27  1  0
  8 28  1  0
  9 10  1  0
  9 29  1  0
  9 30  1  0
 10 11  1  0
 10 20  1  0
 10 40  1  1
 11 12  1  0
 11 31  1  0
 11 32  1  0
 12 16  1  0
 12 13  2  0
 13 14  1  0
 14 15  2  0
 15 16  1  0
 16 17  1  0
 17 19  1  0
 17 18  1  0
 17 33  1  0
 18 19  1  0
 18 34  1  0
 18 35  1  0
 19 36  1  0
 19 37  1  0
 20 38  1  0
 20 39  1  0
M  CHG  1  10   1
M  END
>  <i_m_ct_stereo_status>  (447) 
1

>  <s_m_source_file>  (447) 
/var/tmp/pbs.5076255.sched01/tmpgahbdy6u/1388ql836nh.sdf

>  <i_m_source_file_index>  (447) 
44

>  <i_lp_mmshare_version>  (447) 
48012

>  <i_f3d_flags>  (447) 
0

>  <s_epik_input>  (447) 
W0NIM11uMVtjSF1bY0hdbmMxW0NAQEhdMltDSDJdW0NIMl1OKFtDSDJdMilbQ0gyXWMzbm5ubjNbQ0hdNFtDSDJdW0NIMl00

>  <s_epik_cmdline>  (447) 
J2VwaWtfcHl0aG9uJywgJy1waHQnLCAnMi4wJywgJy1waCcsICc3LjAnLCAnLXRuJywgJzgnLCAnLW1hJywgJzIwMCcsICctaW1hZScsICc8aW5maWxlLm1hZT4nLCAnLW9tYWUnLCAnPG91dGZpbGUubWFlPic=

>  <r_epik_Ionization_Penalty>  (447) 
1.55269

>  <r_epik_Ionization_Penalty_Charging>  (447) 
1.55269

>  <r_epik_Ionization_Penalty_Neutral>  (447) 
9.23381e-12

>  <r_epik_State_Penalty>  (447) 
1.76992

>  <r_epik_Charging_Adjusted_Penalty>  (447) 
3.32261

>  <i_epik_Tot_Q>  (447) 
1

>  <i_epik_Tot_abs_Q>  (447) 
1

>  <s_lp_Force_Field>  (447) 
OPLS3e

>  <r_lp_Energy>  (447) 
8.0133

>  <b_lp_Chiralities_Consistent>  (447) 
1

>  <s_lp_Variant>  (447) 
111:0-3

>  <s_i_glide_gridfile>  (447) 
pfpi4k_grid

>  <i_i_glide_lignum>  (447) 
44

>  <i_i_glide_rotatable_bonds>  (447) 
4

>  <r_i_docking_score>  (447) 
-2.88249

>  <r_i_glide_ligand_efficiency>  (447) 
-0.144124

>  <r_i_glide_ligand_efficiency_sa>  (447) 
-0.391214

>  <r_i_glide_ligand_efficiency_ln>  (447) 
-0.721391

>  <r_i_glide_gscore>  (447) 
-2.88249

>  <r_i_glide_lipo>  (447) 
-0.2884

>  <r_i_glide_hbond>  (447) 
0

>  <r_i_glide_metal>  (447) 
-0

>  <r_i_glide_rewards>  (447) 
-1.53856

>  <r_i_glide_evdw>  (447) 
-21.8605

>  <r_i_glide_ecoul>  (447) 
-4.91719

>  <r_i_glide_erotb>  (447) 
0.95424

>  <r_i_glide_esite>  (447) 
-0.179164

>  <r_i_glide_emodel>  (447) 
-33.4055

>  <r_i_glide_energy>  (447) 
-26.7777

>  <r_i_glide_einternal>  (447) 
0.259068

>  <r_i_glide_intrahb_reward>  (447) 
-0

>  <i_i_glide_confnum>  (447) 
4

>  <i_i_glide_posenum>  (447) 
3

>  <r_i_glide_eff_state_penalty>  (447) 
0

>  <ligand_id>  (447) 
111

>  <original_smiles>  (447) 
Cn1ccnc1C1CCN(Cc2nnnn2C2CC2)C1

>  <smiles>  (447) 
[H]c1nc(C2([H])C([H])([H])C([H])([H])[N+]([H])(C([H])([H])c3nnnn3C3([H])C([H])([H])C3([H])[H])C2([H])[H])n(C([H])([H])[H])c1[H]

$$$$
112:0:0
     RDKit          3D

 20 22  0  0  1  0  0  0  0  0999 V2000
   -5.8419   -5.9377   -4.5441 C   0  0  0  0  0  0  0  0  0  0  0  0
   -6.5206   -4.7629   -4.3687 C   0  0  0  0  0  0  0  0  0  0  0  0
   -7.8132   -4.5992   -5.5199 S   0  0  0  0  0  0  0  0  0  0  0  0
   -7.4117   -6.1359   -6.2645 C   0  0  0  0  0  0  0  0  0  0  0  0
   -8.1783   -6.6382   -7.4101 C   0  0  0  0  0  0  0  0  0  0  0  0
   -7.8596   -7.8903   -8.0103 C   0  0  0  0  0  0  0  0  0  0  0  0
   -8.6118   -8.3296   -9.0750 C   0  0  0  0  0  0  0  0  0  0  0  0
   -9.6265   -7.5300   -9.4941 N   0  0  0  0  0  0  0  0  0  0  0  0
  -10.4840   -7.7493  -10.5207 N   0  0  0  0  0  0  0  0  0  0  0  0
  -11.2486   -6.6645  -10.4684 C   0  0  0  0  0  0  0  0  0  0  0  0
  -10.9247   -5.7378   -9.5189 N   0  0  0  0  0  0  0  0  0  0  0  0
   -9.9071   -6.3020   -8.8765 C   0  0  0  0  0  0  0  0  0  0  0  0
   -9.1733   -5.8590   -7.8405 N   0  0  0  0  0  0  0  0  0  0  0  0
   -6.3480   -6.7239   -5.6205 C   0  0  0  0  0  0  0  0  0  0  0  0
   -5.0081   -6.2642   -3.9423 H   0  0  0  0  0  0  0  0  0  0  0  0
   -6.3428   -3.9907   -3.6312 H   0  0  0  0  0  0  0  0  0  0  0  0
   -7.0435   -8.5029   -7.6445 H   0  0  0  0  0  0  0  0  0  0  0  0
   -8.4518   -9.2614   -9.6045 H   0  0  0  0  0  0  0  0  0  0  0  0
  -12.0605   -6.5205  -11.1649 H   0  0  0  0  0  0  0  0  0  0  0  0
   -5.9094   -7.6782   -5.8751 H   0  0  0  0  0  0  0  0  0  0  0  0
  1 14  1  0
  1  2  2  0
  1 15  1  0
  2  3  1  0
  2 16  1  0
  3  4  1  0
  4  5  1  0
  4 14  2  0
  5 13  2  0
  5  6  1  0
  6  7  2  0
  6 17  1  0
  7  8  1  0
  7 18  1  0
  8 12  1  0
  8  9  1  0
  9 10  2  0
 10 11  1  0
 10 19  1  0
 11 12  2  0
 12 13  1  0
 14 20  1  0
M  END
>  <i_m_ct_stereo_status>  (448) 
1

>  <s_m_source_file>  (448) 
/var/tmp/pbs.5076255.sched01/tmpgahbdy6u/1388ql836nh.sdf

>  <i_m_source_file_index>  (448) 
45

>  <i_lp_mmshare_version>  (448) 
48012

>  <i_f3d_flags>  (448) 
0

>  <s_epik_input>  (448) 
W2NIXTFbY0hdW2NIXXNjMS1jKFtjSF1bY0hdMiluYyhuMjMpbltjSF1uMw==

>  <s_epik_cmdline>  (448) 
J2VwaWtfcHl0aG9uJywgJy1waHQnLCAnMi4wJywgJy1waCcsICc3LjAnLCAnLXRuJywgJzgnLCAnLW1hJywgJzIwMCcsICctaW1hZScsICc8aW5maWxlLm1hZT4nLCAnLW9tYWUnLCAnPG91dGZpbGUubWFlPic=

>  <r_lp_tautomer_probability>  (448) 
1

>  <r_epik_Ionization_Penalty>  (448) 
8.00342e-08

>  <r_epik_Ionization_Penalty_Charging>  (448) 
0

>  <r_epik_Ionization_Penalty_Neutral>  (448) 
8.00342e-08

>  <r_epik_State_Penalty>  (448) 
-0

>  <r_epik_Charging_Adjusted_Penalty>  (448) 
0

>  <i_epik_Tot_Q>  (448) 
0

>  <i_epik_Tot_abs_Q>  (448) 
0

>  <s_lp_Force_Field>  (448) 
OPLS3e

>  <r_lp_Energy>  (448) 
16.2309

>  <b_lp_Chiralities_Consistent>  (448) 
1

>  <s_lp_Variant>  (448) 
112:0-1

>  <s_i_glide_gridfile>  (448) 
pfpi4k_grid

>  <i_i_glide_lignum>  (448) 
45

>  <i_i_glide_rotatable_bonds>  (448) 
1

>  <r_i_docking_score>  (448) 
-5.14086

>  <r_i_glide_ligand_efficiency>  (448) 
-0.367204

>  <r_i_glide_ligand_efficiency_sa>  (448) 
-0.885014

>  <r_i_glide_ligand_efficiency_ln>  (448) 
-1.41269

>  <r_i_glide_gscore>  (448) 
-5.14086

>  <r_i_glide_lipo>  (448) 
-1.94554

>  <r_i_glide_hbond>  (448) 
-0.0379979

>  <r_i_glide_metal>  (448) 
-0

>  <r_i_glide_rewards>  (448) 
-2.08486

>  <r_i_glide_evdw>  (448) 
-23.3624

>  <r_i_glide_ecoul>  (448) 
-1.82803

>  <r_i_glide_erotb>  (448) 
0.400829

>  <r_i_glide_esite>  (448) 
-0.030958

>  <r_i_glide_emodel>  (448) 
-33.6227

>  <r_i_glide_energy>  (448) 
-25.1904

>  <r_i_glide_einternal>  (448) 
2.3593e-05

>  <r_i_glide_intrahb_reward>  (448) 
-0

>  <i_i_glide_confnum>  (448) 
3

>  <i_i_glide_posenum>  (448) 
22

>  <r_i_glide_eff_state_penalty>  (448) 
0

>  <ligand_id>  (448) 
112

>  <original_smiles>  (448) 
c1csc(-c2ccn3ncnc3n2)c1

>  <smiles>  (448) 
[H]c1nc2nc(-c3sc([H])c([H])c3[H])c([H])c([H])n2n1

$$$$
112:0:1
     RDKit          3D

 20 22  0  0  1  0  0  0  0  0999 V2000
    3.1800   -1.4654   -3.3439 C   0  0  0  0  0  0  0  0  0  0  0  0
    4.1833   -0.7639   -2.7299 C   0  0  0  0  0  0  0  0  0  0  0  0
    4.7369   -1.5707   -1.2911 S   0  0  0  0  0  0  0  0  0  0  0  0
    3.5711   -2.8572   -1.5087 C   0  0  0  0  0  0  0  0  0  0  0  0
    3.5159   -3.9497   -0.5338 C   0  0  0  0  0  0  0  0  0  0  0  0
    4.6965   -4.4521    0.0865 C   0  0  0  0  0  0  0  0  0  0  0  0
    4.5905   -5.5161    0.9532 C   0  0  0  0  0  0  0  0  0  0  0  0
    3.3511   -6.0292    1.1587 N   0  0  0  0  0  0  0  0  0  0  0  0
    3.0026   -7.0618    1.9713 N   0  0  0  0  0  0  0  0  0  0  0  0
    1.6895   -7.1317    1.7777 C   0  0  0  0  0  0  0  0  0  0  0  0
    1.1536   -6.2211    0.9066 N   0  0  0  0  0  0  0  0  0  0  0  0
    2.2170   -5.5122    0.5183 C   0  0  0  0  0  0  0  0  0  0  0  0
    2.2999   -4.4607   -0.3177 N   0  0  0  0  0  0  0  0  0  0  0  0
    2.8306   -2.6645   -2.6509 C   0  0  0  0  0  0  0  0  0  0  0  0
    2.6698   -1.1475   -4.2413 H   0  0  0  0  0  0  0  0  0  0  0  0
    4.6007    0.1905   -3.0158 H   0  0  0  0  0  0  0  0  0  0  0  0
    5.6717   -4.0296   -0.1318 H   0  0  0  0  0  0  0  0  0  0  0  0
    5.4245   -5.9706    1.4839 H   0  0  0  0  0  0  0  0  0  0  0  0
    1.0914   -7.8643    2.3051 H   0  0  0  0  0  0  0  0  0  0  0  0
    2.0491   -3.3265   -3.0046 H   0  0  0  0  0  0  0  0  0  0  0  0
  1 14  1  0
  1  2  2  0
  1 15  1  0
  2  3  1  0
  2 16  1  0
  3  4  1  0
  4  5  1  0
  4 14  2  0
  5 13  2  0
  5  6  1  0
  6  7  2  0
  6 17  1  0
  7  8  1  0
  7 18  1  0
  8 12  1  0
  8  9  1  0
  9 10  2  0
 10 11  1  0
 10 19  1  0
 11 12  2  0
 12 13  1  0
 14 20  1  0
M  END
>  <i_m_ct_stereo_status>  (449) 
1

>  <s_m_source_file>  (449) 
/var/tmp/pbs.5076255.sched01/tmpgahbdy6u/1388ql836nh.sdf

>  <i_m_source_file_index>  (449) 
45

>  <i_lp_mmshare_version>  (449) 
48012

>  <i_f3d_flags>  (449) 
0

>  <s_epik_input>  (449) 
W2NIXTFbY0hdW2NIXXNjMS1jKFtjSF1bY0hdMiluYyhuMjMpbltjSF1uMw==

>  <s_epik_cmdline>  (449) 
J2VwaWtfcHl0aG9uJywgJy1waHQnLCAnMi4wJywgJy1waCcsICc3LjAnLCAnLXRuJywgJzgnLCAnLW1hJywgJzIwMCcsICctaW1hZScsICc8aW5maWxlLm1hZT4nLCAnLW9tYWUnLCAnPG91dGZpbGUubWFlPic=

>  <r_lp_tautomer_probability>  (449) 
1

>  <r_epik_Ionization_Penalty>  (449) 
8.00342e-08

>  <r_epik_Ionization_Penalty_Charging>  (449) 
0

>  <r_epik_Ionization_Penalty_Neutral>  (449) 
8.00342e-08

>  <r_epik_State_Penalty>  (449) 
-0

>  <r_epik_Charging_Adjusted_Penalty>  (449) 
0

>  <i_epik_Tot_Q>  (449) 
0

>  <i_epik_Tot_abs_Q>  (449) 
0

>  <s_lp_Force_Field>  (449) 
OPLS3e

>  <r_lp_Energy>  (449) 
16.2309

>  <b_lp_Chiralities_Consistent>  (449) 
1

>  <s_lp_Variant>  (449) 
112:0-1

>  <s_i_glide_gridfile>  (449) 
pfpi4k_grid

>  <i_i_glide_lignum>  (449) 
45

>  <i_i_glide_rotatable_bonds>  (449) 
1

>  <r_i_docking_score>  (449) 
-3.77457

>  <r_i_glide_ligand_efficiency>  (449) 
-0.269612

>  <r_i_glide_ligand_efficiency_sa>  (449) 
-0.649803

>  <r_i_glide_ligand_efficiency_ln>  (449) 
-1.03724

>  <r_i_glide_gscore>  (449) 
-3.77457

>  <r_i_glide_lipo>  (449) 
-0.283382

>  <r_i_glide_hbond>  (449) 
-0.16

>  <r_i_glide_metal>  (449) 
-0

>  <r_i_glide_rewards>  (449) 
-2.06589

>  <r_i_glide_evdw>  (449) 
-21.3729

>  <r_i_glide_ecoul>  (449) 
-3.41199

>  <r_i_glide_erotb>  (449) 
0.400829

>  <r_i_glide_esite>  (449) 
-0.0856769

>  <r_i_glide_emodel>  (449) 
-29.0935

>  <r_i_glide_energy>  (449) 
-24.7849

>  <r_i_glide_einternal>  (449) 
3.67534

>  <r_i_glide_intrahb_reward>  (449) 
-0

>  <i_i_glide_confnum>  (449) 
2

>  <i_i_glide_posenum>  (449) 
6

>  <r_i_glide_eff_state_penalty>  (449) 
0

>  <ligand_id>  (449) 
112

>  <original_smiles>  (449) 
c1csc(-c2ccn3ncnc3n2)c1

>  <smiles>  (449) 
[H]c1nc2nc(-c3sc([H])c([H])c3[H])c([H])c([H])n2n1

$$$$
112:0:2
     RDKit          3D

 20 22  0  0  1  0  0  0  0  0999 V2000
    2.9106   -0.9359   -4.1876 C   0  0  0  0  0  0  0  0  0  0  0  0
    3.8748   -0.0952   -3.7372 C   0  0  0  0  0  0  0  0  0  0  0  0
    4.6138   -0.7131   -2.2942 S   0  0  0  0  0  0  0  0  0  0  0  0
    3.5790   -2.1136   -2.2881 C   0  0  0  0  0  0  0  0  0  0  0  0
    3.6885   -3.0969   -1.2073 C   0  0  0  0  0  0  0  0  0  0  0  0
    2.5569   -3.8381   -0.7814 C   0  0  0  0  0  0  0  0  0  0  0  0
    2.7116   -4.7816    0.2074 C   0  0  0  0  0  0  0  0  0  0  0  0
    3.9555   -4.9385    0.7267 N   0  0  0  0  0  0  0  0  0  0  0  0
    4.3392   -5.7973    1.7011 N   0  0  0  0  0  0  0  0  0  0  0  0
    5.6323   -5.5210    1.8080 C   0  0  0  0  0  0  0  0  0  0  0  0
    6.1195   -4.5521    0.9779 N   0  0  0  0  0  0  0  0  0  0  0  0
    5.0466   -4.1768    0.2872 C   0  0  0  0  0  0  0  0  0  0  0  0
    4.9053   -3.2466   -0.6771 N   0  0  0  0  0  0  0  0  0  0  0  0
    2.7219   -2.0859   -3.3595 C   0  0  0  0  0  0  0  0  0  0  0  0
    2.2971   -0.7194   -5.0485 H   0  0  0  0  0  0  0  0  0  0  0  0
    4.1712    0.8581   -4.1525 H   0  0  0  0  0  0  0  0  0  0  0  0
    1.5940   -3.6747   -1.2544 H   0  0  0  0  0  0  0  0  0  0  0  0
    1.9291   -5.4213    0.5978 H   0  0  0  0  0  0  0  0  0  0  0  0
    6.2510   -6.0436    2.5252 H   0  0  0  0  0  0  0  0  0  0  0  0
    1.9586   -2.8258   -3.5550 H   0  0  0  0  0  0  0  0  0  0  0  0
  1 14  1  0
  1  2  2  0
  1 15  1  0
  2  3  1  0
  2 16  1  0
  3  4  1  0
  4  5  1  0
  4 14  2  0
  5 13  2  0
  5  6  1  0
  6  7  2  0
  6 17  1  0
  7  8  1  0
  7 18  1  0
  8 12  1  0
  8  9  1  0
  9 10  2  0
 10 11  1  0
 10 19  1  0
 11 12  2  0
 12 13  1  0
 14 20  1  0
M  END
>  <i_m_ct_stereo_status>  (450) 
1

>  <s_m_source_file>  (450) 
/var/tmp/pbs.5076255.sched01/tmpgahbdy6u/1388ql836nh.sdf

>  <i_m_source_file_index>  (450) 
45

>  <i_lp_mmshare_version>  (450) 
48012

>  <i_f3d_flags>  (450) 
0

>  <s_epik_input>  (450) 
W2NIXTFbY0hdW2NIXXNjMS1jKFtjSF1bY0hdMiluYyhuMjMpbltjSF1uMw==

>  <s_epik_cmdline>  (450) 
J2VwaWtfcHl0aG9uJywgJy1waHQnLCAnMi4wJywgJy1waCcsICc3LjAnLCAnLXRuJywgJzgnLCAnLW1hJywgJzIwMCcsICctaW1hZScsICc8aW5maWxlLm1hZT4nLCAnLW9tYWUnLCAnPG91dGZpbGUubWFlPic=

>  <r_lp_tautomer_probability>  (450) 
1

>  <r_epik_Ionization_Penalty>  (450) 
8.00342e-08

>  <r_epik_Ionization_Penalty_Charging>  (450) 
0

>  <r_epik_Ionization_Penalty_Neutral>  (450) 
8.00342e-08

>  <r_epik_State_Penalty>  (450) 
-0

>  <r_epik_Charging_Adjusted_Penalty>  (450) 
0

>  <i_epik_Tot_Q>  (450) 
0

>  <i_epik_Tot_abs_Q>  (450) 
0

>  <s_lp_Force_Field>  (450) 
OPLS3e

>  <r_lp_Energy>  (450) 
16.2309

>  <b_lp_Chiralities_Consistent>  (450) 
1

>  <s_lp_Variant>  (450) 
112:0-1

>  <s_i_glide_gridfile>  (450) 
pfpi4k_grid

>  <i_i_glide_lignum>  (450) 
45

>  <i_i_glide_rotatable_bonds>  (450) 
1

>  <r_i_docking_score>  (450) 
-3.20777

>  <r_i_glide_ligand_efficiency>  (450) 
-0.229126

>  <r_i_glide_ligand_efficiency_sa>  (450) 
-0.552227

>  <r_i_glide_ligand_efficiency_ln>  (450) 
-0.881484

>  <r_i_glide_gscore>  (450) 
-3.20777

>  <r_i_glide_lipo>  (450) 
-0.380168

>  <r_i_glide_hbond>  (450) 
0

>  <r_i_glide_metal>  (450) 
-0

>  <r_i_glide_rewards>  (450) 
-2.18624

>  <r_i_glide_evdw>  (450) 
-18.8937

>  <r_i_glide_ecoul>  (450) 
-0.650046

>  <r_i_glide_erotb>  (450) 
0.400829

>  <r_i_glide_esite>  (450) 
0

>  <r_i_glide_emodel>  (450) 
-24.0744

>  <r_i_glide_energy>  (450) 
-19.5437

>  <r_i_glide_einternal>  (450) 
1.26385

>  <r_i_glide_intrahb_reward>  (450) 
-0

>  <i_i_glide_confnum>  (450) 
3

>  <i_i_glide_posenum>  (450) 
14

>  <r_i_glide_eff_state_penalty>  (450) 
0

>  <ligand_id>  (450) 
112

>  <original_smiles>  (450) 
c1csc(-c2ccn3ncnc3n2)c1

>  <smiles>  (450) 
[H]c1nc2nc(-c3sc([H])c([H])c3[H])c([H])c([H])n2n1

$$$$
113:0:0
     RDKit          3D

 80 85  0  0  1  0  0  0  0  0999 V2000
    4.8843   -3.2859    2.8063 C   0  0  0  0  0  0  0  0  0  0  0  0
    4.0124   -2.2921    3.6051 C   0  0  0  0  0  0  0  0  0  0  0  0
    4.6484   -0.8844    3.4169 C   0  0  0  0  0  0  0  0  0  0  0  0
    2.6186   -2.2130    2.9322 C   0  0  0  0  0  0  0  0  0  0  0  0
    2.5805   -2.0712    1.7201 O   0  0  0  0  0  0  0  0  0  0  0  0
    1.4135   -2.3138    3.7467 C   0  0  0  0  0  0  0  0  0  0  0  0
    1.4415   -2.8748    4.9689 C   0  0  0  0  0  0  0  0  0  0  0  0
    2.6763   -3.4536    5.6576 C   0  0  1  0  0  0  0  0  0  0  0  0
    2.4568   -3.1717    7.1656 C   0  0  0  0  0  0  0  0  0  0  0  0
    2.7401   -5.0164    5.3967 C   0  0  1  0  0  0  0  0  0  0  0  0
    3.7775   -5.7678    6.2752 C   0  0  2  0  0  0  0  0  0  0  0  0
    5.1332   -5.2481    6.7272 C   0  0  2  0  0  0  0  0  0  0  0  0
    5.8981   -4.2924    5.8359 C   0  0  0  0  0  0  0  0  0  0  0  0
    5.2964   -2.8805    5.8577 C   0  0  0  0  0  0  0  0  0  0  0  0
    3.9270   -2.6262    5.1447 C   0  0  1  0  0  0  0  0  0  0  0  0
    5.5476   -6.7226    6.8621 C   0  0  1  0  0  0  0  0  0  0  0  0
    5.5037   -7.2940    8.1538 O   0  0  0  0  0  0  0  0  0  0  0  0
    4.4500   -7.0979    5.8156 C   0  0  2  0  0  0  0  0  0  0  0  0
    5.1191   -7.1604    4.4158 C   0  0  0  0  0  0  0  0  0  0  0  0
    3.6029   -8.3990    6.0291 C   0  0  1  0  0  0  0  0  0  0  0  0
    2.9308   -8.3031    7.2650 O   0  0  0  0  0  0  0  0  0  0  0  0
    2.5495   -8.8742    4.9298 C   0  0  1  0  0  0  0  0  0  0  0  0
    3.2745   -9.9073    4.2951 O   0  0  0  0  0  0  0  0  0  0  0  0
    1.2647   -9.5952    5.4821 C   0  0  0  0  0  0  0  0  0  0  0  0
   -0.0396   -8.7441    5.4638 C   0  0  0  0  0  0  0  0  0  0  0  0
   -0.1672   -7.7319    4.2808 C   0  0  2  0  0  0  0  0  0  0  0  0
   -0.1911   -8.4719    2.9034 C   0  0  0  0  0  0  0  0  0  0  0  0
   -0.9344   -9.8332    2.8840 C   0  0  0  0  0  0  0  0  0  0  0  0
   -0.9505   -7.6611    1.8201 C   0  0  0  0  0  0  0  0  0  0  0  0
    1.3308   -8.6663    2.6411 C   0  0  1  0  0  0  0  0  0  0  0  0
    1.7035   -8.2173    1.3592 O   0  0  0  0  0  0  0  0  0  0  0  0
    2.1232   -7.8994    3.7728 C   0  0  1  0  0  0  0  0  0  0  0  0
    1.1019   -6.8208    4.2214 C   0  0  1  0  0  0  0  0  0  0  0  0
    0.9653   -5.8830    3.1685 O   0  0  0  0  0  0  0  0  0  0  0  0
    1.3602   -5.8052    5.4071 C   0  0  1  0  0  0  0  0  0  0  0  0
    1.0379   -6.2553    6.6978 O   0  0  0  0  0  0  0  0  0  0  0  0
    5.9276   -3.2480    3.1132 H   0  0  0  0  0  0  0  0  0  0  0  0
    4.8862   -3.0667    1.7396 H   0  0  0  0  0  0  0  0  0  0  0  0
    4.5306   -4.3081    2.9150 H   0  0  0  0  0  0  0  0  0  0  0  0
    5.6786   -0.8159    3.7752 H   0  0  0  0  0  0  0  0  0  0  0  0
    4.0744   -0.1121    3.9365 H   0  0  0  0  0  0  0  0  0  0  0  0
    4.6720   -0.5867    2.3677 H   0  0  0  0  0  0  0  0  0  0  0  0
    0.5065   -1.9278    3.3155 H   0  0  0  0  0  0  0  0  0  0  0  0
    0.5298   -2.9036    5.5326 H   0  0  0  0  0  0  0  0  0  0  0  0
    3.2977   -3.4716    7.7928 H   0  0  0  0  0  0  0  0  0  0  0  0
    1.5748   -3.6947    7.5478 H   0  0  0  0  0  0  0  0  0  0  0  0
    2.2956   -2.1080    7.3496 H   0  0  0  0  0  0  0  0  0  0  0  0
    3.0937   -5.0784    4.3784 H   0  0  0  0  0  0  0  0  0  0  0  0
    3.3292   -5.9325    7.2603 H   0  0  0  0  0  0  0  0  0  0  0  0
    5.0492   -4.8485    7.7388 H   0  0  0  0  0  0  0  0  0  0  0  0
    6.9297   -4.2383    6.1734 H   0  0  0  0  0  0  0  0  0  0  0  0
    5.9494   -4.6679    4.8248 H   0  0  0  0  0  0  0  0  0  0  0  0
    5.2423   -2.5459    6.8903 H   0  0  0  0  0  0  0  0  0  0  0  0
    6.0397   -2.2225    5.4129 H   0  0  0  0  0  0  0  0  0  0  0  0
    3.6931   -1.6438    5.5594 H   0  0  0  0  0  0  0  0  0  0  0  0
    6.5614   -6.8501    6.4814 H   0  0  0  0  0  0  0  0  0  0  0  0
    4.5884   -7.3083    8.4017 H   0  0  0  0  0  0  0  0  0  0  0  0
    5.0475   -8.1368    3.9366 H   0  0  0  0  0  0  0  0  0  0  0  0
    6.1838   -6.9407    4.4362 H   0  0  0  0  0  0  0  0  0  0  0  0
    4.7148   -6.4107    3.7385 H   0  0  0  0  0  0  0  0  0  0  0  0
    4.3111   -9.2076    6.2007 H   0  0  0  0  0  0  0  0  0  0  0  0
    2.6554   -9.1859    7.5121 H   0  0  0  0  0  0  0  0  0  0  0  0
    3.3574  -10.6317    4.9052 H   0  0  0  0  0  0  0  0  0  0  0  0
    1.0907  -10.4916    4.8907 H   0  0  0  0  0  0  0  0  0  0  0  0
    1.4054  -10.0275    6.4687 H   0  0  0  0  0  0  0  0  0  0  0  0
   -0.8854   -9.4285    5.4594 H   0  0  0  0  0  0  0  0  0  0  0  0
   -0.1712   -8.2532    6.4231 H   0  0  0  0  0  0  0  0  0  0  0  0
   -1.0716   -7.1406    4.4119 H   0  0  0  0  0  0  0  0  0  0  0  0
   -0.9779  -10.2481    1.8783 H   0  0  0  0  0  0  0  0  0  0  0  0
   -1.9635   -9.7158    3.2265 H   0  0  0  0  0  0  0  0  0  0  0  0
   -0.4689  -10.5962    3.4933 H   0  0  0  0  0  0  0  0  0  0  0  0
   -1.0464   -8.2314    0.8967 H   0  0  0  0  0  0  0  0  0  0  0  0
   -0.4942   -6.7263    1.5204 H   0  0  0  0  0  0  0  0  0  0  0  0
   -1.9573   -7.4387    2.1672 H   0  0  0  0  0  0  0  0  0  0  0  0
    1.5665   -9.7300    2.6240 H   0  0  0  0  0  0  0  0  0  0  0  0
    1.2393   -8.7755    0.7383 H   0  0  0  0  0  0  0  0  0  0  0  0
    2.9727   -7.4419    3.2813 H   0  0  0  0  0  0  0  0  0  0  0  0
    1.7995   -5.4394    3.0569 H   0  0  0  0  0  0  0  0  0  0  0  0
    0.5451   -5.0969    5.2758 H   0  0  0  0  0  0  0  0  0  0  0  0
    1.6221   -6.9835    6.9184 H   0  0  0  0  0  0  0  0  0  0  0  0
  1  2  1  0
  1 37  1  0
  1 38  1  0
  1 39  1  0
  2 15  1  0
  2  3  1  0
  2  4  1  0
  3 40  1  0
  3 41  1  0
  3 42  1  0
  4  5  2  0
  4  6  1  0
  6  7  2  0
  6 43  1  0
  7  8  1  0
  7 44  1  0
  8 15  1  0
  8  9  1  1
  8 10  1  0
  9 45  1  0
  9 46  1  0
  9 47  1  0
 10 35  1  0
 10 11  1  0
 10 48  1  6
 11 18  1  0
 11 12  1  0
 11 49  1  1
 12 13  1  0
 12 16  1  0
 12 50  1  1
 13 14  1  0
 13 51  1  0
 13 52  1  0
 14 15  1  0
 14 53  1  0
 14 54  1  0
 15 55  1  1
 16 17  1  0
 16 18  1  0
 16 56  1  6
 17 57  1  0
 18 19  1  6
 18 20  1  0
 19 58  1  0
 19 59  1  0
 19 60  1  0
 20 21  1  0
 20 22  1  0
 20 61  1  1
 21 62  1  0
 22 32  1  0
 22 23  1  6
 22 24  1  0
 23 63  1  0
 24 25  1  0
 24 64  1  0
 24 65  1  0
 25 26  1  0
 25 66  1  0
 25 67  1  0
 26 33  1  0
 26 27  1  0
 26 68  1  1
 27 28  1  0
 27 29  1  0
 27 30  1  0
 28 69  1  0
 28 70  1  0
 28 71  1  0
 29 72  1  0
 29 73  1  0
 29 74  1  0
 30 31  1  0
 30 32  1  0
 30 75  1  6
 31 76  1  0
 32 33  1  0
 32 77  1  6
 33 34  1  6
 33 35  1  0
 34 78  1  0
 35 36  1  0
 35 79  1  6
 36 80  1  0
M  END
>  <i_m_ct_stereo_status>  (451) 
1

>  <s_m_source_file>  (451) 
/var/tmp/pbs.5076255.sched01/tmpgahbdy6u/1388ql836nh.sdf

>  <i_m_source_file_index>  (451) 
46

>  <i_lp_mmshare_version>  (451) 
48012

>  <i_f3d_flags>  (451) 
0

>  <s_epik_input>  (451) 
W0NIXTE9W0NIXUMoPU8pQyhbQ0gzXSkoW0NIM10pW0NAQEhdMltDSDJdW0NIMl1bQ0BASF0oW0NASF0zW0NAQEhdNFtDQF0xMltDSDNdKVtDQEBIXShbT0hdKVtDQEBdMyhbQ0gzXSlbQ0BASF0oW09IXSlbQ0BdNShbT0hdKVtDQEBIXTZbQ0BdKFtPSF0pKFtDQEhdNFtPSF0pW0NASF0oW0NIMl1bQ0gyXTUpQyhbQ0gzXSkoW0NIM10pW0NASF02W09IXQ==

>  <s_epik_cmdline>  (451) 
J2VwaWtfcHl0aG9uJywgJy1waHQnLCAnMi4wJywgJy1waCcsICc3LjAnLCAnLXRuJywgJzgnLCAnLW1hJywgJzIwMCcsICctaW1hZScsICc8aW5maWxlLm1hZT4nLCAnLW9tYWUnLCAnPG91dGZpbGUubWFlPic=

>  <r_lp_tautomer_probability>  (451) 
1

>  <r_epik_Ionization_Penalty>  (451) 
4.07978e-06

>  <r_epik_Ionization_Penalty_Charging>  (451) 
0

>  <r_epik_Ionization_Penalty_Neutral>  (451) 
4.07978e-06

>  <r_epik_State_Penalty>  (451) 
-0

>  <r_epik_Charging_Adjusted_Penalty>  (451) 
0

>  <i_epik_Tot_Q>  (451) 
0

>  <i_epik_Tot_abs_Q>  (451) 
0

>  <s_lp_Force_Field>  (451) 
OPLS3e

>  <r_lp_Energy>  (451) 
131.917

>  <b_lp_Chiralities_Consistent>  (451) 
1

>  <s_lp_Variant>  (451) 
113:0-1

>  <s_i_glide_gridfile>  (451) 
pfpi4k_grid

>  <i_i_glide_lignum>  (451) 
46

>  <i_i_glide_rotatable_bonds>  (451) 
6

>  <r_i_docking_score>  (451) 
-2.8278

>  <r_i_glide_ligand_efficiency>  (451) 
-0.0785501

>  <r_i_glide_ligand_efficiency_sa>  (451) 
-0.259367

>  <r_i_glide_ligand_efficiency_ln>  (451) 
-0.616951

>  <r_i_glide_gscore>  (451) 
-2.8278

>  <r_i_glide_lipo>  (451) 
-0.160678

>  <r_i_glide_hbond>  (451) 
0

>  <r_i_glide_metal>  (451) 
-0

>  <r_i_glide_rewards>  (451) 
-1

>  <r_i_glide_evdw>  (451) 
-19.2099

>  <r_i_glide_ecoul>  (451) 
-4.69071

>  <r_i_glide_erotb>  (451) 
0

>  <r_i_glide_esite>  (451) 
-0.00302626

>  <r_i_glide_emodel>  (451) 
-38.0972

>  <r_i_glide_energy>  (451) 
-23.9006

>  <r_i_glide_einternal>  (451) 
0.865889

>  <r_i_glide_intrahb_reward>  (451) 
-1

>  <i_i_glide_confnum>  (451) 
1

>  <i_i_glide_posenum>  (451) 
9

>  <r_i_glide_eff_state_penalty>  (451) 
0

>  <ligand_id>  (451) 
113

>  <original_smiles>  (451) 
CC1(C)C(=O)C=CC2(C)C3C4C(CCC12)C(O)C4(C)C(O)C1(O)CCC2C(C)(C)C(O)C1C2(O)C3O

>  <smiles>  (451) 
[H]OC1([H])C2([H])C3([H])C([H])(C([H])([H])C([H])([H])C4([H])C(C([H])([H])[H])(C([H])([H])[H])C(=O)C([H])=C([H])C24C([H])([H])[H])C([H])(O[H])C3(C([H])([H])[H])C([H])(O[H])C2(O[H])C([H])([H])C([H])([H])C3([H])C1(O[H])C2([H])C([H])(O[H])C3(C([H])([H])[H])C([H])([H])[H]

$$$$
113:0:1
     RDKit          3D

 80 85  0  0  1  0  0  0  0  0999 V2000
   -0.0078   -6.1551    4.9908 C   0  0  0  0  0  0  0  0  0  0  0  0
    0.0577   -7.5516    4.3511 C   0  0  0  0  0  0  0  0  0  0  0  0
   -1.0522   -8.4046    4.9824 C   0  0  0  0  0  0  0  0  0  0  0  0
   -0.3822   -7.4463    2.8812 C   0  0  0  0  0  0  0  0  0  0  0  0
   -1.4232   -6.8806    2.6268 O   0  0  0  0  0  0  0  0  0  0  0  0
    0.4014   -8.0368    1.8275 C   0  0  0  0  0  0  0  0  0  0  0  0
    1.6774   -8.4196    2.0182 C   0  0  0  0  0  0  0  0  0  0  0  0
    2.4512   -8.2110    3.3024 C   0  0  1  0  0  0  0  0  0  0  0  0
    3.4279   -9.4114    3.3651 C   0  0  0  0  0  0  0  0  0  0  0  0
    3.2372   -6.8526    3.2058 C   0  0  1  0  0  0  0  0  0  0  0  0
    4.2737   -6.6787    4.3269 C   0  0  2  0  0  0  0  0  0  0  0  0
    4.1829   -7.1208    5.7749 C   0  0  2  0  0  0  0  0  0  0  0  0
    2.8237   -7.1525    6.4428 C   0  0  0  0  0  0  0  0  0  0  0  0
    1.9816   -8.3320    5.9588 C   0  0  0  0  0  0  0  0  0  0  0  0
    1.4234   -8.2963    4.5043 C   0  0  1  0  0  0  0  0  0  0  0  0
    5.1901   -5.9991    6.0806 C   0  0  1  0  0  0  0  0  0  0  0  0
    6.5563   -6.3456    6.1950 O   0  0  0  0  0  0  0  0  0  0  0  0
    4.6903   -5.2624    4.7992 C   0  0  2  0  0  0  0  0  0  0  0  0
    3.6371   -4.2135    5.2153 C   0  0  0  0  0  0  0  0  0  0  0  0
    5.7341   -4.5797    3.8965 C   0  0  1  0  0  0  0  0  0  0  0  0
    6.6568   -5.5429    3.4523 O   0  0  0  0  0  0  0  0  0  0  0  0
    5.3404   -3.6649    2.6588 C   0  0  1  0  0  0  0  0  0  0  0  0
    5.4210   -2.3658    3.2293 O   0  0  0  0  0  0  0  0  0  0  0  0
    6.3667   -3.6676    1.4640 C   0  0  0  0  0  0  0  0  0  0  0  0
    5.9504   -4.5064    0.2145 C   0  0  0  0  0  0  0  0  0  0  0  0
    4.4107   -4.5658   -0.0455 C   0  0  2  0  0  0  0  0  0  0  0  0
    3.8469   -3.1445   -0.3775 C   0  0  0  0  0  0  0  0  0  0  0  0
    4.7876   -2.2218   -1.1985 C   0  0  0  0  0  0  0  0  0  0  0  0
    2.5860   -3.2385   -1.2678 C   0  0  0  0  0  0  0  0  0  0  0  0
    3.6184   -2.5790    1.0519 C   0  0  1  0  0  0  0  0  0  0  0  0
    2.3138   -2.0662    1.2742 O   0  0  0  0  0  0  0  0  0  0  0  0
    3.8956   -3.7431    2.0856 C   0  0  1  0  0  0  0  0  0  0  0  0
    3.6654   -5.0154    1.2489 C   0  0  1  0  0  0  0  0  0  0  0  0
    2.2697   -5.0799    1.0283 O   0  0  0  0  0  0  0  0  0  0  0  0
    3.8759   -6.4907    1.7896 C   0  0  1  0  0  0  0  0  0  0  0  0
    5.1884   -7.0200    1.6775 O   0  0  0  0  0  0  0  0  0  0  0  0
    0.0967   -6.2074    6.0818 H   0  0  0  0  0  0  0  0  0  0  0  0
   -0.9780   -5.6820    4.8131 H   0  0  0  0  0  0  0  0  0  0  0  0
    0.7513   -5.4962    4.5812 H   0  0  0  0  0  0  0  0  0  0  0  0
   -0.8970   -8.6518    6.0380 H   0  0  0  0  0  0  0  0  0  0  0  0
   -1.0828   -9.3516    4.4479 H   0  0  0  0  0  0  0  0  0  0  0  0
   -2.0421   -7.9433    4.8847 H   0  0  0  0  0  0  0  0  0  0  0  0
   -0.1148   -8.2087    0.9072 H   0  0  0  0  0  0  0  0  0  0  0  0
    2.1907   -8.9133    1.2189 H   0  0  0  0  0  0  0  0  0  0  0  0
    4.0166   -9.4413    4.2779 H   0  0  0  0  0  0  0  0  0  0  0  0
    4.1173   -9.3978    2.5195 H   0  0  0  0  0  0  0  0  0  0  0  0
    2.8782  -10.3526    3.3054 H   0  0  0  0  0  0  0  0  0  0  0  0
    2.4707   -6.1084    3.3554 H   0  0  0  0  0  0  0  0  0  0  0  0
    5.1303   -7.2825    4.0771 H   0  0  0  0  0  0  0  0  0  0  0  0
    4.7045   -8.0670    5.8864 H   0  0  0  0  0  0  0  0  0  0  0  0
    2.9515   -7.2287    7.5224 H   0  0  0  0  0  0  0  0  0  0  0  0
    2.2952   -6.2207    6.2761 H   0  0  0  0  0  0  0  0  0  0  0  0
    2.5546   -9.2553    6.0965 H   0  0  0  0  0  0  0  0  0  0  0  0
    1.1531   -8.4255    6.6475 H   0  0  0  0  0  0  0  0  0  0  0  0
    1.1049   -9.3350    4.4095 H   0  0  0  0  0  0  0  0  0  0  0  0
    4.9002   -5.4915    6.9934 H   0  0  0  0  0  0  0  0  0  0  0  0
    6.7332   -7.0549    5.5843 H   0  0  0  0  0  0  0  0  0  0  0  0
    3.9381   -3.1884    5.0016 H   0  0  0  0  0  0  0  0  0  0  0  0
    3.4426   -4.2086    6.2826 H   0  0  0  0  0  0  0  0  0  0  0  0
    2.6860   -4.4089    4.7477 H   0  0  0  0  0  0  0  0  0  0  0  0
    6.2218   -3.9651    4.6373 H   0  0  0  0  0  0  0  0  0  0  0  0
    7.1935   -5.7635    4.2142 H   0  0  0  0  0  0  0  0  0  0  0  0
    5.2702   -1.7329    2.5432 H   0  0  0  0  0  0  0  0  0  0  0  0
    6.5381   -2.6330    1.1483 H   0  0  0  0  0  0  0  0  0  0  0  0
    7.3690   -3.9675    1.7488 H   0  0  0  0  0  0  0  0  0  0  0  0
    6.4559   -4.1192   -0.6700 H   0  0  0  0  0  0  0  0  0  0  0  0
    6.3607   -5.5093    0.2840 H   0  0  0  0  0  0  0  0  0  0  0  0
    4.2221   -5.2552   -0.8707 H   0  0  0  0  0  0  0  0  0  0  0  0
    4.2938   -1.2815   -1.4383 H   0  0  0  0  0  0  0  0  0  0  0  0
    5.0632   -2.6905   -2.1418 H   0  0  0  0  0  0  0  0  0  0  0  0
    5.7056   -1.9416   -0.6857 H   0  0  0  0  0  0  0  0  0  0  0  0
    2.2859   -2.2576   -1.6357 H   0  0  0  0  0  0  0  0  0  0  0  0
    1.7092   -3.6480   -0.7904 H   0  0  0  0  0  0  0  0  0  0  0  0
    2.7777   -3.8296   -2.1575 H   0  0  0  0  0  0  0  0  0  0  0  0
    4.2772   -1.7187    1.1951 H   0  0  0  0  0  0  0  0  0  0  0  0
    2.0335   -1.5431    0.5318 H   0  0  0  0  0  0  0  0  0  0  0  0
    3.1593   -3.6464    2.8726 H   0  0  0  0  0  0  0  0  0  0  0  0
    1.8646   -5.2640    1.8586 H   0  0  0  0  0  0  0  0  0  0  0  0
    3.4013   -7.0705    1.0062 H   0  0  0  0  0  0  0  0  0  0  0  0
    5.7554   -6.5329    2.2713 H   0  0  0  0  0  0  0  0  0  0  0  0
  1  2  1  0
  1 37  1  0
  1 38  1  0
  1 39  1  0
  2 15  1  0
  2  3  1  0
  2  4  1  0
  3 40  1  0
  3 41  1  0
  3 42  1  0
  4  5  2  0
  4  6  1  0
  6  7  2  0
  6 43  1  0
  7  8  1  0
  7 44  1  0
  8 15  1  0
  8  9  1  1
  8 10  1  0
  9 45  1  0
  9 46  1  0
  9 47  1  0
 10 35  1  0
 10 11  1  0
 10 48  1  1
 11 18  1  0
 11 12  1  0
 11 49  1  6
 12 13  1  0
 12 16  1  0
 12 50  1  6
 13 14  1  0
 13 51  1  0
 13 52  1  0
 14 15  1  0
 14 53  1  0
 14 54  1  0
 15 55  1  6
 16 17  1  0
 16 18  1  0
 16 56  1  1
 17 57  1  0
 18 19  1  1
 18 20  1  0
 19 58  1  0
 19 59  1  0
 19 60  1  0
 20 21  1  0
 20 22  1  0
 20 61  1  1
 21 62  1  0
 22 32  1  0
 22 23  1  1
 22 24  1  0
 23 63  1  0
 24 25  1  0
 24 64  1  0
 24 65  1  0
 25 26  1  0
 25 66  1  0
 25 67  1  0
 26 33  1  0
 26 27  1  0
 26 68  1  6
 27 28  1  0
 27 29  1  0
 27 30  1  0
 28 69  1  0
 28 70  1  0
 28 71  1  0
 29 72  1  0
 29 73  1  0
 29 74  1  0
 30 31  1  0
 30 32  1  0
 30 75  1  1
 31 76  1  0
 32 33  1  0
 32 77  1  1
 33 34  1  6
 33 35  1  0
 34 78  1  0
 35 36  1  0
 35 79  1  6
 36 80  1  0
M  END
>  <i_m_ct_stereo_status>  (452) 
1

>  <s_m_source_file>  (452) 
/var/tmp/pbs.5076255.sched01/tmpgahbdy6u/1388ql836nh.sdf

>  <i_m_source_file_index>  (452) 
46

>  <i_lp_mmshare_version>  (452) 
48012

>  <i_f3d_flags>  (452) 
0

>  <s_epik_input>  (452) 
W0NIXTE9W0NIXUMoPU8pQyhbQ0gzXSkoW0NIM10pW0NAQEhdMltDSDJdW0NIMl1bQ0BASF0oW0NASF0zW0NAQEhdNFtDQF0xMltDSDNdKVtDQEBIXShbT0hdKVtDQEBdMyhbQ0gzXSlbQ0BASF0oW09IXSlbQ0BdNShbT0hdKVtDQEBIXTZbQ0BdKFtPSF0pKFtDQEhdNFtPSF0pW0NASF0oW0NIMl1bQ0gyXTUpQyhbQ0gzXSkoW0NIM10pW0NASF02W09IXQ==

>  <s_epik_cmdline>  (452) 
J2VwaWtfcHl0aG9uJywgJy1waHQnLCAnMi4wJywgJy1waCcsICc3LjAnLCAnLXRuJywgJzgnLCAnLW1hJywgJzIwMCcsICctaW1hZScsICc8aW5maWxlLm1hZT4nLCAnLW9tYWUnLCAnPG91dGZpbGUubWFlPic=

>  <r_lp_tautomer_probability>  (452) 
1

>  <r_epik_Ionization_Penalty>  (452) 
4.07978e-06

>  <r_epik_Ionization_Penalty_Charging>  (452) 
0

>  <r_epik_Ionization_Penalty_Neutral>  (452) 
4.07978e-06

>  <r_epik_State_Penalty>  (452) 
-0

>  <r_epik_Charging_Adjusted_Penalty>  (452) 
0

>  <i_epik_Tot_Q>  (452) 
0

>  <i_epik_Tot_abs_Q>  (452) 
0

>  <s_lp_Force_Field>  (452) 
OPLS3e

>  <r_lp_Energy>  (452) 
131.917

>  <b_lp_Chiralities_Consistent>  (452) 
1

>  <s_lp_Variant>  (452) 
113:0-1

>  <s_i_glide_gridfile>  (452) 
pfpi4k_grid

>  <i_i_glide_lignum>  (452) 
46

>  <i_i_glide_rotatable_bonds>  (452) 
6

>  <r_i_docking_score>  (452) 
-2.81071

>  <r_i_glide_ligand_efficiency>  (452) 
-0.0780753

>  <r_i_glide_ligand_efficiency_sa>  (452) 
-0.257799

>  <r_i_glide_ligand_efficiency_ln>  (452) 
-0.613221

>  <r_i_glide_gscore>  (452) 
-2.81071

>  <r_i_glide_lipo>  (452) 
-0.286387

>  <r_i_glide_hbond>  (452) 
-0.16

>  <r_i_glide_metal>  (452) 
-0

>  <r_i_glide_rewards>  (452) 
-0.5

>  <r_i_glide_evdw>  (452) 
-15.4513

>  <r_i_glide_ecoul>  (452) 
-6.84813

>  <r_i_glide_erotb>  (452) 
0

>  <r_i_glide_esite>  (452) 
-0.0645352

>  <r_i_glide_emodel>  (452) 
-30.5972

>  <r_i_glide_energy>  (452) 
-22.2995

>  <r_i_glide_einternal>  (452) 
1.09193

>  <r_i_glide_intrahb_reward>  (452) 
-0.5

>  <i_i_glide_confnum>  (452) 
2

>  <i_i_glide_posenum>  (452) 
34

>  <r_i_glide_eff_state_penalty>  (452) 
0

>  <ligand_id>  (452) 
113

>  <original_smiles>  (452) 
CC1(C)C(=O)C=CC2(C)C3C4C(CCC12)C(O)C4(C)C(O)C1(O)CCC2C(C)(C)C(O)C1C2(O)C3O

>  <smiles>  (452) 
[H]OC1([H])C2([H])C3([H])C([H])(C([H])([H])C([H])([H])C4([H])C(C([H])([H])[H])(C([H])([H])[H])C(=O)C([H])=C([H])C24C([H])([H])[H])C([H])(O[H])C3(C([H])([H])[H])C([H])(O[H])C2(O[H])C([H])([H])C([H])([H])C3([H])C1(O[H])C2([H])C([H])(O[H])C3(C([H])([H])[H])C([H])([H])[H]

$$$$
113:0:2
     RDKit          3D

 80 85  0  0  1  0  0  0  0  0999 V2000
    2.3052   -7.6666    6.8932 C   0  0  0  0  0  0  0  0  0  0  0  0
    1.2528   -8.4905    6.1137 C   0  0  0  0  0  0  0  0  0  0  0  0
    0.3379   -9.1690    7.1761 C   0  0  0  0  0  0  0  0  0  0  0  0
    0.3367   -7.5228    5.3326 C   0  0  0  0  0  0  0  0  0  0  0  0
   -0.1362   -6.5523    5.9263 O   0  0  0  0  0  0  0  0  0  0  0  0
    0.0392   -7.7761    3.9245 C   0  0  0  0  0  0  0  0  0  0  0  0
    0.8361   -8.5526    3.1777 C   0  0  0  0  0  0  0  0  0  0  0  0
    2.1021   -9.2583    3.6563 C   0  0  1  0  0  0  0  0  0  0  0  0
    2.1546  -10.5704    2.8390 C   0  0  0  0  0  0  0  0  0  0  0  0
    3.3727   -8.3623    3.3317 C   0  0  1  0  0  0  0  0  0  0  0  0
    4.7301   -9.0910    3.4966 C   0  0  2  0  0  0  0  0  0  0  0  0
    5.0812  -10.1408    4.5442 C   0  0  2  0  0  0  0  0  0  0  0  0
    4.4246  -10.0659    5.9066 C   0  0  0  0  0  0  0  0  0  0  0  0
    2.9570  -10.5153    5.8780 C   0  0  0  0  0  0  0  0  0  0  0  0
    1.8916   -9.6039    5.1884 C   0  0  1  0  0  0  0  0  0  0  0  0
    6.5470   -9.7179    4.3324 C   0  0  1  0  0  0  0  0  0  0  0  0
    7.3372  -10.5047    3.4583 O   0  0  0  0  0  0  0  0  0  0  0  0
    6.0483   -8.3295    3.8394 C   0  0  2  0  0  0  0  0  0  0  0  0
    6.0605   -7.3481    5.0467 C   0  0  0  0  0  0  0  0  0  0  0  0
    6.7714   -7.6642    2.6252 C   0  0  1  0  0  0  0  0  0  0  0  0
    6.7408   -8.5438    1.5253 O   0  0  0  0  0  0  0  0  0  0  0  0
    6.3631   -6.2052    2.1435 C   0  0  1  0  0  0  0  0  0  0  0  0
    7.4356   -5.5072    2.7218 O   0  0  0  0  0  0  0  0  0  0  0  0
    6.4894   -5.9079    0.6145 C   0  0  0  0  0  0  0  0  0  0  0  0
    5.1384   -5.8426   -0.1711 C   0  0  0  0  0  0  0  0  0  0  0  0
    3.9242   -5.2743    0.6316 C   0  0  2  0  0  0  0  0  0  0  0  0
    4.1750   -3.7824    1.0374 C   0  0  0  0  0  0  0  0  0  0  0  0
    4.9464   -2.9310   -0.0057 C   0  0  0  0  0  0  0  0  0  0  0  0
    2.8401   -2.9956    1.2088 C   0  0  0  0  0  0  0  0  0  0  0  0
    5.0125   -3.9765    2.3401 C   0  0  1  0  0  0  0  0  0  0  0  0
    4.5132   -3.2268    3.4288 O   0  0  0  0  0  0  0  0  0  0  0  0
    5.0504   -5.5197    2.6827 C   0  0  1  0  0  0  0  0  0  0  0  0
    3.7720   -6.0449    1.9855 C   0  0  1  0  0  0  0  0  0  0  0  0
    2.6775   -5.5240    2.7249 O   0  0  0  0  0  0  0  0  0  0  0  0
    3.3482   -7.5703    1.9539 C   0  0  1  0  0  0  0  0  0  0  0  0
    3.9117   -8.3473    0.9211 O   0  0  0  0  0  0  0  0  0  0  0  0
    2.8643   -8.2776    7.6040 H   0  0  0  0  0  0  0  0  0  0  0  0
    1.8470   -6.8724    7.4821 H   0  0  0  0  0  0  0  0  0  0  0  0
    3.0124   -7.1871    6.2199 H   0  0  0  0  0  0  0  0  0  0  0  0
    0.8784   -9.8366    7.8512 H   0  0  0  0  0  0  0  0  0  0  0  0
   -0.4496   -9.7647    6.7033 H   0  0  0  0  0  0  0  0  0  0  0  0
   -0.1641   -8.4338    7.8062 H   0  0  0  0  0  0  0  0  0  0  0  0
   -0.8395   -7.3065    3.5201 H   0  0  0  0  0  0  0  0  0  0  0  0
    0.5585   -8.7248    2.1483 H   0  0  0  0  0  0  0  0  0  0  0  0
    2.9740  -11.2335    3.1155 H   0  0  0  0  0  0  0  0  0  0  0  0
    2.2601  -10.3521    1.7747 H   0  0  0  0  0  0  0  0  0  0  0  0
    1.2328  -11.1492    2.9581 H   0  0  0  0  0  0  0  0  0  0  0  0
    3.3284   -7.5967    4.0969 H   0  0  0  0  0  0  0  0  0  0  0  0
    4.9014   -9.6949    2.6001 H   0  0  0  0  0  0  0  0  0  0  0  0
    4.9610  -11.1411    4.1188 H   0  0  0  0  0  0  0  0  0  0  0  0
    4.9636  -10.7058    6.6036 H   0  0  0  0  0  0  0  0  0  0  0  0
    4.5007   -9.0697    6.3222 H   0  0  0  0  0  0  0  0  0  0  0  0
    2.9076  -11.5163    5.4550 H   0  0  0  0  0  0  0  0  0  0  0  0
    2.6606  -10.6584    6.9156 H   0  0  0  0  0  0  0  0  0  0  0  0
    1.0632  -10.3160    5.1202 H   0  0  0  0  0  0  0  0  0  0  0  0
    7.0604   -9.6711    5.2980 H   0  0  0  0  0  0  0  0  0  0  0  0
    6.7521  -10.8642    2.8136 H   0  0  0  0  0  0  0  0  0  0  0  0
    6.7178   -6.4929    4.9052 H   0  0  0  0  0  0  0  0  0  0  0  0
    6.4047   -7.8094    5.9715 H   0  0  0  0  0  0  0  0  0  0  0  0
    5.0627   -6.9879    5.2891 H   0  0  0  0  0  0  0  0  0  0  0  0
    7.8357   -7.6826    2.8628 H   0  0  0  0  0  0  0  0  0  0  0  0
    7.1883   -9.3260    1.8161 H   0  0  0  0  0  0  0  0  0  0  0  0
    7.4153   -4.6025    2.4122 H   0  0  0  0  0  0  0  0  0  0  0  0
    6.9991   -4.9583    0.4840 H   0  0  0  0  0  0  0  0  0  0  0  0
    7.1992   -6.5827    0.1432 H   0  0  0  0  0  0  0  0  0  0  0  0
    5.2820   -5.2593   -1.0836 H   0  0  0  0  0  0  0  0  0  0  0  0
    4.8865   -6.8174   -0.5706 H   0  0  0  0  0  0  0  0  0  0  0  0
    3.0226   -5.3629    0.0235 H   0  0  0  0  0  0  0  0  0  0  0  0
    5.0131   -1.8914    0.3170 H   0  0  0  0  0  0  0  0  0  0  0  0
    4.4384   -2.9343   -0.9708 H   0  0  0  0  0  0  0  0  0  0  0  0
    5.9721   -3.2458   -0.1730 H   0  0  0  0  0  0  0  0  0  0  0  0
    3.0167   -1.9362    1.3850 H   0  0  0  0  0  0  0  0  0  0  0  0
    2.2011   -3.3179    2.0225 H   0  0  0  0  0  0  0  0  0  0  0  0
    2.2442   -3.0624    0.2985 H   0  0  0  0  0  0  0  0  0  0  0  0
    6.0147   -3.5800    2.1886 H   0  0  0  0  0  0  0  0  0  0  0  0
    3.6167   -3.5005    3.5696 H   0  0  0  0  0  0  0  0  0  0  0  0
    4.9588   -5.5984    3.7559 H   0  0  0  0  0  0  0  0  0  0  0  0
    2.6329   -5.9786    3.5522 H   0  0  0  0  0  0  0  0  0  0  0  0
    2.3283   -7.5143    1.5801 H   0  0  0  0  0  0  0  0  0  0  0  0
    3.5583   -9.2275    0.9569 H   0  0  0  0  0  0  0  0  0  0  0  0
  1  2  1  0
  1 37  1  0
  1 38  1  0
  1 39  1  0
  2 15  1  0
  2  3  1  0
  2  4  1  0
  3 40  1  0
  3 41  1  0
  3 42  1  0
  4  5  2  0
  4  6  1  0
  6  7  2  0
  6 43  1  0
  7  8  1  0
  7 44  1  0
  8 15  1  0
  8  9  1  6
  8 10  1  0
  9 45  1  0
  9 46  1  0
  9 47  1  0
 10 35  1  0
 10 11  1  0
 10 48  1  1
 11 18  1  0
 11 12  1  0
 11 49  1  6
 12 13  1  0
 12 16  1  0
 12 50  1  6
 13 14  1  0
 13 51  1  0
 13 52  1  0
 14 15  1  0
 14 53  1  0
 14 54  1  0
 15 55  1  6
 16 17  1  0
 16 18  1  0
 16 56  1  1
 17 57  1  0
 18 19  1  1
 18 20  1  0
 19 58  1  0
 19 59  1  0
 19 60  1  0
 20 21  1  0
 20 22  1  0
 20 61  1  1
 21 62  1  0
 22 32  1  0
 22 23  1  1
 22 24  1  0
 23 63  1  0
 24 25  1  0
 24 64  1  0
 24 65  1  0
 25 26  1  0
 25 66  1  0
 25 67  1  0
 26 33  1  0
 26 27  1  0
 26 68  1  6
 27 28  1  0
 27 29  1  0
 27 30  1  0
 28 69  1  0
 28 70  1  0
 28 71  1  0
 29 72  1  0
 29 73  1  0
 29 74  1  0
 30 31  1  0
 30 32  1  0
 30 75  1  6
 31 76  1  0
 32 33  1  0
 32 77  1  1
 33 34  1  1
 33 35  1  0
 34 78  1  0
 35 36  1  0
 35 79  1  6
 36 80  1  0
M  END
>  <i_m_ct_stereo_status>  (453) 
1

>  <s_m_source_file>  (453) 
/var/tmp/pbs.5076255.sched01/tmpgahbdy6u/1388ql836nh.sdf

>  <i_m_source_file_index>  (453) 
46

>  <i_lp_mmshare_version>  (453) 
48012

>  <i_f3d_flags>  (453) 
0

>  <s_epik_input>  (453) 
W0NIXTE9W0NIXUMoPU8pQyhbQ0gzXSkoW0NIM10pW0NAQEhdMltDSDJdW0NIMl1bQ0BASF0oW0NASF0zW0NAQEhdNFtDQF0xMltDSDNdKVtDQEBIXShbT0hdKVtDQEBdMyhbQ0gzXSlbQ0BASF0oW09IXSlbQ0BdNShbT0hdKVtDQEBIXTZbQ0BdKFtPSF0pKFtDQEhdNFtPSF0pW0NASF0oW0NIMl1bQ0gyXTUpQyhbQ0gzXSkoW0NIM10pW0NASF02W09IXQ==

>  <s_epik_cmdline>  (453) 
J2VwaWtfcHl0aG9uJywgJy1waHQnLCAnMi4wJywgJy1waCcsICc3LjAnLCAnLXRuJywgJzgnLCAnLW1hJywgJzIwMCcsICctaW1hZScsICc8aW5maWxlLm1hZT4nLCAnLW9tYWUnLCAnPG91dGZpbGUubWFlPic=

>  <r_lp_tautomer_probability>  (453) 
1

>  <r_epik_Ionization_Penalty>  (453) 
4.07978e-06

>  <r_epik_Ionization_Penalty_Charging>  (453) 
0

>  <r_epik_Ionization_Penalty_Neutral>  (453) 
4.07978e-06

>  <r_epik_State_Penalty>  (453) 
-0

>  <r_epik_Charging_Adjusted_Penalty>  (453) 
0

>  <i_epik_Tot_Q>  (453) 
0

>  <i_epik_Tot_abs_Q>  (453) 
0

>  <s_lp_Force_Field>  (453) 
OPLS3e

>  <r_lp_Energy>  (453) 
131.917

>  <b_lp_Chiralities_Consistent>  (453) 
1

>  <s_lp_Variant>  (453) 
113:0-1

>  <s_i_glide_gridfile>  (453) 
pfpi4k_grid

>  <i_i_glide_lignum>  (453) 
46

>  <i_i_glide_rotatable_bonds>  (453) 
6

>  <r_i_docking_score>  (453) 
-2.37892

>  <r_i_glide_ligand_efficiency>  (453) 
-0.0660812

>  <r_i_glide_ligand_efficiency_sa>  (453) 
-0.218195

>  <r_i_glide_ligand_efficiency_ln>  (453) 
-0.519017

>  <r_i_glide_gscore>  (453) 
-2.37892

>  <r_i_glide_lipo>  (453) 
-0.341402

>  <r_i_glide_hbond>  (453) 
0

>  <r_i_glide_metal>  (453) 
-0

>  <r_i_glide_rewards>  (453) 
-0.5

>  <r_i_glide_evdw>  (453) 
-22.829

>  <r_i_glide_ecoul>  (453) 
-2.5092

>  <r_i_glide_erotb>  (453) 
0

>  <r_i_glide_esite>  (453) 
-0.0196913

>  <r_i_glide_emodel>  (453) 
-33.6412

>  <r_i_glide_energy>  (453) 
-25.3382

>  <r_i_glide_einternal>  (453) 
0.875399

>  <r_i_glide_intrahb_reward>  (453) 
-0.5

>  <i_i_glide_confnum>  (453) 
1

>  <i_i_glide_posenum>  (453) 
10

>  <r_i_glide_eff_state_penalty>  (453) 
0

>  <ligand_id>  (453) 
113

>  <original_smiles>  (453) 
CC1(C)C(=O)C=CC2(C)C3C4C(CCC12)C(O)C4(C)C(O)C1(O)CCC2C(C)(C)C(O)C1C2(O)C3O

>  <smiles>  (453) 
[H]OC1([H])C2([H])C3([H])C([H])(C([H])([H])C([H])([H])C4([H])C(C([H])([H])[H])(C([H])([H])[H])C(=O)C([H])=C([H])C24C([H])([H])[H])C([H])(O[H])C3(C([H])([H])[H])C([H])(O[H])C2(O[H])C([H])([H])C([H])([H])C3([H])C1(O[H])C2([H])C([H])(O[H])C3(C([H])([H])[H])C([H])([H])[H]

$$$$
