0:0:0
     RDKit          3D

 43 46  0  0  1  0  0  0  0  0999 V2000
    1.6473   -4.2499    2.8171 C   0  0  0  0  0  0  0  0  0  0  0  0
    2.4247   -4.5268    1.5413 C   0  0  2  0  0  0  0  0  0  0  0  0
    3.9461   -4.3209    1.5440 C   0  0  2  0  0  0  0  0  0  0  0  0
    4.6591   -3.9042    2.8291 C   0  0  0  0  0  0  0  0  0  0  0  0
    5.8013   -2.9437    2.4912 C   0  0  0  0  0  0  0  0  0  0  0  0
    5.3451   -1.8087    1.5083 C   0  0  1  0  0  0  0  0  0  0  0  0
    5.4523   -0.4364    2.1825 C   0  0  0  0  0  0  0  0  0  0  0  0
    6.2108   -1.7871    0.4012 O   0  0  0  0  0  0  0  0  0  0  0  0
    6.0410   -2.7229   -0.5726 C   0  0  0  0  0  0  0  0  0  0  0  0
    6.9647   -3.0604   -1.3119 O   0  0  0  0  0  0  0  0  0  0  0  0
    4.6059   -3.2410   -0.8093 C   0  0  2  0  0  0  0  0  0  0  0  0
    3.8273   -2.5734   -1.9974 C   0  0  0  0  0  0  0  0  0  0  0  0
    3.6569   -1.0550   -1.7637 C   0  0  0  0  0  0  0  0  0  0  0  0
    4.5812   -2.7830   -3.3254 C   0  0  0  0  0  0  0  0  0  0  0  0
    2.4125   -3.2119   -2.1780 C   0  0  0  0  0  0  0  0  0  0  0  0
    1.8837   -4.0579   -1.0023 C   0  0  0  0  0  0  0  0  0  0  0  0
    2.3167   -3.5300    0.3710 C   0  0  2  0  0  0  0  0  0  0  0  0
    3.8010   -3.2173    0.4888 C   0  0  1  0  0  0  0  0  0  0  0  0
    4.0063   -1.9747    1.1473 O   0  0  0  0  0  0  0  0  0  0  0  0
    1.7553   -3.2151    3.1411 H   0  0  0  0  0  0  0  0  0  0  0  0
    1.9604   -4.8977    3.6357 H   0  0  0  0  0  0  0  0  0  0  0  0
    0.5941   -4.4341    2.6780 H   0  0  0  0  0  0  0  0  0  0  0  0
    2.2242   -5.5396    1.1887 H   0  0  0  0  0  0  0  0  0  0  0  0
    4.4264   -5.1910    1.0774 H   0  0  0  0  0  0  0  0  0  0  0  0
    3.9909   -3.3706    3.5070 H   0  0  0  0  0  0  0  0  0  0  0  0
    5.0245   -4.7722    3.3787 H   0  0  0  0  0  0  0  0  0  0  0  0
    6.1673   -2.4911    3.4120 H   0  0  0  0  0  0  0  0  0  0  0  0
    6.6313   -3.5012    2.0555 H   0  0  0  0  0  0  0  0  0  0  0  0
    5.1420    0.3305    1.4790 H   0  0  0  0  0  0  0  0  0  0  0  0
    6.4815   -0.2525    2.4846 H   0  0  0  0  0  0  0  0  0  0  0  0
    4.8146   -0.3931    3.0681 H   0  0  0  0  0  0  0  0  0  0  0  0
    4.7392   -4.2871   -1.0929 H   0  0  0  0  0  0  0  0  0  0  0  0
    3.1746   -0.5733   -2.6151 H   0  0  0  0  0  0  0  0  0  0  0  0
    4.6075   -0.5405   -1.6036 H   0  0  0  0  0  0  0  0  0  0  0  0
    3.0290   -0.8570   -0.8944 H   0  0  0  0  0  0  0  0  0  0  0  0
    3.9922   -2.4193   -4.1671 H   0  0  0  0  0  0  0  0  0  0  0  0
    4.7746   -3.8436   -3.4894 H   0  0  0  0  0  0  0  0  0  0  0  0
    5.5323   -2.2567   -3.3424 H   0  0  0  0  0  0  0  0  0  0  0  0
    1.6914   -2.4211   -2.3923 H   0  0  0  0  0  0  0  0  0  0  0  0
    2.3908   -3.8502   -3.0677 H   0  0  0  0  0  0  0  0  0  0  0  0
    0.8080   -4.1785   -1.1167 H   0  0  0  0  0  0  0  0  0  0  0  0
    2.2716   -5.0493   -1.1037 H   0  0  0  0  0  0  0  0  0  0  0  0
    1.7870   -2.6209    0.6639 H   0  0  0  0  0  0  0  0  0  0  0  0
  1  2  1  0
  1 20  1  0
  1 21  1  0
  1 22  1  0
  2 17  1  0
  2  3  1  0
  2 23  1  6
  3 18  1  0
  3  4  1  0
  3 24  1  6
  4  5  1  0
  4 25  1  0
  4 26  1  0
  5  6  1  0
  5 27  1  0
  5 28  1  0
  6 19  1  0
  6  7  1  1
  6  8  1  0
  7 29  1  0
  7 30  1  0
  7 31  1  0
  8  9  1  0
  9 10  2  0
  9 11  1  0
 11 18  1  0
 11 12  1  0
 11 32  1  6
 12 13  1  0
 12 14  1  0
 12 15  1  0
 13 33  1  0
 13 34  1  0
 13 35  1  0
 14 36  1  0
 14 37  1  0
 14 38  1  0
 15 16  1  0
 15 39  1  0
 15 40  1  0
 16 17  1  0
 16 41  1  0
 16 42  1  0
 17 18  1  0
 17 43  1  1
 18 19  1  1
M  END
>  <i_m_ct_stereo_status>  (1) 
1

>  <s_m_source_file>  (1) 
/var/tmp/pbs.5076255.sched01/tmp5vb4dkz1/0x5hafel7.sdf

>  <i_m_source_file_index>  (1) 
1

>  <i_lp_mmshare_version>  (1) 
48012

>  <i_f3d_flags>  (1) 
0

>  <s_epik_input>  (1) 
W0NAXTEyM1tDQEBIXTRbQ0BASF0oW0NIM10pW0NAQEhdMltDSDJdW0NIMl1DKFtDSDNdKShbQ0gzXSlbQ0BIXTFDKD1PKU9bQ0BdKE8zKShbQ0gzXSlbQ0gyXVtDSDJdNA==

>  <s_epik_cmdline>  (1) 
J2VwaWtfcHl0aG9uJywgJy1waHQnLCAnMi4wJywgJy1waCcsICc3LjAnLCAnLXRuJywgJzgnLCAnLW1hJywgJzIwMCcsICctaW1hZScsICc8aW5maWxlLm1hZT4nLCAnLW9tYWUnLCAnPG91dGZpbGUubWFlPic=

>  <r_lp_tautomer_probability>  (1) 
1

>  <r_epik_Ionization_Penalty>  (1) 
6.28849e-14

>  <r_epik_Ionization_Penalty_Charging>  (1) 
0

>  <r_epik_Ionization_Penalty_Neutral>  (1) 
6.28849e-14

>  <r_epik_State_Penalty>  (1) 
-0

>  <r_epik_Charging_Adjusted_Penalty>  (1) 
0

>  <i_epik_Tot_Q>  (1) 
0

>  <i_epik_Tot_abs_Q>  (1) 
0

>  <s_epik_Chemistry_Notes>  (1) 
This compound has an ester and may undergo hydrolysis at high or low pH.

>  <s_lp_Force_Field>  (1) 
OPLS3e

>  <r_lp_Energy>  (1) 
48.6173

>  <b_lp_Chiralities_Consistent>  (1) 
1

>  <s_lp_Variant>  (1) 
0:0-1

>  <s_i_glide_gridfile>  (1) 
pfpi4k_grid

>  <i_i_glide_lignum>  (1) 
1

>  <i_i_glide_rotatable_bonds>  (1) 
0

>  <r_i_docking_score>  (1) 
-3.02138

>  <r_i_glide_ligand_efficiency>  (1) 
-0.15902

>  <r_i_glide_ligand_efficiency_sa>  (1) 
-0.424329

>  <r_i_glide_ligand_efficiency_ln>  (1) 
-0.765984

>  <r_i_glide_gscore>  (1) 
-3.02138

>  <r_i_glide_lipo>  (1) 
-0.411888

>  <r_i_glide_hbond>  (1) 
0

>  <r_i_glide_metal>  (1) 
-0

>  <r_i_glide_rewards>  (1) 
-1.73075

>  <r_i_glide_evdw>  (1) 
-15.192

>  <r_i_glide_ecoul>  (1) 
-0.7659

>  <r_i_glide_erotb>  (1) 
0

>  <r_i_glide_esite>  (1) 
-0.0042503

>  <r_i_glide_emodel>  (1) 
-17.9887

>  <r_i_glide_energy>  (1) 
-15.9579

>  <r_i_glide_einternal>  (1) 
0

>  <r_i_glide_intrahb_reward>  (1) 
-0

>  <i_i_glide_confnum>  (1) 
1

>  <i_i_glide_posenum>  (1) 
7

>  <r_i_glide_eff_state_penalty>  (1) 
0

>  <ligand_id>  (1) 
0

>  <original_smiles>  (1) 
CC1C2CCC3(C)OC(=O)C4C(C)(C)CCC1C24O3

>  <smiles>  (1) 
[H]C([H])([H])C12OC(=O)C3([H])C4(O1)C([H])(C([H])([H])C2([H])[H])C([H])(C([H])([H])[H])C4([H])C([H])([H])C([H])([H])C3(C([H])([H])[H])C([H])([H])[H]

$$$$
0:0:1
     RDKit          3D

 43 46  0  0  1  0  0  0  0  0999 V2000
    2.3312   -4.3492    2.4618 C   0  0  0  0  0  0  0  0  0  0  0  0
    2.7520   -4.5689    1.0176 C   0  0  2  0  0  0  0  0  0  0  0  0
    4.2456   -4.6048    0.6649 C   0  0  2  0  0  0  0  0  0  0  0  0
    5.3182   -4.5130    1.7419 C   0  0  0  0  0  0  0  0  0  0  0  0
    6.5159   -3.7159    1.2196 C   0  0  0  0  0  0  0  0  0  0  0  0
    6.0624   -2.3766    0.5293 C   0  0  1  0  0  0  0  0  0  0  0  0
    6.5947   -1.1508    1.2725 C   0  0  0  0  0  0  0  0  0  0  0  0
    6.6229   -2.3239   -0.7569 O   0  0  0  0  0  0  0  0  0  0  0  0
    6.0290   -3.0569   -1.7407 C   0  0  0  0  0  0  0  0  0  0  0  0
    6.6106   -3.4473   -2.7345 O   0  0  0  0  0  0  0  0  0  0  0  0
    4.5244   -3.2983   -1.6367 C   0  0  2  0  0  0  0  0  0  0  0  0
    3.6639   -2.3589   -2.5299 C   0  0  0  0  0  0  0  0  0  0  0  0
    3.8310   -0.8772   -2.1061 C   0  0  0  0  0  0  0  0  0  0  0  0
    4.0283   -2.4717   -4.0226 C   0  0  0  0  0  0  0  0  0  0  0  0
    2.1862   -2.7965   -2.4568 C   0  0  0  0  0  0  0  0  0  0  0  0
    1.7610   -3.6400   -1.2523 C   0  0  0  0  0  0  0  0  0  0  0  0
    2.5667   -3.4171    0.0184 C   0  0  2  0  0  0  0  0  0  0  0  0
    4.0695   -3.3494   -0.1883 C   0  0  1  0  0  0  0  0  0  0  0  0
    4.6615   -2.2721    0.5224 O   0  0  0  0  0  0  0  0  0  0  0  0
    2.7439   -3.4161    2.8471 H   0  0  0  0  0  0  0  0  0  0  0  0
    2.6798   -5.1625    3.0976 H   0  0  0  0  0  0  0  0  0  0  0  0
    1.2485   -4.2882    2.5551 H   0  0  0  0  0  0  0  0  0  0  0  0
    2.2915   -5.4734    0.6117 H   0  0  0  0  0  0  0  0  0  0  0  0
    4.4252   -5.4401   -0.0118 H   0  0  0  0  0  0  0  0  0  0  0  0
    4.9419   -3.9857    2.6201 H   0  0  0  0  0  0  0  0  0  0  0  0
    5.6244   -5.5002    2.0925 H   0  0  0  0  0  0  0  0  0  0  0  0
    7.1757   -3.4938    2.0485 H   0  0  0  0  0  0  0  0  0  0  0  0
    7.0963   -4.3229    0.5226 H   0  0  0  0  0  0  0  0  0  0  0  0
    6.2584   -0.2435    0.7695 H   0  0  0  0  0  0  0  0  0  0  0  0
    7.6835   -1.1595    1.2639 H   0  0  0  0  0  0  0  0  0  0  0  0
    6.2345   -1.1428    2.3020 H   0  0  0  0  0  0  0  0  0  0  0  0
    4.4035   -4.2866   -2.0650 H   0  0  0  0  0  0  0  0  0  0  0  0
    3.2650   -0.2071   -2.7531 H   0  0  0  0  0  0  0  0  0  0  0  0
    4.8691   -0.5446   -2.1379 H   0  0  0  0  0  0  0  0  0  0  0  0
    3.4756   -0.7098   -1.0901 H   0  0  0  0  0  0  0  0  0  0  0  0
    3.3278   -1.9047   -4.6397 H   0  0  0  0  0  0  0  0  0  0  0  0
    3.9738   -3.5141   -4.3447 H   0  0  0  0  0  0  0  0  0  0  0  0
    5.0072   -2.0861   -4.2282 H   0  0  0  0  0  0  0  0  0  0  0  0
    1.6343   -1.8852   -2.4211 H   0  0  0  0  0  0  0  0  0  0  0  0
    1.8480   -3.2976   -3.3714 H   0  0  0  0  0  0  0  0  0  0  0  0
    0.6866   -3.5744   -1.1302 H   0  0  0  0  0  0  0  0  0  0  0  0
    1.9120   -4.6620   -1.5273 H   0  0  0  0  0  0  0  0  0  0  0  0
    2.2554   -2.5147    0.5351 H   0  0  0  0  0  0  0  0  0  0  0  0
  1  2  1  0
  1 20  1  0
  1 21  1  0
  1 22  1  0
  2 17  1  0
  2  3  1  0
  2 23  1  6
  3 18  1  0
  3  4  1  0
  3 24  1  6
  4  5  1  0
  4 25  1  0
  4 26  1  0
  5  6  1  0
  5 27  1  0
  5 28  1  0
  6 19  1  0
  6  7  1  1
  6  8  1  0
  7 29  1  0
  7 30  1  0
  7 31  1  0
  8  9  1  0
  9 10  2  0
  9 11  1  0
 11 18  1  0
 11 12  1  0
 11 32  1  6
 12 13  1  0
 12 14  1  0
 12 15  1  0
 13 33  1  0
 13 34  1  0
 13 35  1  0
 14 36  1  0
 14 37  1  0
 14 38  1  0
 15 16  1  0
 15 39  1  0
 15 40  1  0
 16 17  1  0
 16 41  1  0
 16 42  1  0
 17 18  1  0
 17 43  1  1
 18 19  1  1
M  END
>  <i_m_ct_stereo_status>  (2) 
1

>  <s_m_source_file>  (2) 
/var/tmp/pbs.5076255.sched01/tmp5vb4dkz1/0x5hafel7.sdf

>  <i_m_source_file_index>  (2) 
1

>  <i_lp_mmshare_version>  (2) 
48012

>  <i_f3d_flags>  (2) 
0

>  <s_epik_input>  (2) 
W0NAXTEyM1tDQEBIXTRbQ0BASF0oW0NIM10pW0NAQEhdMltDSDJdW0NIMl1DKFtDSDNdKShbQ0gzXSlbQ0BIXTFDKD1PKU9bQ0BdKE8zKShbQ0gzXSlbQ0gyXVtDSDJdNA==

>  <s_epik_cmdline>  (2) 
J2VwaWtfcHl0aG9uJywgJy1waHQnLCAnMi4wJywgJy1waCcsICc3LjAnLCAnLXRuJywgJzgnLCAnLW1hJywgJzIwMCcsICctaW1hZScsICc8aW5maWxlLm1hZT4nLCAnLW9tYWUnLCAnPG91dGZpbGUubWFlPic=

>  <r_lp_tautomer_probability>  (2) 
1

>  <r_epik_Ionization_Penalty>  (2) 
6.28849e-14

>  <r_epik_Ionization_Penalty_Charging>  (2) 
0

>  <r_epik_Ionization_Penalty_Neutral>  (2) 
6.28849e-14

>  <r_epik_State_Penalty>  (2) 
-0

>  <r_epik_Charging_Adjusted_Penalty>  (2) 
0

>  <i_epik_Tot_Q>  (2) 
0

>  <i_epik_Tot_abs_Q>  (2) 
0

>  <s_epik_Chemistry_Notes>  (2) 
This compound has an ester and may undergo hydrolysis at high or low pH.

>  <s_lp_Force_Field>  (2) 
OPLS3e

>  <r_lp_Energy>  (2) 
48.6173

>  <b_lp_Chiralities_Consistent>  (2) 
1

>  <s_lp_Variant>  (2) 
0:0-1

>  <s_i_glide_gridfile>  (2) 
pfpi4k_grid

>  <i_i_glide_lignum>  (2) 
1

>  <i_i_glide_rotatable_bonds>  (2) 
0

>  <r_i_docking_score>  (2) 
-2.92496

>  <r_i_glide_ligand_efficiency>  (2) 
-0.153945

>  <r_i_glide_ligand_efficiency_sa>  (2) 
-0.410787

>  <r_i_glide_ligand_efficiency_ln>  (2) 
-0.741539

>  <r_i_glide_gscore>  (2) 
-2.92496

>  <r_i_glide_lipo>  (2) 
-0.246846

>  <r_i_glide_hbond>  (2) 
-0.0707662

>  <r_i_glide_metal>  (2) 
-0

>  <r_i_glide_rewards>  (2) 
-1.82435

>  <r_i_glide_evdw>  (2) 
-14.8716

>  <r_i_glide_ecoul>  (2) 
-0.262765

>  <r_i_glide_erotb>  (2) 
0

>  <r_i_glide_esite>  (2) 
0

>  <r_i_glide_emodel>  (2) 
-16.6602

>  <r_i_glide_energy>  (2) 
-15.1344

>  <r_i_glide_einternal>  (2) 
0

>  <r_i_glide_intrahb_reward>  (2) 
-0

>  <i_i_glide_confnum>  (2) 
2

>  <i_i_glide_posenum>  (2) 
12

>  <r_i_glide_eff_state_penalty>  (2) 
0

>  <ligand_id>  (2) 
0

>  <original_smiles>  (2) 
CC1C2CCC3(C)OC(=O)C4C(C)(C)CCC1C24O3

>  <smiles>  (2) 
[H]C([H])([H])C12OC(=O)C3([H])C4(O1)C([H])(C([H])([H])C2([H])[H])C([H])(C([H])([H])[H])C4([H])C([H])([H])C([H])([H])C3(C([H])([H])[H])C([H])([H])[H]

$$$$
0:0:2
     RDKit          3D

 43 46  0  0  1  0  0  0  0  0999 V2000
    3.6147   -1.9988   -3.6902 C   0  0  0  0  0  0  0  0  0  0  0  0
    3.0273   -2.1754   -2.3032 C   0  0  2  0  0  0  0  0  0  0  0  0
    3.7112   -1.5377   -1.0945 C   0  0  2  0  0  0  0  0  0  0  0  0
    4.9031   -0.6739   -1.2964 C   0  0  0  0  0  0  0  0  0  0  0  0
    5.8255   -0.7780   -0.0723 C   0  0  0  0  0  0  0  0  0  0  0  0
    6.1270   -2.2893    0.2445 C   0  0  1  0  0  0  0  0  0  0  0  0
    7.6092   -2.6232   -0.0068 C   0  0  0  0  0  0  0  0  0  0  0  0
    5.8756   -2.5161    1.6100 O   0  0  0  0  0  0  0  0  0  0  0  0
    4.5656   -2.6207    1.9923 C   0  0  0  0  0  0  0  0  0  0  0  0
    4.1745   -2.3553    3.1401 O   0  0  0  0  0  0  0  0  0  0  0  0
    3.5806   -3.2120    0.9757 C   0  0  2  0  0  0  0  0  0  0  0  0
    3.2597   -4.7385    1.1295 C   0  0  0  0  0  0  0  0  0  0  0  0
    4.5332   -5.6031    0.9460 C   0  0  0  0  0  0  0  0  0  0  0  0
    2.6736   -5.0279    2.5243 C   0  0  0  0  0  0  0  0  0  0  0  0
    2.1907   -5.1936    0.0785 C   0  0  0  0  0  0  0  0  0  0  0  0
    1.9202   -4.2149   -1.1000 C   0  0  0  0  0  0  0  0  0  0  0  0
    3.1791   -3.5118   -1.5806 C   0  0  2  0  0  0  0  0  0  0  0  0
    3.9856   -2.8850   -0.4573 C   0  0  1  0  0  0  0  0  0  0  0  0
    5.3801   -3.1203   -0.5921 O   0  0  0  0  0  0  0  0  0  0  0  0
    4.6497   -2.3364   -3.7284 H   0  0  0  0  0  0  0  0  0  0  0  0
    3.5867   -0.9497   -3.9940 H   0  0  0  0  0  0  0  0  0  0  0  0
    3.0456   -2.5686   -4.4235 H   0  0  0  0  0  0  0  0  0  0  0  0
    1.9773   -1.8891   -2.3207 H   0  0  0  0  0  0  0  0  0  0  0  0
    2.9742   -1.0427   -0.4660 H   0  0  0  0  0  0  0  0  0  0  0  0
    5.4665   -0.9329   -2.1914 H   0  0  0  0  0  0  0  0  0  0  0  0
    4.4852    0.2848   -1.4861 H   0  0  0  0  0  0  0  0  0  0  0  0
    6.7580   -0.2568   -0.2376 H   0  0  0  0  0  0  0  0  0  0  0  0
    5.3964   -0.2811    0.7992 H   0  0  0  0  0  0  0  0  0  0  0  0
    7.7806   -3.6722    0.2167 H   0  0  0  0  0  0  0  0  0  0  0  0
    8.2438   -2.0129    0.6307 H   0  0  0  0  0  0  0  0  0  0  0  0
    7.8753   -2.4426   -1.0497 H   0  0  0  0  0  0  0  0  0  0  0  0
    2.6477   -2.6903    1.1845 H   0  0  0  0  0  0  0  0  0  0  0  0
    4.3280   -6.6593    1.1261 H   0  0  0  0  0  0  0  0  0  0  0  0
    5.3304   -5.3096    1.6291 H   0  0  0  0  0  0  0  0  0  0  0  0
    4.9272   -5.5282   -0.0683 H   0  0  0  0  0  0  0  0  0  0  0  0
    2.3450   -6.0641    2.6019 H   0  0  0  0  0  0  0  0  0  0  0  0
    1.8087   -4.3936    2.7092 H   0  0  0  0  0  0  0  0  0  0  0  0
    3.3926   -4.8571    3.3221 H   0  0  0  0  0  0  0  0  0  0  0  0
    2.5045   -6.1470   -0.3312 H   0  0  0  0  0  0  0  0  0  0  0  0
    1.2539   -5.4534    0.5809 H   0  0  0  0  0  0  0  0  0  0  0  0
    1.4023   -4.7018   -1.9205 H   0  0  0  0  0  0  0  0  0  0  0  0
    1.2304   -3.4468   -0.7654 H   0  0  0  0  0  0  0  0  0  0  0  0
    3.8601   -4.1559   -2.1303 H   0  0  0  0  0  0  0  0  0  0  0  0
  1  2  1  0
  1 20  1  0
  1 21  1  0
  1 22  1  0
  2 17  1  0
  2  3  1  0
  2 23  1  6
  3 18  1  0
  3  4  1  0
  3 24  1  1
  4  5  1  0
  4 25  1  0
  4 26  1  0
  5  6  1  0
  5 27  1  0
  5 28  1  0
  6 19  1  0
  6  7  1  1
  6  8  1  0
  7 29  1  0
  7 30  1  0
  7 31  1  0
  8  9  1  0
  9 10  2  0
  9 11  1  0
 11 18  1  0
 11 12  1  0
 11 32  1  1
 12 13  1  0
 12 14  1  0
 12 15  1  0
 13 33  1  0
 13 34  1  0
 13 35  1  0
 14 36  1  0
 14 37  1  0
 14 38  1  0
 15 16  1  0
 15 39  1  0
 15 40  1  0
 16 17  1  0
 16 41  1  0
 16 42  1  0
 17 18  1  0
 17 43  1  6
 18 19  1  6
M  END
>  <i_m_ct_stereo_status>  (3) 
1

>  <s_m_source_file>  (3) 
/var/tmp/pbs.5076255.sched01/tmp5vb4dkz1/0x5hafel7.sdf

>  <i_m_source_file_index>  (3) 
1

>  <i_lp_mmshare_version>  (3) 
48012

>  <i_f3d_flags>  (3) 
0

>  <s_epik_input>  (3) 
W0NAXTEyM1tDQEBIXTRbQ0BASF0oW0NIM10pW0NAQEhdMltDSDJdW0NIMl1DKFtDSDNdKShbQ0gzXSlbQ0BIXTFDKD1PKU9bQ0BdKE8zKShbQ0gzXSlbQ0gyXVtDSDJdNA==

>  <s_epik_cmdline>  (3) 
J2VwaWtfcHl0aG9uJywgJy1waHQnLCAnMi4wJywgJy1waCcsICc3LjAnLCAnLXRuJywgJzgnLCAnLW1hJywgJzIwMCcsICctaW1hZScsICc8aW5maWxlLm1hZT4nLCAnLW9tYWUnLCAnPG91dGZpbGUubWFlPic=

>  <r_lp_tautomer_probability>  (3) 
1

>  <r_epik_Ionization_Penalty>  (3) 
6.28849e-14

>  <r_epik_Ionization_Penalty_Charging>  (3) 
0

>  <r_epik_Ionization_Penalty_Neutral>  (3) 
6.28849e-14

>  <r_epik_State_Penalty>  (3) 
-0

>  <r_epik_Charging_Adjusted_Penalty>  (3) 
0

>  <i_epik_Tot_Q>  (3) 
0

>  <i_epik_Tot_abs_Q>  (3) 
0

>  <s_epik_Chemistry_Notes>  (3) 
This compound has an ester and may undergo hydrolysis at high or low pH.

>  <s_lp_Force_Field>  (3) 
OPLS3e

>  <r_lp_Energy>  (3) 
48.6173

>  <b_lp_Chiralities_Consistent>  (3) 
1

>  <s_lp_Variant>  (3) 
0:0-1

>  <s_i_glide_gridfile>  (3) 
pfpi4k_grid

>  <i_i_glide_lignum>  (3) 
1

>  <i_i_glide_rotatable_bonds>  (3) 
0

>  <r_i_docking_score>  (3) 
-2.6803

>  <r_i_glide_ligand_efficiency>  (3) 
-0.141068

>  <r_i_glide_ligand_efficiency_sa>  (3) 
-0.376427

>  <r_i_glide_ligand_efficiency_ln>  (3) 
-0.679513

>  <r_i_glide_gscore>  (3) 
-2.6803

>  <r_i_glide_lipo>  (3) 
-0.431145

>  <r_i_glide_hbond>  (3) 
0

>  <r_i_glide_metal>  (3) 
-0

>  <r_i_glide_rewards>  (3) 
-1.69801

>  <r_i_glide_evdw>  (3) 
-12.5747

>  <r_i_glide_ecoul>  (3) 
0.517237

>  <r_i_glide_erotb>  (3) 
0

>  <r_i_glide_esite>  (3) 
0

>  <r_i_glide_emodel>  (3) 
-13.6638

>  <r_i_glide_energy>  (3) 
-12.0574

>  <r_i_glide_einternal>  (3) 
0

>  <r_i_glide_intrahb_reward>  (3) 
-0

>  <i_i_glide_confnum>  (3) 
1

>  <i_i_glide_posenum>  (3) 
8

>  <r_i_glide_eff_state_penalty>  (3) 
0

>  <ligand_id>  (3) 
0

>  <original_smiles>  (3) 
CC1C2CCC3(C)OC(=O)C4C(C)(C)CCC1C24O3

>  <smiles>  (3) 
[H]C([H])([H])C12OC(=O)C3([H])C4(O1)C([H])(C([H])([H])C2([H])[H])C([H])(C([H])([H])[H])C4([H])C([H])([H])C([H])([H])C3(C([H])([H])[H])C([H])([H])[H]

$$$$
1:0:0
     RDKit          3D

 68 74  0  0  1  0  0  0  0  0999 V2000
    1.5528   -9.3482    5.2105 C   0  0  0  0  0  0  0  0  0  0  0  0
    1.9188   -9.0345    3.7444 C   0  0  0  0  0  0  0  0  0  0  0  0
    1.3726  -10.2142    2.8848 C   0  0  0  0  0  0  0  0  0  0  0  0
    1.2979   -7.7172    3.3373 C   0  0  2  0  0  0  0  0  0  0  0  0
   -0.1223   -7.3379    2.9105 C   0  0  1  0  0  0  0  0  0  0  0  0
   -0.9542   -6.7214    3.8440 O   0  0  0  0  0  0  0  0  0  0  0  0
    0.4942   -6.4208    1.9473 O   0  0  0  0  0  0  0  0  0  0  0  0
    1.6392   -7.3194    1.9332 C   0  0  1  0  0  0  0  0  0  0  0  0
    3.0866   -6.9364    1.8879 C   0  0  1  0  0  0  0  0  0  0  0  0
    3.4961   -6.0852    0.8438 O   0  0  0  0  0  0  0  0  0  0  0  0
    3.5780   -5.5627    2.2036 C   0  0  1  0  0  0  0  0  0  0  0  0
    2.7671   -4.3290    2.4324 C   0  0  2  0  0  0  0  0  0  0  0  0
    2.2977   -3.6387    1.2626 O   0  0  0  0  0  0  0  0  0  0  0  0
    3.2802   -2.9506    2.0498 C   0  0  2  0  0  0  0  0  0  0  0  0
    4.6689   -2.7475    1.3577 C   0  0  0  0  0  0  0  0  0  0  0  0
    5.8025   -2.9028    2.3931 C   0  0  0  0  0  0  0  0  0  0  0  0
    4.9732   -3.7415    0.2132 C   0  0  0  0  0  0  0  0  0  0  0  0
    4.7693   -1.3576    0.7461 C   0  0  0  0  0  0  0  0  0  0  0  0
    3.9397   -0.3292    0.9692 C   0  0  0  0  0  0  0  0  0  0  0  0
    2.8283   -0.4364    1.9177 C   0  0  0  0  0  0  0  0  0  0  0  0
    2.0110    0.4727    2.0644 O   0  0  0  0  0  0  0  0  0  0  0  0
    2.7540   -1.7048    2.8126 C   0  0  0  0  0  0  0  0  0  0  0  0
    1.3072   -1.9098    3.2985 C   0  0  0  0  0  0  0  0  0  0  0  0
    3.6000   -1.4279    4.0810 C   0  0  0  0  0  0  0  0  0  0  0  0
    4.0002   -8.1699    2.2121 C   0  0  1  0  0  0  0  0  0  0  0  0
    4.0473   -9.0792    0.9776 C   0  0  0  0  0  0  0  0  0  0  0  0
    5.4539   -7.7954    2.5748 C   0  0  2  0  0  0  0  0  0  0  0  0
    6.5523   -8.8579    2.7609 C   0  0  0  0  0  0  0  0  0  0  0  0
    6.5334   -8.7121    4.1806 O   0  0  0  0  0  0  0  0  0  0  0  0
    5.5570   -7.6635    4.0857 C   0  0  2  0  0  0  0  0  0  0  0  0
    4.2090   -8.0811    4.6684 C   0  0  0  0  0  0  0  0  0  0  0  0
    3.4768   -8.8816    3.5366 C   0  0  1  0  0  0  0  0  0  0  0  0
    0.4732   -9.4947    5.3162 H   0  0  0  0  0  0  0  0  0  0  0  0
    1.8320   -8.5264    5.8760 H   0  0  0  0  0  0  0  0  0  0  0  0
    2.0560  -10.2522    5.5540 H   0  0  0  0  0  0  0  0  0  0  0  0
    1.5964  -10.1050    1.8288 H   0  0  0  0  0  0  0  0  0  0  0  0
    0.2875  -10.2960    2.9767 H   0  0  0  0  0  0  0  0  0  0  0  0
    1.8145  -11.1594    3.2035 H   0  0  0  0  0  0  0  0  0  0  0  0
    1.6062   -6.9148    4.0362 H   0  0  0  0  0  0  0  0  0  0  0  0
   -0.6779   -8.1489    2.4069 H   0  0  0  0  0  0  0  0  0  0  0  0
   -1.1926   -7.3412    4.4894 H   0  0  0  0  0  0  0  0  0  0  0  0
    1.4206   -8.0869    1.1819 H   0  0  0  0  0  0  0  0  0  0  0  0
    4.5689   -5.4988    2.6336 H   0  0  0  0  0  0  0  0  0  0  0  0
    2.0465   -4.4125    3.2675 H   0  0  0  0  0  0  0  0  0  0  0  0
    5.6175   -3.7559    3.0503 H   0  0  0  0  0  0  0  0  0  0  0  0
    5.9216   -2.0376    3.0224 H   0  0  0  0  0  0  0  0  0  0  0  0
    6.7530   -3.0945    1.8888 H   0  0  0  0  0  0  0  0  0  0  0  0
    5.1398   -4.7515    0.5806 H   0  0  0  0  0  0  0  0  0  0  0  0
    5.8857   -3.4851   -0.3139 H   0  0  0  0  0  0  0  0  0  0  0  0
    4.1847   -3.7678   -0.5355 H   0  0  0  0  0  0  0  0  0  0  0  0
    5.5756   -1.2023    0.0445 H   0  0  0  0  0  0  0  0  0  0  0  0
    4.0799    0.6284    0.4862 H   0  0  0  0  0  0  0  0  0  0  0  0
    1.2339   -2.6785    4.0658 H   0  0  0  0  0  0  0  0  0  0  0  0
    0.6469   -2.2093    2.4825 H   0  0  0  0  0  0  0  0  0  0  0  0
    0.8727   -1.0203    3.7397 H   0  0  0  0  0  0  0  0  0  0  0  0
    3.8181   -2.3642    4.6021 H   0  0  0  0  0  0  0  0  0  0  0  0
    3.0686   -0.7904    4.7870 H   0  0  0  0  0  0  0  0  0  0  0  0
    4.5443   -0.9515    3.8590 H   0  0  0  0  0  0  0  0  0  0  0  0
    4.4291  -10.0641    1.2215 H   0  0  0  0  0  0  0  0  0  0  0  0
    4.7115   -8.6479    0.2179 H   0  0  0  0  0  0  0  0  0  0  0  0
    3.0907   -9.2260    0.4816 H   0  0  0  0  0  0  0  0  0  0  0  0
    5.8908   -6.9731    2.0090 H   0  0  0  0  0  0  0  0  0  0  0  0
    6.2662   -9.8693    2.4352 H   0  0  0  0  0  0  0  0  0  0  0  0
    7.5172   -8.5659    2.3217 H   0  0  0  0  0  0  0  0  0  0  0  0
    5.9476   -6.6947    4.4306 H   0  0  0  0  0  0  0  0  0  0  0  0
    4.3355   -8.6535    5.5878 H   0  0  0  0  0  0  0  0  0  0  0  0
    3.6537   -7.1769    4.9194 H   0  0  0  0  0  0  0  0  0  0  0  0
    3.9186   -9.8830    3.5718 H   0  0  0  0  0  0  0  0  0  0  0  0
  1  2  1  0
  1 33  1  0
  1 34  1  0
  1 35  1  0
  2 32  1  0
  2  3  1  0
  2  4  1  0
  3 36  1  0
  3 37  1  0
  3 38  1  0
  4  8  1  0
  4  5  1  0
  4 39  1  1
  5  6  1  0
  5  7  1  0
  5 40  1  6
  6 41  1  0
  7  8  1  0
  8  9  1  0
  8 42  1  6
  9 11  1  0
  9 10  1  6
  9 25  1  0
 10 11  1  0
 11 12  1  0
 11 43  1  1
 12 14  1  0
 12 13  1  0
 12 44  1  1
 14 13  1  6
 14 22  1  0
 14 15  1  0
 15 16  1  0
 15 17  1  0
 15 18  1  0
 16 45  1  0
 16 46  1  0
 16 47  1  0
 17 48  1  0
 17 49  1  0
 17 50  1  0
 18 19  2  0
 18 51  1  0
 19 20  1  0
 19 52  1  0
 20 21  2  0
 20 22  1  0
 22 23  1  0
 22 24  1  0
 23 53  1  0
 23 54  1  0
 23 55  1  0
 24 56  1  0
 24 57  1  0
 24 58  1  0
 25 32  1  0
 25 26  1  6
 25 27  1  0
 26 59  1  0
 26 60  1  0
 26 61  1  0
 27 30  1  0
 27 28  1  0
 27 62  1  6
 28 29  1  0
 28 63  1  0
 28 64  1  0
 29 30  1  0
 30 31  1  0
 30 65  1  6
 31 32  1  0
 31 66  1  0
 31 67  1  0
 32 68  1  6
M  END
>  <i_m_ct_stereo_status>  (4) 
1

>  <s_m_source_file>  (4) 
/var/tmp/pbs.5076255.sched01/tmp5vb4dkz1/0x5hafel7.sdf

>  <i_m_source_file_index>  (4) 
2

>  <i_lp_mmshare_version>  (4) 
48012

>  <i_f3d_flags>  (4) 
0

>  <s_epik_input>  (4) 
W0NIMl0xT1tDQEhdKFtDSDJdMilbQ0BASF0xW0NAQF0zKFtDSDNdKVtDQEBIXTJDKFtDSDNdKShbQ0gzXSlbQ0BIXShbQ0BIXShPNClbT0hdKVtDQEBIXTRbQ0BdMzVPW0NASF01W0NASF0oTzYpW0NAQF02N0MoW0NIM10pKFtDSDNdKVtDSF09W0NIXUMoPU8pQzcoW0NIM10pW0NIM10=

>  <s_epik_cmdline>  (4) 
J2VwaWtfcHl0aG9uJywgJy1waHQnLCAnMi4wJywgJy1waCcsICc3LjAnLCAnLXRuJywgJzgnLCAnLW1hJywgJzIwMCcsICctaW1hZScsICc8aW5maWxlLm1hZT4nLCAnLW9tYWUnLCAnPG91dGZpbGUubWFlPic=

>  <r_lp_tautomer_probability>  (4) 
1

>  <r_epik_Ionization_Penalty>  (4) 
3.13119e-08

>  <r_epik_Ionization_Penalty_Charging>  (4) 
0

>  <r_epik_Ionization_Penalty_Neutral>  (4) 
3.13119e-08

>  <r_epik_State_Penalty>  (4) 
-0

>  <r_epik_Charging_Adjusted_Penalty>  (4) 
0

>  <i_epik_Tot_Q>  (4) 
0

>  <i_epik_Tot_abs_Q>  (4) 
0

>  <s_epik_Chemistry_Notes>  (4) 
This compound contains an acetal/aminal-like group ( X-CH(R)-Y where X, Y are N, S, or O) that may be acid/base labile, releasing an aldehyde.

>  <s_lp_Force_Field>  (4) 
OPLS3e

>  <r_lp_Energy>  (4) 
77.5398

>  <b_lp_Chiralities_Consistent>  (4) 
1

>  <s_lp_Variant>  (4) 
1:0-1

>  <s_i_glide_gridfile>  (4) 
pfpi4k_grid

>  <i_i_glide_lignum>  (4) 
2

>  <i_i_glide_rotatable_bonds>  (4) 
2

>  <r_i_docking_score>  (4) 
-2.75166

>  <r_i_glide_ligand_efficiency>  (4) 
-0.0859893

>  <r_i_glide_ligand_efficiency_sa>  (4) 
-0.272999

>  <r_i_glide_ligand_efficiency_ln>  (4) 
-0.616171

>  <r_i_glide_gscore>  (4) 
-2.75166

>  <r_i_glide_lipo>  (4) 
-0.39102

>  <r_i_glide_hbond>  (4) 
-0.106175

>  <r_i_glide_metal>  (4) 
-0

>  <r_i_glide_rewards>  (4) 
-0.377997

>  <r_i_glide_evdw>  (4) 
-29.2106

>  <r_i_glide_ecoul>  (4) 
-2.84058

>  <r_i_glide_erotb>  (4) 
0.101202

>  <r_i_glide_esite>  (4) 
-0.0910505

>  <r_i_glide_emodel>  (4) 
-34.7446

>  <r_i_glide_energy>  (4) 
-32.0512

>  <r_i_glide_einternal>  (4) 
4.25978

>  <r_i_glide_intrahb_reward>  (4) 
-0

>  <i_i_glide_confnum>  (4) 
3

>  <i_i_glide_posenum>  (4) 
7

>  <r_i_glide_eff_state_penalty>  (4) 
0

>  <ligand_id>  (4) 
1

>  <original_smiles>  (4) 
CC1(C)C2C(O)OC2C2(OC2C2OC23C(C)(C)C=CC(=O)C3(C)C)C2(C)C3COC3CC12

>  <smiles>  (4) 
[H]OC1([H])OC2([H])C1([H])C(C([H])([H])[H])(C([H])([H])[H])C1([H])C([H])([H])C3([H])OC([H])([H])C3([H])C1(C([H])([H])[H])C21OC1([H])C1([H])OC12C(C([H])([H])[H])(C([H])([H])[H])C(=O)C([H])=C([H])C2(C([H])([H])[H])C([H])([H])[H]

$$$$
1:0:1
     RDKit          3D

 68 74  0  0  1  0  0  0  0  0999 V2000
    2.9191    2.8513    5.2260 C   0  0  0  0  0  0  0  0  0  0  0  0
    2.2162    1.4906    5.2486 C   0  0  0  0  0  0  0  0  0  0  0  0
    0.8520    1.6644    5.9489 C   0  0  0  0  0  0  0  0  0  0  0  0
    2.0348    1.0105    3.8145 C   0  0  2  0  0  0  0  0  0  0  0  0
    1.0191    1.3217    2.7313 C   0  0  1  0  0  0  0  0  0  0  0  0
    1.4430    2.1684    1.6438 O   0  0  0  0  0  0  0  0  0  0  0  0
    1.0312   -0.0913    2.3854 O   0  0  0  0  0  0  0  0  0  0  0  0
    1.4097   -0.3621    3.7663 C   0  0  1  0  0  0  0  0  0  0  0  0
    2.4183   -1.3612    4.2562 C   0  0  1  0  0  0  0  0  0  0  0  0
    2.2853   -2.6729    3.8340 O   0  0  0  0  0  0  0  0  0  0  0  0
    3.4500   -1.9351    3.3341 C   0  0  1  0  0  0  0  0  0  0  0  0
    3.5425   -1.8803    1.8624 C   0  0  2  0  0  0  0  0  0  0  0  0
    2.6871   -2.7731    1.1231 O   0  0  0  0  0  0  0  0  0  0  0  0
    4.1090   -3.0399    1.0215 C   0  0  2  0  0  0  0  0  0  0  0  0
    4.5934   -4.4013    1.6395 C   0  0  0  0  0  0  0  0  0  0  0  0
    4.1803   -4.6361    3.1144 C   0  0  0  0  0  0  0  0  0  0  0  0
    3.9894   -5.6516    0.9441 C   0  0  0  0  0  0  0  0  0  0  0  0
    6.1269   -4.4347    1.5762 C   0  0  0  0  0  0  0  0  0  0  0  0
    6.9076   -3.6341    0.8200 C   0  0  0  0  0  0  0  0  0  0  0  0
    6.3274   -2.6562   -0.0988 C   0  0  0  0  0  0  0  0  0  0  0  0
    7.0249   -1.8654   -0.7347 O   0  0  0  0  0  0  0  0  0  0  0  0
    4.8006   -2.7235   -0.3417 C   0  0  0  0  0  0  0  0  0  0  0  0
    4.5423   -3.7333   -1.4854 C   0  0  0  0  0  0  0  0  0  0  0  0
    4.2986   -1.3628   -0.8770 C   0  0  0  0  0  0  0  0  0  0  0  0
    2.7297   -1.1447    5.7583 C   0  0  1  0  0  0  0  0  0  0  0  0
    1.5424   -1.6701    6.5952 C   0  0  0  0  0  0  0  0  0  0  0  0
    4.0064   -1.8751    6.2349 C   0  0  2  0  0  0  0  0  0  0  0  0
    4.4030   -1.9327    7.7126 C   0  0  0  0  0  0  0  0  0  0  0  0
    5.4529   -0.9636    7.5218 O   0  0  0  0  0  0  0  0  0  0  0  0
    5.1772   -0.9183    6.1023 C   0  0  2  0  0  0  0  0  0  0  0  0
    4.6188    0.4301    5.6759 C   0  0  0  0  0  0  0  0  0  0  0  0
    3.0885    0.3920    5.9878 C   0  0  1  0  0  0  0  0  0  0  0  0
    2.2890    3.5939    4.7426 H   0  0  0  0  0  0  0  0  0  0  0  0
    3.8572    2.8238    4.6704 H   0  0  0  0  0  0  0  0  0  0  0  0
    3.1313    3.1878    6.2369 H   0  0  0  0  0  0  0  0  0  0  0  0
    0.2747    0.7487    6.0338 H   0  0  0  0  0  0  0  0  0  0  0  0
    0.2310    2.3768    5.4132 H   0  0  0  0  0  0  0  0  0  0  0  0
    0.9905    2.0382    6.9575 H   0  0  0  0  0  0  0  0  0  0  0  0
    3.0028    0.9665    3.2975 H   0  0  0  0  0  0  0  0  0  0  0  0
    0.0401    1.6602    3.1356 H   0  0  0  0  0  0  0  0  0  0  0  0
    0.7502    2.7742    1.5141 H   0  0  0  0  0  0  0  0  0  0  0  0
    0.4597   -0.4719    4.3054 H   0  0  0  0  0  0  0  0  0  0  0  0
    4.3914   -2.0656    3.8220 H   0  0  0  0  0  0  0  0  0  0  0  0
    3.6438   -0.8614    1.5002 H   0  0  0  0  0  0  0  0  0  0  0  0
    3.1085   -4.4886    3.1386 H   0  0  0  0  0  0  0  0  0  0  0  0
    4.7379   -3.9874    3.8022 H   0  0  0  0  0  0  0  0  0  0  0  0
    4.3180   -5.6493    3.4476 H   0  0  0  0  0  0  0  0  0  0  0  0
    2.8951   -5.5982    0.9829 H   0  0  0  0  0  0  0  0  0  0  0  0
    4.3360   -6.5406    1.4831 H   0  0  0  0  0  0  0  0  0  0  0  0
    4.2792   -5.8416   -0.0655 H   0  0  0  0  0  0  0  0  0  0  0  0
    6.5940   -5.1347    2.2607 H   0  0  0  0  0  0  0  0  0  0  0  0
    7.9812   -3.7183    0.8698 H   0  0  0  0  0  0  0  0  0  0  0  0
    3.4777   -3.8001   -1.7111 H   0  0  0  0  0  0  0  0  0  0  0  0
    4.9598   -4.6968   -1.3016 H   0  0  0  0  0  0  0  0  0  0  0  0
    5.0784   -3.4497   -2.3912 H   0  0  0  0  0  0  0  0  0  0  0  0
    3.1972   -1.3463   -0.8713 H   0  0  0  0  0  0  0  0  0  0  0  0
    4.6228   -1.1885   -1.9040 H   0  0  0  0  0  0  0  0  0  0  0  0
    4.6603   -0.5116   -0.2767 H   0  0  0  0  0  0  0  0  0  0  0  0
    1.5744   -1.2943    7.6155 H   0  0  0  0  0  0  0  0  0  0  0  0
    1.5778   -2.7609    6.6425 H   0  0  0  0  0  0  0  0  0  0  0  0
    0.5666   -1.4255    6.1831 H   0  0  0  0  0  0  0  0  0  0  0  0
    4.1737   -2.8618    5.7983 H   0  0  0  0  0  0  0  0  0  0  0  0
    3.6398   -1.5697    8.4009 H   0  0  0  0  0  0  0  0  0  0  0  0
    4.7875   -2.9010    8.0480 H   0  0  0  0  0  0  0  0  0  0  0  0
    6.0355   -1.2860    5.5288 H   0  0  0  0  0  0  0  0  0  0  0  0
    5.1260    1.2489    6.1756 H   0  0  0  0  0  0  0  0  0  0  0  0
    4.7954    0.5411    4.6058 H   0  0  0  0  0  0  0  0  0  0  0  0
    3.0105    0.5683    7.0637 H   0  0  0  0  0  0  0  0  0  0  0  0
  1  2  1  0
  1 33  1  0
  1 34  1  0
  1 35  1  0
  2 32  1  0
  2  3  1  0
  2  4  1  0
  3 36  1  0
  3 37  1  0
  3 38  1  0
  4  8  1  0
  4  5  1  0
  4 39  1  6
  5  6  1  0
  5  7  1  0
  5 40  1  1
  6 41  1  0
  7  8  1  0
  8  9  1  0
  8 42  1  1
  9 11  1  0
  9 10  1  1
  9 25  1  0
 10 11  1  0
 11 12  1  0
 11 43  1  1
 12 14  1  0
 12 13  1  0
 12 44  1  6
 14 13  1  6
 14 22  1  0
 14 15  1  0
 15 16  1  0
 15 17  1  0
 15 18  1  0
 16 45  1  0
 16 46  1  0
 16 47  1  0
 17 48  1  0
 17 49  1  0
 17 50  1  0
 18 19  2  0
 18 51  1  0
 19 20  1  0
 19 52  1  0
 20 21  2  0
 20 22  1  0
 22 23  1  0
 22 24  1  0
 23 53  1  0
 23 54  1  0
 23 55  1  0
 24 56  1  0
 24 57  1  0
 24 58  1  0
 25 32  1  0
 25 26  1  1
 25 27  1  0
 26 59  1  0
 26 60  1  0
 26 61  1  0
 27 30  1  0
 27 28  1  0
 27 62  1  6
 28 29  1  0
 28 63  1  0
 28 64  1  0
 29 30  1  0
 30 31  1  0
 30 65  1  6
 31 32  1  0
 31 66  1  0
 31 67  1  0
 32 68  1  1
M  END
>  <i_m_ct_stereo_status>  (5) 
1

>  <s_m_source_file>  (5) 
/var/tmp/pbs.5076255.sched01/tmp5vb4dkz1/0x5hafel7.sdf

>  <i_m_source_file_index>  (5) 
2

>  <i_lp_mmshare_version>  (5) 
48012

>  <i_f3d_flags>  (5) 
0

>  <s_epik_input>  (5) 
W0NIMl0xT1tDQEhdKFtDSDJdMilbQ0BASF0xW0NAQF0zKFtDSDNdKVtDQEBIXTJDKFtDSDNdKShbQ0gzXSlbQ0BIXShbQ0BIXShPNClbT0hdKVtDQEBIXTRbQ0BdMzVPW0NASF01W0NASF0oTzYpW0NAQF02N0MoW0NIM10pKFtDSDNdKVtDSF09W0NIXUMoPU8pQzcoW0NIM10pW0NIM10=

>  <s_epik_cmdline>  (5) 
J2VwaWtfcHl0aG9uJywgJy1waHQnLCAnMi4wJywgJy1waCcsICc3LjAnLCAnLXRuJywgJzgnLCAnLW1hJywgJzIwMCcsICctaW1hZScsICc8aW5maWxlLm1hZT4nLCAnLW9tYWUnLCAnPG91dGZpbGUubWFlPic=

>  <r_lp_tautomer_probability>  (5) 
1

>  <r_epik_Ionization_Penalty>  (5) 
3.13119e-08

>  <r_epik_Ionization_Penalty_Charging>  (5) 
0

>  <r_epik_Ionization_Penalty_Neutral>  (5) 
3.13119e-08

>  <r_epik_State_Penalty>  (5) 
-0

>  <r_epik_Charging_Adjusted_Penalty>  (5) 
0

>  <i_epik_Tot_Q>  (5) 
0

>  <i_epik_Tot_abs_Q>  (5) 
0

>  <s_epik_Chemistry_Notes>  (5) 
This compound contains an acetal/aminal-like group ( X-CH(R)-Y where X, Y are N, S, or O) that may be acid/base labile, releasing an aldehyde.

>  <s_lp_Force_Field>  (5) 
OPLS3e

>  <r_lp_Energy>  (5) 
77.5398

>  <b_lp_Chiralities_Consistent>  (5) 
1

>  <s_lp_Variant>  (5) 
1:0-1

>  <s_i_glide_gridfile>  (5) 
pfpi4k_grid

>  <i_i_glide_lignum>  (5) 
2

>  <i_i_glide_rotatable_bonds>  (5) 
2

>  <r_i_docking_score>  (5) 
-2.46536

>  <r_i_glide_ligand_efficiency>  (5) 
-0.0770423

>  <r_i_glide_ligand_efficiency_sa>  (5) 
-0.244594

>  <r_i_glide_ligand_efficiency_ln>  (5) 
-0.55206

>  <r_i_glide_gscore>  (5) 
-2.46536

>  <r_i_glide_lipo>  (5) 
-0.265773

>  <r_i_glide_hbond>  (5) 
-0.16

>  <r_i_glide_metal>  (5) 
-0

>  <r_i_glide_rewards>  (5) 
-0.409219

>  <r_i_glide_evdw>  (5) 
-22.3097

>  <r_i_glide_ecoul>  (5) 
-3.8621

>  <r_i_glide_erotb>  (5) 
0.101202

>  <r_i_glide_esite>  (5) 
-0.0367637

>  <r_i_glide_emodel>  (5) 
-25.765

>  <r_i_glide_energy>  (5) 
-26.1718

>  <r_i_glide_einternal>  (5) 
5.98248

>  <r_i_glide_intrahb_reward>  (5) 
-0

>  <i_i_glide_confnum>  (5) 
2

>  <i_i_glide_posenum>  (5) 
3

>  <r_i_glide_eff_state_penalty>  (5) 
0

>  <ligand_id>  (5) 
1

>  <original_smiles>  (5) 
CC1(C)C2C(O)OC2C2(OC2C2OC23C(C)(C)C=CC(=O)C3(C)C)C2(C)C3COC3CC12

>  <smiles>  (5) 
[H]OC1([H])OC2([H])C1([H])C(C([H])([H])[H])(C([H])([H])[H])C1([H])C([H])([H])C3([H])OC([H])([H])C3([H])C1(C([H])([H])[H])C21OC1([H])C1([H])OC12C(C([H])([H])[H])(C([H])([H])[H])C(=O)C([H])=C([H])C2(C([H])([H])[H])C([H])([H])[H]

$$$$
1:0:2
     RDKit          3D

 68 74  0  0  1  0  0  0  0  0999 V2000
    6.0778   -5.9348    2.1740 C   0  0  0  0  0  0  0  0  0  0  0  0
    4.8219   -5.3826    1.4854 C   0  0  0  0  0  0  0  0  0  0  0  0
    4.3203   -6.4438    0.4796 C   0  0  0  0  0  0  0  0  0  0  0  0
    3.7718   -5.0772    2.5494 C   0  0  2  0  0  0  0  0  0  0  0  0
    2.7691   -5.9487    3.2948 C   0  0  1  0  0  0  0  0  0  0  0  0
    3.0508   -6.2667    4.6332 O   0  0  0  0  0  0  0  0  0  0  0  0
    1.8153   -4.8517    3.1506 O   0  0  0  0  0  0  0  0  0  0  0  0
    2.5321   -4.4767    1.9478 C   0  0  1  0  0  0  0  0  0  0  0  0
    2.7940   -3.0538    1.4960 C   0  0  1  0  0  0  0  0  0  0  0  0
    1.6956   -2.1814    1.4504 O   0  0  0  0  0  0  0  0  0  0  0  0
    2.7299   -1.8885    2.4334 C   0  0  1  0  0  0  0  0  0  0  0  0
    2.2053   -1.8435    3.8189 C   0  0  2  0  0  0  0  0  0  0  0  0
    0.7673   -1.7510    3.9401 O   0  0  0  0  0  0  0  0  0  0  0  0
    1.5276   -0.5931    4.3478 C   0  0  2  0  0  0  0  0  0  0  0  0
    1.3133    0.6914    3.4660 C   0  0  0  0  0  0  0  0  0  0  0  0
    2.6436    1.4765    3.3282 C   0  0  0  0  0  0  0  0  0  0  0  0
    0.8097    0.3885    2.0190 C   0  0  0  0  0  0  0  0  0  0  0  0
    0.2694    1.6083    4.1018 C   0  0  0  0  0  0  0  0  0  0  0  0
   -0.2118    1.5209    5.3664 C   0  0  0  0  0  0  0  0  0  0  0  0
    0.2868    0.5045    6.2876 C   0  0  0  0  0  0  0  0  0  0  0  0
   -0.2379    0.3576    7.4018 O   0  0  0  0  0  0  0  0  0  0  0  0
    1.5302   -0.3169    5.8822 C   0  0  0  0  0  0  0  0  0  0  0  0
    1.5478   -1.6558    6.6795 C   0  0  0  0  0  0  0  0  0  0  0  0
    2.8044    0.4622    6.2870 C   0  0  0  0  0  0  0  0  0  0  0  0
    3.8559   -3.0792    0.3411 C   0  0  1  0  0  0  0  0  0  0  0  0
    3.1504   -3.5072   -0.9646 C   0  0  0  0  0  0  0  0  0  0  0  0
    4.5378   -1.7115    0.0775 C   0  0  2  0  0  0  0  0  0  0  0  0
    5.4351   -1.4658   -1.1360 C   0  0  0  0  0  0  0  0  0  0  0  0
    6.6316   -1.4705   -0.3097 O   0  0  0  0  0  0  0  0  0  0  0  0
    5.8168   -1.6449    0.8855 C   0  0  2  0  0  0  0  0  0  0  0  0
    6.0272   -3.0142    1.5164 C   0  0  0  0  0  0  0  0  0  0  0  0
    5.1056   -4.0087    0.7341 C   0  0  1  0  0  0  0  0  0  0  0  0
    5.8526   -6.8899    2.6440 H   0  0  0  0  0  0  0  0  0  0  0  0
    6.4336   -5.2629    2.9586 H   0  0  0  0  0  0  0  0  0  0  0  0
    6.8750   -6.0755    1.4474 H   0  0  0  0  0  0  0  0  0  0  0  0
    3.4393   -6.1342   -0.0778 H   0  0  0  0  0  0  0  0  0  0  0  0
    4.0674   -7.3700    0.9910 H   0  0  0  0  0  0  0  0  0  0  0  0
    5.0901   -6.6520   -0.2590 H   0  0  0  0  0  0  0  0  0  0  0  0
    4.1606   -4.3988    3.3061 H   0  0  0  0  0  0  0  0  0  0  0  0
    2.4577   -6.8483    2.7470 H   0  0  0  0  0  0  0  0  0  0  0  0
    3.6152   -7.0215    4.6367 H   0  0  0  0  0  0  0  0  0  0  0  0
    2.1003   -5.0487    1.1265 H   0  0  0  0  0  0  0  0  0  0  0  0
    3.4197   -1.1014    2.1883 H   0  0  0  0  0  0  0  0  0  0  0  0
    2.7296   -2.5122    4.5029 H   0  0  0  0  0  0  0  0  0  0  0  0
    3.4635    0.7818    3.1242 H   0  0  0  0  0  0  0  0  0  0  0  0
    2.8884    2.0308    4.2327 H   0  0  0  0  0  0  0  0  0  0  0  0
    2.5795    2.1522    2.4606 H   0  0  0  0  0  0  0  0  0  0  0  0
    1.5531   -0.0986    1.4215 H   0  0  0  0  0  0  0  0  0  0  0  0
    0.5397    1.3260    1.5008 H   0  0  0  0  0  0  0  0  0  0  0  0
   -0.1310   -0.1846    2.0325 H   0  0  0  0  0  0  0  0  0  0  0  0
   -0.1339    2.3735    3.4639 H   0  0  0  0  0  0  0  0  0  0  0  0
   -0.9613    2.2203    5.7208 H   0  0  0  0  0  0  0  0  0  0  0  0
    2.4893   -2.1981    6.5526 H   0  0  0  0  0  0  0  0  0  0  0  0
    0.7345   -2.3229    6.3762 H   0  0  0  0  0  0  0  0  0  0  0  0
    1.4550   -1.4995    7.7579 H   0  0  0  0  0  0  0  0  0  0  0  0
    3.6810    0.0565    5.7768 H   0  0  0  0  0  0  0  0  0  0  0  0
    2.9939    0.3700    7.3647 H   0  0  0  0  0  0  0  0  0  0  0  0
    2.7326    1.5052    6.0127 H   0  0  0  0  0  0  0  0  0  0  0  0
    3.8480   -3.8103   -1.7479 H   0  0  0  0  0  0  0  0  0  0  0  0
    2.5676   -2.6714   -1.3489 H   0  0  0  0  0  0  0  0  0  0  0  0
    2.4461   -4.3232   -0.8381 H   0  0  0  0  0  0  0  0  0  0  0  0
    3.8884   -0.8498    0.1678 H   0  0  0  0  0  0  0  0  0  0  0  0
    5.4433   -2.2689   -1.8676 H   0  0  0  0  0  0  0  0  0  0  0  0
    5.2696   -0.4945   -1.6011 H   0  0  0  0  0  0  0  0  0  0  0  0
    5.8834   -0.7775    1.5445 H   0  0  0  0  0  0  0  0  0  0  0  0
    7.0820   -3.3049    1.5085 H   0  0  0  0  0  0  0  0  0  0  0  0
    5.7162   -2.9386    2.5570 H   0  0  0  0  0  0  0  0  0  0  0  0
    5.6607   -4.2428   -0.1858 H   0  0  0  0  0  0  0  0  0  0  0  0
  1  2  1  0
  1 33  1  0
  1 34  1  0
  1 35  1  0
  2 32  1  0
  2  3  1  0
  2  4  1  0
  3 36  1  0
  3 37  1  0
  3 38  1  0
  4  8  1  0
  4  5  1  0
  4 39  1  1
  5  6  1  0
  5  7  1  0
  5 40  1  6
  6 41  1  0
  7  8  1  0
  8  9  1  0
  8 42  1  6
  9 11  1  0
  9 10  1  6
  9 25  1  0
 10 11  1  0
 11 12  1  0
 11 43  1  6
 12 14  1  0
 12 13  1  0
 12 44  1  1
 14 13  1  1
 14 22  1  0
 14 15  1  0
 15 16  1  0
 15 17  1  0
 15 18  1  0
 16 45  1  0
 16 46  1  0
 16 47  1  0
 17 48  1  0
 17 49  1  0
 17 50  1  0
 18 19  2  0
 18 51  1  0
 19 20  1  0
 19 52  1  0
 20 21  2  0
 20 22  1  0
 22 23  1  0
 22 24  1  0
 23 53  1  0
 23 54  1  0
 23 55  1  0
 24 56  1  0
 24 57  1  0
 24 58  1  0
 25 32  1  0
 25 26  1  6
 25 27  1  0
 26 59  1  0
 26 60  1  0
 26 61  1  0
 27 30  1  0
 27 28  1  0
 27 62  1  1
 28 29  1  0
 28 63  1  0
 28 64  1  0
 29 30  1  0
 30 31  1  0
 30 65  1  1
 31 32  1  0
 31 66  1  0
 31 67  1  0
 32 68  1  6
M  END
>  <i_m_ct_stereo_status>  (6) 
1

>  <s_m_source_file>  (6) 
/var/tmp/pbs.5076255.sched01/tmp5vb4dkz1/0x5hafel7.sdf

>  <i_m_source_file_index>  (6) 
2

>  <i_lp_mmshare_version>  (6) 
48012

>  <i_f3d_flags>  (6) 
0

>  <s_epik_input>  (6) 
W0NIMl0xT1tDQEhdKFtDSDJdMilbQ0BASF0xW0NAQF0zKFtDSDNdKVtDQEBIXTJDKFtDSDNdKShbQ0gzXSlbQ0BIXShbQ0BIXShPNClbT0hdKVtDQEBIXTRbQ0BdMzVPW0NASF01W0NASF0oTzYpW0NAQF02N0MoW0NIM10pKFtDSDNdKVtDSF09W0NIXUMoPU8pQzcoW0NIM10pW0NIM10=

>  <s_epik_cmdline>  (6) 
J2VwaWtfcHl0aG9uJywgJy1waHQnLCAnMi4wJywgJy1waCcsICc3LjAnLCAnLXRuJywgJzgnLCAnLW1hJywgJzIwMCcsICctaW1hZScsICc8aW5maWxlLm1hZT4nLCAnLW9tYWUnLCAnPG91dGZpbGUubWFlPic=

>  <r_lp_tautomer_probability>  (6) 
1

>  <r_epik_Ionization_Penalty>  (6) 
3.13119e-08

>  <r_epik_Ionization_Penalty_Charging>  (6) 
0

>  <r_epik_Ionization_Penalty_Neutral>  (6) 
3.13119e-08

>  <r_epik_State_Penalty>  (6) 
-0

>  <r_epik_Charging_Adjusted_Penalty>  (6) 
0

>  <i_epik_Tot_Q>  (6) 
0

>  <i_epik_Tot_abs_Q>  (6) 
0

>  <s_epik_Chemistry_Notes>  (6) 
This compound contains an acetal/aminal-like group ( X-CH(R)-Y where X, Y are N, S, or O) that may be acid/base labile, releasing an aldehyde.

>  <s_lp_Force_Field>  (6) 
OPLS3e

>  <r_lp_Energy>  (6) 
77.5398

>  <b_lp_Chiralities_Consistent>  (6) 
1

>  <s_lp_Variant>  (6) 
1:0-1

>  <s_i_glide_gridfile>  (6) 
pfpi4k_grid

>  <i_i_glide_lignum>  (6) 
2

>  <i_i_glide_rotatable_bonds>  (6) 
2

>  <r_i_docking_score>  (6) 
-2.28035

>  <r_i_glide_ligand_efficiency>  (6) 
-0.0712609

>  <r_i_glide_ligand_efficiency_sa>  (6) 
-0.226239

>  <r_i_glide_ligand_efficiency_ln>  (6) 
-0.510632

>  <r_i_glide_gscore>  (6) 
-2.28035

>  <r_i_glide_lipo>  (6) 
-0.52663

>  <r_i_glide_hbond>  (6) 
-0.115439

>  <r_i_glide_metal>  (6) 
-0

>  <r_i_glide_rewards>  (6) 
-0.377997

>  <r_i_glide_evdw>  (6) 
-24.8669

>  <r_i_glide_ecoul>  (6) 
-0.712923

>  <r_i_glide_erotb>  (6) 
0.101202

>  <r_i_glide_esite>  (6) 
-0.0112006

>  <r_i_glide_emodel>  (6) 
-26.6501

>  <r_i_glide_energy>  (6) 
-25.5798

>  <r_i_glide_einternal>  (6) 
4.35589

>  <r_i_glide_intrahb_reward>  (6) 
-0

>  <i_i_glide_confnum>  (6) 
3

>  <i_i_glide_posenum>  (6) 
21

>  <r_i_glide_eff_state_penalty>  (6) 
0

>  <ligand_id>  (6) 
1

>  <original_smiles>  (6) 
CC1(C)C2C(O)OC2C2(OC2C2OC23C(C)(C)C=CC(=O)C3(C)C)C2(C)C3COC3CC12

>  <smiles>  (6) 
[H]OC1([H])OC2([H])C1([H])C(C([H])([H])[H])(C([H])([H])[H])C1([H])C([H])([H])C3([H])OC([H])([H])C3([H])C1(C([H])([H])[H])C21OC1([H])C1([H])OC12C(C([H])([H])[H])(C([H])([H])[H])C(=O)C([H])=C([H])C2(C([H])([H])[H])C([H])([H])[H]

$$$$
2:0:0
     RDKit          3D

 20 21  0  0  1  0  0  0  0  0999 V2000
    2.4301   -2.9172   -3.2492 C   0  0  0  0  0  0  0  0  0  0  0  0
    3.6643   -3.0450   -2.4970 N   0  0  0  0  0  0  0  0  0  0  0  0
    4.8598   -2.8764   -3.1100 N   0  0  0  0  0  0  0  0  0  0  0  0
    5.7736   -3.0509   -2.2036 N   0  0  0  0  0  0  0  0  0  0  0  0
    5.2127   -3.3377   -0.9722 N   0  0  0  0  0  0  0  0  0  0  0  0
    3.9079   -3.3264   -1.2119 C   0  0  0  0  0  0  0  0  0  0  0  0
    2.6517   -3.6630   -0.0287 S   0  0  0  0  0  0  0  0  0  0  0  0
    3.2648   -5.2776    0.5301 C   0  0  0  0  0  0  0  0  0  0  0  0
    2.1903   -6.0593    1.1172 N   0  0  0  0  0  0  0  0  0  0  0  0
    2.1699   -6.7752    2.2429 C   0  0  0  0  0  0  0  0  0  0  0  0
    1.0337   -7.4247    2.4451 N   0  0  0  0  0  0  0  0  0  0  0  0
    0.3627   -7.0854    1.3098 C   0  0  0  0  0  0  0  0  0  0  0  0
    1.0028   -6.2569    0.4814 N   0  0  0  0  0  0  0  0  0  0  0  0
    1.5964   -3.3775   -2.7175 H   0  0  0  0  0  0  0  0  0  0  0  0
    2.5416   -3.4087   -4.2148 H   0  0  0  0  0  0  0  0  0  0  0  0
    2.2170   -1.8616   -3.4145 H   0  0  0  0  0  0  0  0  0  0  0  0
    3.6716   -5.8319   -0.3174 H   0  0  0  0  0  0  0  0  0  0  0  0
    4.0713   -5.1321    1.2548 H   0  0  0  0  0  0  0  0  0  0  0  0
    3.0104   -6.8338    2.9202 H   0  0  0  0  0  0  0  0  0  0  0  0
   -0.6336   -7.4399    1.0997 H   0  0  0  0  0  0  0  0  0  0  0  0
  1  2  1  0
  1 14  1  0
  1 15  1  0
  1 16  1  0
  2  6  1  0
  2  3  1  0
  3  4  2  0
  4  5  1  0
  5  6  2  0
  6  7  1  0
  7  8  1  0
  8  9  1  0
  8 17  1  0
  8 18  1  0
  9 13  1  0
  9 10  1  0
 10 11  2  0
 10 19  1  0
 11 12  1  0
 12 13  2  0
 12 20  1  0
M  END
>  <i_m_ct_stereo_status>  (7) 
1

>  <s_m_source_file>  (7) 
/var/tmp/pbs.5076255.sched01/tmp5vb4dkz1/0x5hafel7.sdf

>  <i_m_source_file_index>  (7) 
3

>  <i_lp_mmshare_version>  (7) 
48012

>  <i_f3d_flags>  (7) 
0

>  <s_epik_input>  (7) 
W0NIM11uMW5ubmMxU1tDSDJdbjJbY0hdbltjSF1uMg==

>  <s_epik_cmdline>  (7) 
J2VwaWtfcHl0aG9uJywgJy1waHQnLCAnMi4wJywgJy1waCcsICc3LjAnLCAnLXRuJywgJzgnLCAnLW1hJywgJzIwMCcsICctaW1hZScsICc8aW5maWxlLm1hZT4nLCAnLW9tYWUnLCAnPG91dGZpbGUubWFlPic=

>  <r_lp_tautomer_probability>  (7) 
1

>  <r_epik_Ionization_Penalty>  (7) 
2.55612e-06

>  <r_epik_Ionization_Penalty_Charging>  (7) 
0

>  <r_epik_Ionization_Penalty_Neutral>  (7) 
2.55612e-06

>  <r_epik_State_Penalty>  (7) 
-0

>  <r_epik_Charging_Adjusted_Penalty>  (7) 
0

>  <i_epik_Tot_Q>  (7) 
0

>  <i_epik_Tot_abs_Q>  (7) 
0

>  <s_epik_Chemistry_Notes>  (7) 
This compound contains an acetal/aminal-like group ( X-CH(R)-Y where X, Y are N, S, or O) that may be acid/base labile, releasing an aldehyde.

>  <s_lp_Force_Field>  (7) 
OPLS3e

>  <r_lp_Energy>  (7) 
7.69278

>  <b_lp_Chiralities_Consistent>  (7) 
1

>  <s_lp_Variant>  (7) 
2:0-1

>  <s_i_glide_gridfile>  (7) 
pfpi4k_grid

>  <i_i_glide_lignum>  (7) 
3

>  <i_i_glide_rotatable_bonds>  (7) 
3

>  <r_i_docking_score>  (7) 
-3.26223

>  <r_i_glide_ligand_efficiency>  (7) 
-0.250941

>  <r_i_glide_ligand_efficiency_sa>  (7) 
-0.590045

>  <r_i_glide_ligand_efficiency_ln>  (7) 
-0.915084

>  <r_i_glide_gscore>  (7) 
-3.26223

>  <r_i_glide_lipo>  (7) 
-0.163759

>  <r_i_glide_hbond>  (7) 
-0.199964

>  <r_i_glide_metal>  (7) 
-0

>  <r_i_glide_rewards>  (7) 
-2.06785

>  <r_i_glide_evdw>  (7) 
-22.859

>  <r_i_glide_ecoul>  (7) 
-5.16353

>  <r_i_glide_erotb>  (7) 
1.25387

>  <r_i_glide_esite>  (7) 
-0.167043

>  <r_i_glide_emodel>  (7) 
-33.1206

>  <r_i_glide_energy>  (7) 
-28.0226

>  <r_i_glide_einternal>  (7) 
1.53818

>  <r_i_glide_intrahb_reward>  (7) 
-0

>  <i_i_glide_confnum>  (7) 
5

>  <i_i_glide_posenum>  (7) 
39

>  <r_i_glide_eff_state_penalty>  (7) 
0

>  <ligand_id>  (7) 
2

>  <original_smiles>  (7) 
Cn1nnnc1SCn1cncn1

>  <smiles>  (7) 
[H]c1nc([H])n(C([H])([H])Sc2nnnn2C([H])([H])[H])n1

$$$$
2:0:1
     RDKit          3D

 20 21  0  0  1  0  0  0  0  0999 V2000
    1.5191   -2.6394    3.6039 C   0  0  0  0  0  0  0  0  0  0  0  0
    0.4281   -2.3204    4.5029 N   0  0  0  0  0  0  0  0  0  0  0  0
    0.0292   -3.2295    5.4246 N   0  0  0  0  0  0  0  0  0  0  0  0
   -0.9543   -2.6960    6.0877 N   0  0  0  0  0  0  0  0  0  0  0  0
   -1.2324   -1.4307    5.6248 N   0  0  0  0  0  0  0  0  0  0  0  0
   -0.3408   -1.2349    4.6560 C   0  0  0  0  0  0  0  0  0  0  0  0
   -0.1799    0.2392    3.7005 S   0  0  0  0  0  0  0  0  0  0  0  0
   -1.4054    1.2432    4.5861 C   0  0  0  0  0  0  0  0  0  0  0  0
   -1.4547    2.5942    4.0786 N   0  0  0  0  0  0  0  0  0  0  0  0
   -2.4623    3.2771    3.5420 C   0  0  0  0  0  0  0  0  0  0  0  0
   -2.1714    4.5410    3.2781 N   0  0  0  0  0  0  0  0  0  0  0  0
   -0.8554    4.5536    3.6599 C   0  0  0  0  0  0  0  0  0  0  0  0
   -0.3953    3.4282    4.2035 N   0  0  0  0  0  0  0  0  0  0  0  0
    1.5267   -1.9759    2.7386 H   0  0  0  0  0  0  0  0  0  0  0  0
    1.4139   -3.6679    3.2537 H   0  0  0  0  0  0  0  0  0  0  0  0
    2.4701   -2.5543    4.1322 H   0  0  0  0  0  0  0  0  0  0  0  0
   -2.3935    0.7878    4.4827 H   0  0  0  0  0  0  0  0  0  0  0  0
   -1.1495    1.2823    5.6471 H   0  0  0  0  0  0  0  0  0  0  0  0
   -3.4428    2.8513    3.3911 H   0  0  0  0  0  0  0  0  0  0  0  0
   -0.2352    5.4349    3.5746 H   0  0  0  0  0  0  0  0  0  0  0  0
  1  2  1  0
  1 14  1  0
  1 15  1  0
  1 16  1  0
  2  6  1  0
  2  3  1  0
  3  4  2  0
  4  5  1  0
  5  6  2  0
  6  7  1  0
  7  8  1  0
  8  9  1  0
  8 17  1  0
  8 18  1  0
  9 13  1  0
  9 10  1  0
 10 11  2  0
 10 19  1  0
 11 12  1  0
 12 13  2  0
 12 20  1  0
M  END
>  <i_m_ct_stereo_status>  (8) 
1

>  <s_m_source_file>  (8) 
/var/tmp/pbs.5076255.sched01/tmp5vb4dkz1/0x5hafel7.sdf

>  <i_m_source_file_index>  (8) 
3

>  <i_lp_mmshare_version>  (8) 
48012

>  <i_f3d_flags>  (8) 
0

>  <s_epik_input>  (8) 
W0NIM11uMW5ubmMxU1tDSDJdbjJbY0hdbltjSF1uMg==

>  <s_epik_cmdline>  (8) 
J2VwaWtfcHl0aG9uJywgJy1waHQnLCAnMi4wJywgJy1waCcsICc3LjAnLCAnLXRuJywgJzgnLCAnLW1hJywgJzIwMCcsICctaW1hZScsICc8aW5maWxlLm1hZT4nLCAnLW9tYWUnLCAnPG91dGZpbGUubWFlPic=

>  <r_lp_tautomer_probability>  (8) 
1

>  <r_epik_Ionization_Penalty>  (8) 
2.55612e-06

>  <r_epik_Ionization_Penalty_Charging>  (8) 
0

>  <r_epik_Ionization_Penalty_Neutral>  (8) 
2.55612e-06

>  <r_epik_State_Penalty>  (8) 
-0

>  <r_epik_Charging_Adjusted_Penalty>  (8) 
0

>  <i_epik_Tot_Q>  (8) 
0

>  <i_epik_Tot_abs_Q>  (8) 
0

>  <s_epik_Chemistry_Notes>  (8) 
This compound contains an acetal/aminal-like group ( X-CH(R)-Y where X, Y are N, S, or O) that may be acid/base labile, releasing an aldehyde.

>  <s_lp_Force_Field>  (8) 
OPLS3e

>  <r_lp_Energy>  (8) 
7.69278

>  <b_lp_Chiralities_Consistent>  (8) 
1

>  <s_lp_Variant>  (8) 
2:0-1

>  <s_i_glide_gridfile>  (8) 
pfpi4k_grid

>  <i_i_glide_lignum>  (8) 
3

>  <i_i_glide_rotatable_bonds>  (8) 
3

>  <r_i_docking_score>  (8) 
-3.11301

>  <r_i_glide_ligand_efficiency>  (8) 
-0.239462

>  <r_i_glide_ligand_efficiency_sa>  (8) 
-0.563056

>  <r_i_glide_ligand_efficiency_ln>  (8) 
-0.873226

>  <r_i_glide_gscore>  (8) 
-3.11301

>  <r_i_glide_lipo>  (8) 
-0.0333979

>  <r_i_glide_hbond>  (8) 
-0.16

>  <r_i_glide_metal>  (8) 
-0

>  <r_i_glide_rewards>  (8) 
-2.13057

>  <r_i_glide_evdw>  (8) 
-16.4432

>  <r_i_glide_ecoul>  (8) 
-6.13061

>  <r_i_glide_erotb>  (8) 
1.25387

>  <r_i_glide_esite>  (8) 
-0.301148

>  <r_i_glide_emodel>  (8) 
-27.9987

>  <r_i_glide_energy>  (8) 
-22.5738

>  <r_i_glide_einternal>  (8) 
0.256267

>  <r_i_glide_intrahb_reward>  (8) 
-0

>  <i_i_glide_confnum>  (8) 
1

>  <i_i_glide_posenum>  (8) 
4

>  <r_i_glide_eff_state_penalty>  (8) 
0

>  <ligand_id>  (8) 
2

>  <original_smiles>  (8) 
Cn1nnnc1SCn1cncn1

>  <smiles>  (8) 
[H]c1nc([H])n(C([H])([H])Sc2nnnn2C([H])([H])[H])n1

$$$$
2:0:2
     RDKit          3D

 20 21  0  0  1  0  0  0  0  0999 V2000
    3.8028   -1.5088   -2.4006 C   0  0  0  0  0  0  0  0  0  0  0  0
    4.6065   -2.4236   -1.6173 N   0  0  0  0  0  0  0  0  0  0  0  0
    5.9600   -2.3405   -1.6794 N   0  0  0  0  0  0  0  0  0  0  0  0
    6.4307   -3.2514   -0.8822 N   0  0  0  0  0  0  0  0  0  0  0  0
    5.4070   -3.9554   -0.2746 N   0  0  0  0  0  0  0  0  0  0  0  0
    4.2997   -3.4028   -0.7572 C   0  0  0  0  0  0  0  0  0  0  0  0
    2.6494   -3.8612   -0.3117 S   0  0  0  0  0  0  0  0  0  0  0  0
    3.0465   -5.3668    0.6264 C   0  0  0  0  0  0  0  0  0  0  0  0
    1.8586   -5.9467    1.2268 N   0  0  0  0  0  0  0  0  0  0  0  0
    1.4773   -6.0107    2.5018 C   0  0  0  0  0  0  0  0  0  0  0  0
    0.3357   -6.6636    2.6840 N   0  0  0  0  0  0  0  0  0  0  0  0
    0.0936   -7.0661    1.4013 C   0  0  0  0  0  0  0  0  0  0  0  0
    0.9244   -6.5842    0.4778 N   0  0  0  0  0  0  0  0  0  0  0  0
    2.7742   -1.8600   -2.4897 H   0  0  0  0  0  0  0  0  0  0  0  0
    4.2374   -1.4170   -3.3946 H   0  0  0  0  0  0  0  0  0  0  0  0
    3.8133   -0.5268   -1.9301 H   0  0  0  0  0  0  0  0  0  0  0  0
    3.5207   -6.1004   -0.0284 H   0  0  0  0  0  0  0  0  0  0  0  0
    3.7525   -5.1216    1.4203 H   0  0  0  0  0  0  0  0  0  0  0  0
    2.0518   -5.5786    3.3104 H   0  0  0  0  0  0  0  0  0  0  0  0
   -0.7522   -7.6800    1.1393 H   0  0  0  0  0  0  0  0  0  0  0  0
  1  2  1  0
  1 14  1  0
  1 15  1  0
  1 16  1  0
  2  6  1  0
  2  3  1  0
  3  4  2  0
  4  5  1  0
  5  6  2  0
  6  7  1  0
  7  8  1  0
  8  9  1  0
  8 17  1  0
  8 18  1  0
  9 13  1  0
  9 10  1  0
 10 11  2  0
 10 19  1  0
 11 12  1  0
 12 13  2  0
 12 20  1  0
M  END
>  <i_m_ct_stereo_status>  (9) 
1

>  <s_m_source_file>  (9) 
/var/tmp/pbs.5076255.sched01/tmp5vb4dkz1/0x5hafel7.sdf

>  <i_m_source_file_index>  (9) 
3

>  <i_lp_mmshare_version>  (9) 
48012

>  <i_f3d_flags>  (9) 
0

>  <s_epik_input>  (9) 
W0NIM11uMW5ubmMxU1tDSDJdbjJbY0hdbltjSF1uMg==

>  <s_epik_cmdline>  (9) 
J2VwaWtfcHl0aG9uJywgJy1waHQnLCAnMi4wJywgJy1waCcsICc3LjAnLCAnLXRuJywgJzgnLCAnLW1hJywgJzIwMCcsICctaW1hZScsICc8aW5maWxlLm1hZT4nLCAnLW9tYWUnLCAnPG91dGZpbGUubWFlPic=

>  <r_lp_tautomer_probability>  (9) 
1

>  <r_epik_Ionization_Penalty>  (9) 
2.55612e-06

>  <r_epik_Ionization_Penalty_Charging>  (9) 
0

>  <r_epik_Ionization_Penalty_Neutral>  (9) 
2.55612e-06

>  <r_epik_State_Penalty>  (9) 
-0

>  <r_epik_Charging_Adjusted_Penalty>  (9) 
0

>  <i_epik_Tot_Q>  (9) 
0

>  <i_epik_Tot_abs_Q>  (9) 
0

>  <s_epik_Chemistry_Notes>  (9) 
This compound contains an acetal/aminal-like group ( X-CH(R)-Y where X, Y are N, S, or O) that may be acid/base labile, releasing an aldehyde.

>  <s_lp_Force_Field>  (9) 
OPLS3e

>  <r_lp_Energy>  (9) 
7.69278

>  <b_lp_Chiralities_Consistent>  (9) 
1

>  <s_lp_Variant>  (9) 
2:0-1

>  <s_i_glide_gridfile>  (9) 
pfpi4k_grid

>  <i_i_glide_lignum>  (9) 
3

>  <i_i_glide_rotatable_bonds>  (9) 
3

>  <r_i_docking_score>  (9) 
-2.98202

>  <r_i_glide_ligand_efficiency>  (9) 
-0.229386

>  <r_i_glide_ligand_efficiency_sa>  (9) 
-0.539363

>  <r_i_glide_ligand_efficiency_ln>  (9) 
-0.836482

>  <r_i_glide_gscore>  (9) 
-2.98202

>  <r_i_glide_lipo>  (9) 
0

>  <r_i_glide_hbond>  (9) 
-0.202243

>  <r_i_glide_metal>  (9) 
-0

>  <r_i_glide_rewards>  (9) 
-2.10792

>  <r_i_glide_evdw>  (9) 
-19.7629

>  <r_i_glide_ecoul>  (9) 
-4.57

>  <r_i_glide_erotb>  (9) 
1.25387

>  <r_i_glide_esite>  (9) 
-0.252071

>  <r_i_glide_emodel>  (9) 
-29.4217

>  <r_i_glide_energy>  (9) 
-24.3329

>  <r_i_glide_einternal>  (9) 
0.293157

>  <r_i_glide_intrahb_reward>  (9) 
-0

>  <i_i_glide_confnum>  (9) 
5

>  <i_i_glide_posenum>  (9) 
13

>  <r_i_glide_eff_state_penalty>  (9) 
0

>  <ligand_id>  (9) 
2

>  <original_smiles>  (9) 
Cn1nnnc1SCn1cncn1

>  <smiles>  (9) 
[H]c1nc([H])n(C([H])([H])Sc2nnnn2C([H])([H])[H])n1

$$$$
4:0:0
     RDKit          3D

 61 65  0  0  1  0  0  0  0  0999 V2000
   -0.1593   -3.4367    5.9860 C   0  0  0  0  0  0  0  0  0  0  0  0
    0.9781   -3.3094    4.9868 C   0  0  0  0  0  0  0  0  0  0  0  0
    1.7651   -4.3274    4.6321 C   0  0  0  0  0  0  0  0  0  0  0  0
    2.8783   -4.1825    3.7132 C   0  0  0  0  0  0  0  0  0  0  0  0
    3.1458   -3.0258    3.0609 C   0  0  0  0  0  0  0  0  0  0  0  0
    2.2373   -1.7864    3.2529 C   0  0  1  0  0  0  0  0  0  0  0  0
    1.4502   -1.5666    2.0903 O   0  0  0  0  0  0  0  0  0  0  0  0
    1.1801   -1.9642    4.3841 C   0  0  0  0  0  0  0  0  0  0  0  0
    0.5088   -0.9931    4.7268 O   0  0  0  0  0  0  0  0  0  0  0  0
    3.0973   -0.5024    3.5089 C   0  0  1  0  0  0  0  0  0  0  0  0
    3.7493   -0.5534    4.7673 O   0  0  0  0  0  0  0  0  0  0  0  0
    4.1933   -0.2558    2.4389 C   0  0  0  0  0  0  0  0  0  0  0  0
    4.4201   -1.4651    1.5010 C   0  0  1  0  0  0  0  0  0  0  0  0
    5.4467   -1.2343    0.3496 C   0  0  1  0  0  0  0  0  0  0  0  0
    6.7613   -1.0964    0.8714 O   0  0  0  0  0  0  0  0  0  0  0  0
    5.3804   -2.3492   -0.7602 C   0  0  2  0  0  0  0  0  0  0  0  0
    6.4368   -2.0315   -1.6468 O   0  0  0  0  0  0  0  0  0  0  0  0
    4.0293   -2.3873   -1.6226 C   0  0  1  0  0  0  0  0  0  0  0  0
    3.4497   -0.9861   -1.7955 C   0  0  0  0  0  0  0  0  0  0  0  0
    4.2066   -2.8375   -3.1199 C   0  0  0  0  0  0  0  0  0  0  0  0
    4.9793   -3.9992   -3.3428 O   0  0  0  0  0  0  0  0  0  0  0  0
    2.9879   -3.2720   -0.8461 C   0  0  1  0  0  0  0  0  0  0  0  0
    1.9749   -3.8475   -1.6402 O   0  0  0  0  0  0  0  0  0  0  0  0
    3.6757   -4.3474    0.0125 C   0  0  1  0  0  0  0  0  0  0  0  0
    4.8278   -4.7223   -0.7838 O   0  0  0  0  0  0  0  0  0  0  0  0
    5.5996   -3.7323   -0.0578 C   0  0  1  0  0  0  0  0  0  0  0  0
    7.0681   -4.1841    0.0131 C   0  0  0  0  0  0  0  0  0  0  0  0
    4.6675   -4.0036    1.1482 C   0  0  2  0  0  0  0  0  0  0  0  0
    4.9990   -5.1830    1.8537 O   0  0  0  0  0  0  0  0  0  0  0  0
    4.4257   -2.8586    2.2001 C   0  0  2  0  0  0  0  0  0  0  0  0
    5.6243   -2.8634    3.1552 C   0  0  0  0  0  0  0  0  0  0  0  0
   -0.0007   -2.7679    6.8268 H   0  0  0  0  0  0  0  0  0  0  0  0
   -0.2341   -4.4554    6.3649 H   0  0  0  0  0  0  0  0  0  0  0  0
   -1.1020   -3.1625    5.5241 H   0  0  0  0  0  0  0  0  0  0  0  0
    1.5993   -5.3089    5.0806 H   0  0  0  0  0  0  0  0  0  0  0  0
    3.5374   -5.0252    3.6496 H   0  0  0  0  0  0  0  0  0  0  0  0
    1.9980   -1.2919    1.3713 H   0  0  0  0  0  0  0  0  0  0  0  0
    2.4540    0.3746    3.5292 H   0  0  0  0  0  0  0  0  0  0  0  0
    4.2873   -1.3288    4.7972 H   0  0  0  0  0  0  0  0  0  0  0  0
    3.8647    0.5718    1.8075 H   0  0  0  0  0  0  0  0  0  0  0  0
    5.1328    0.0742    2.8865 H   0  0  0  0  0  0  0  0  0  0  0  0
    3.5087   -1.4693    0.9545 H   0  0  0  0  0  0  0  0  0  0  0  0
    5.2591   -0.2642   -0.1083 H   0  0  0  0  0  0  0  0  0  0  0  0
    6.8719   -0.2455    1.2717 H   0  0  0  0  0  0  0  0  0  0  0  0
    6.4615   -2.7268   -2.2915 H   0  0  0  0  0  0  0  0  0  0  0  0
    2.5255   -0.9674   -2.3641 H   0  0  0  0  0  0  0  0  0  0  0  0
    4.1415   -0.2732   -2.2546 H   0  0  0  0  0  0  0  0  0  0  0  0
    3.1867   -0.6302   -0.8193 H   0  0  0  0  0  0  0  0  0  0  0  0
    3.2295   -2.9689   -3.5971 H   0  0  0  0  0  0  0  0  0  0  0  0
    4.7006   -2.0421   -3.6838 H   0  0  0  0  0  0  0  0  0  0  0  0
    4.6369   -4.7030   -2.7986 H   0  0  0  0  0  0  0  0  0  0  0  0
    2.3760   -2.6555   -0.2015 H   0  0  0  0  0  0  0  0  0  0  0  0
    2.3546   -4.5373   -2.1708 H   0  0  0  0  0  0  0  0  0  0  0  0
    3.0302   -5.1992    0.2727 H   0  0  0  0  0  0  0  0  0  0  0  0
    7.6713   -3.5182    0.6272 H   0  0  0  0  0  0  0  0  0  0  0  0
    7.5306   -4.1737   -0.9697 H   0  0  0  0  0  0  0  0  0  0  0  0
    7.1687   -5.2028    0.4038 H   0  0  0  0  0  0  0  0  0  0  0  0
    5.0711   -5.8396    1.1786 H   0  0  0  0  0  0  0  0  0  0  0  0
    6.5196   -2.8740    2.5460 H   0  0  0  0  0  0  0  0  0  0  0  0
    5.6484   -3.7412    3.8125 H   0  0  0  0  0  0  0  0  0  0  0  0
    5.6613   -1.9955    3.8158 H   0  0  0  0  0  0  0  0  0  0  0  0
  1  2  1  0
  1 32  1  0
  1 33  1  0
  1 34  1  0
  2  8  1  0
  2  3  2  0
  3  4  1  0
  3 35  1  0
  4  5  2  0
  4 36  1  0
  5 30  1  0
  5  6  1  0
  6  7  1  6
  6  8  1  0
  6 10  1  0
  7 37  1  0
  8  9  2  0
 10 11  1  0
 10 12  1  0
 10 38  1  1
 11 39  1  0
 12 13  1  0
 12 40  1  0
 12 41  1  0
 13 30  1  0
 13 14  1  0
 13 42  1  6
 14 15  1  0
 14 16  1  0
 14 43  1  6
 15 44  1  0
 16 26  1  0
 16 17  1  6
 16 18  1  0
 17 45  1  0
 18 19  1  6
 18 20  1  0
 18 22  1  0
 19 46  1  0
 19 47  1  0
 19 48  1  0
 20 21  1  0
 20 49  1  0
 20 50  1  0
 21 51  1  0
 22 23  1  0
 22 24  1  0
 22 52  1  1
 23 53  1  0
 24 28  1  0
 24 25  1  0
 24 54  1  1
 25 26  1  0
 26 27  1  1
 26 28  1  0
 27 55  1  0
 27 56  1  0
 27 57  1  0
 28 29  1  1
 28 30  1  0
 29 58  1  0
 30 31  1  1
 31 59  1  0
 31 60  1  0
 31 61  1  0
M  END
>  <i_m_ct_stereo_status>  (10) 
1

>  <s_m_source_file>  (10) 
/var/tmp/pbs.5076255.sched01/tmp5vb4dkz1/0x5hafel7.sdf

>  <i_m_source_file_index>  (10) 
5

>  <i_lp_mmshare_version>  (10) 
48012

>  <i_f3d_flags>  (10) 
0

>  <s_epik_input>  (10) 
Tz1DMUMoW0NIM10pPVtDSF1bQ0hdPUMoW0NAQF0xMltPSF0pW0NAXTMoW0NIM10pW0NAQEhdKFtDSDJdW0NAQEhdMltPSF0pW0NAQEhdKFtPSF0pW0NAQF00KFtPSF0pW0NAQF01KFtDSDNdKVtDQF0zKFtPSF0pW0NASF0oTzUpW0NASF0oW09IXSlbQ0BdNChbQ0gzXSlbQ0gyXVtPSF0=

>  <s_epik_cmdline>  (10) 
J2VwaWtfcHl0aG9uJywgJy1waHQnLCAnMi4wJywgJy1waCcsICc3LjAnLCAnLXRuJywgJzgnLCAnLW1hJywgJzIwMCcsICctaW1hZScsICc8aW5maWxlLm1hZT4nLCAnLW9tYWUnLCAnPG91dGZpbGUubWFlPic=

>  <r_lp_tautomer_probability>  (10) 
1

>  <r_epik_Ionization_Penalty>  (10) 
5.73621e-05

>  <r_epik_Ionization_Penalty_Charging>  (10) 
0

>  <r_epik_Ionization_Penalty_Neutral>  (10) 
5.73621e-05

>  <r_epik_State_Penalty>  (10) 
-0

>  <r_epik_Charging_Adjusted_Penalty>  (10) 
0

>  <i_epik_Tot_Q>  (10) 
0

>  <i_epik_Tot_abs_Q>  (10) 
0

>  <s_lp_Force_Field>  (10) 
OPLS3e

>  <r_lp_Energy>  (10) 
83.9686

>  <b_lp_Chiralities_Consistent>  (10) 
1

>  <s_lp_Variant>  (10) 
4:0-1

>  <s_i_glide_gridfile>  (10) 
pfpi4k_grid

>  <i_i_glide_lignum>  (10) 
5

>  <i_i_glide_rotatable_bonds>  (10) 
8

>  <r_i_docking_score>  (10) 
-4.01209

>  <r_i_glide_ligand_efficiency>  (10) 
-0.129422

>  <r_i_glide_ligand_efficiency_sa>  (10) 
-0.406565

>  <r_i_glide_ligand_efficiency_ln>  (10) 
-0.90485

>  <r_i_glide_gscore>  (10) 
-4.01209

>  <r_i_glide_lipo>  (10) 
-0.538518

>  <r_i_glide_hbond>  (10) 
0

>  <r_i_glide_metal>  (10) 
-0

>  <r_i_glide_rewards>  (10) 
-0.919535

>  <r_i_glide_evdw>  (10) 
-20.4763

>  <r_i_glide_ecoul>  (10) 
-10.8933

>  <r_i_glide_erotb>  (10) 
0.103769

>  <r_i_glide_esite>  (10) 
0

>  <r_i_glide_emodel>  (10) 
-42.5053

>  <r_i_glide_energy>  (10) 
-31.3696

>  <r_i_glide_einternal>  (10) 
4.43702

>  <r_i_glide_intrahb_reward>  (10) 
-0.5

>  <i_i_glide_confnum>  (10) 
6

>  <i_i_glide_posenum>  (10) 
38

>  <r_i_glide_eff_state_penalty>  (10) 
0

>  <ligand_id>  (10) 
4

>  <original_smiles>  (10) 
CC1=CC=C2C(O)(C1=O)C(O)CC1C(O)C3(O)C(C)(CO)C(O)C4OC3(C)C4(O)C21C

>  <smiles>  (10) 
[H]OC([H])([H])C1(C([H])([H])[H])C([H])(O[H])C2([H])OC3(C([H])([H])[H])C2(O[H])C2(C([H])([H])[H])C4=C([H])C([H])=C(C([H])([H])[H])C(=O)C4(O[H])C([H])(O[H])C([H])([H])C2([H])C([H])(O[H])C31O[H]

$$$$
4:0:1
     RDKit          3D

 61 65  0  0  1  0  0  0  0  0999 V2000
   -0.7801   -2.4483    6.0684 C   0  0  0  0  0  0  0  0  0  0  0  0
    0.4290   -2.5023    5.1534 C   0  0  0  0  0  0  0  0  0  0  0  0
    1.2231   -3.5799    5.0368 C   0  0  0  0  0  0  0  0  0  0  0  0
    2.3967   -3.6085    4.1890 C   0  0  0  0  0  0  0  0  0  0  0  0
    2.7380   -2.5916    3.3622 C   0  0  0  0  0  0  0  0  0  0  0  0
    1.8489   -1.3139    3.2983 C   0  0  1  0  0  0  0  0  0  0  0  0
    1.1359   -1.2964    2.0834 O   0  0  0  0  0  0  0  0  0  0  0  0
    0.7211   -1.2865    4.3638 C   0  0  0  0  0  0  0  0  0  0  0  0
    0.0396   -0.2638    4.4744 O   0  0  0  0  0  0  0  0  0  0  0  0
    2.7175   -0.0154    3.3673 C   0  0  1  0  0  0  0  0  0  0  0  0
    3.2855    0.1530    4.6508 O   0  0  0  0  0  0  0  0  0  0  0  0
    3.8767    0.0205    2.3397 C   0  0  0  0  0  0  0  0  0  0  0  0
    4.1315   -1.3324    1.6336 C   0  0  1  0  0  0  0  0  0  0  0  0
    5.2358   -1.3054    0.5412 C   0  0  1  0  0  0  0  0  0  0  0  0
    6.5098   -1.1204    1.1422 O   0  0  0  0  0  0  0  0  0  0  0  0
    5.2175   -2.5731   -0.3797 C   0  0  2  0  0  0  0  0  0  0  0  0
    6.3538   -2.3998   -1.2183 O   0  0  0  0  0  0  0  0  0  0  0  0
    3.9005   -2.7027   -1.3033 C   0  0  1  0  0  0  0  0  0  0  0  0
    3.3709   -1.3149   -1.7531 C   0  0  0  0  0  0  0  0  0  0  0  0
    4.2394   -3.4830   -2.6349 C   0  0  0  0  0  0  0  0  0  0  0  0
    3.2316   -3.4550   -3.6417 O   0  0  0  0  0  0  0  0  0  0  0  0
    2.8033   -3.4748   -0.4564 C   0  0  1  0  0  0  0  0  0  0  0  0
    1.8325   -4.2182   -1.1759 O   0  0  0  0  0  0  0  0  0  0  0  0
    3.4304   -4.4084    0.5949 C   0  0  1  0  0  0  0  0  0  0  0  0
    4.6197   -4.9205   -0.0653 O   0  0  0  0  0  0  0  0  0  0  0  0
    5.3624   -3.8366    0.5493 C   0  0  1  0  0  0  0  0  0  0  0  0
    6.8080   -4.3150    0.7854 C   0  0  0  0  0  0  0  0  0  0  0  0
    4.3515   -3.8931    1.7245 C   0  0  2  0  0  0  0  0  0  0  0  0
    4.6316   -4.9350    2.6373 O   0  0  0  0  0  0  0  0  0  0  0  0
    4.0848   -2.5844    2.5695 C   0  0  2  0  0  0  0  0  0  0  0  0
    5.2202   -2.4412    3.6189 C   0  0  0  0  0  0  0  0  0  0  0  0
   -0.6645   -1.6345    6.7833 H   0  0  0  0  0  0  0  0  0  0  0  0
   -0.8927   -3.3776    6.6265 H   0  0  0  0  0  0  0  0  0  0  0  0
   -1.6955   -2.2764    5.5011 H   0  0  0  0  0  0  0  0  0  0  0  0
    0.9970   -4.4592    5.6301 H   0  0  0  0  0  0  0  0  0  0  0  0
    3.0385   -4.4671    4.3023 H   0  0  0  0  0  0  0  0  0  0  0  0
    1.7229   -1.1027    1.3605 H   0  0  0  0  0  0  0  0  0  0  0  0
    2.0847    0.8534    3.1878 H   0  0  0  0  0  0  0  0  0  0  0  0
    3.8429   -0.5934    4.8317 H   0  0  0  0  0  0  0  0  0  0  0  0
    3.6140    0.7348    1.5584 H   0  0  0  0  0  0  0  0  0  0  0  0
    4.7925    0.4086    2.7911 H   0  0  0  0  0  0  0  0  0  0  0  0
    3.2648   -1.4073    1.0180 H   0  0  0  0  0  0  0  0  0  0  0  0
    5.1031   -0.4214   -0.0813 H   0  0  0  0  0  0  0  0  0  0  0  0
    6.5774   -0.2397    1.4756 H   0  0  0  0  0  0  0  0  0  0  0  0
    6.4427   -3.1910   -1.7322 H   0  0  0  0  0  0  0  0  0  0  0  0
    2.4860   -1.4162   -2.3810 H   0  0  0  0  0  0  0  0  0  0  0  0
    4.1193   -0.7531   -2.3154 H   0  0  0  0  0  0  0  0  0  0  0  0
    3.0399   -0.6902   -0.9262 H   0  0  0  0  0  0  0  0  0  0  0  0
    5.0918   -3.0473   -3.1519 H   0  0  0  0  0  0  0  0  0  0  0  0
    4.5226   -4.5140   -2.4335 H   0  0  0  0  0  0  0  0  0  0  0  0
    2.4950   -3.9900   -3.3715 H   0  0  0  0  0  0  0  0  0  0  0  0
    2.1646   -2.7693    0.0599 H   0  0  0  0  0  0  0  0  0  0  0  0
    2.2793   -4.8988   -1.6730 H   0  0  0  0  0  0  0  0  0  0  0  0
    2.7792   -5.2157    0.9381 H   0  0  0  0  0  0  0  0  0  0  0  0
    7.3895   -3.5644    1.3086 H   0  0  0  0  0  0  0  0  0  0  0  0
    7.3178   -4.5402   -0.1497 H   0  0  0  0  0  0  0  0  0  0  0  0
    6.8482   -5.2285    1.3800 H   0  0  0  0  0  0  0  0  0  0  0  0
    4.8772   -5.6804    2.1080 H   0  0  0  0  0  0  0  0  0  0  0  0
    6.1958   -2.5642    3.1592 H   0  0  0  0  0  0  0  0  0  0  0  0
    5.1449   -3.1836    4.4165 H   0  0  0  0  0  0  0  0  0  0  0  0
    5.2112   -1.4725    4.1098 H   0  0  0  0  0  0  0  0  0  0  0  0
  1  2  1  0
  1 32  1  0
  1 33  1  0
  1 34  1  0
  2  8  1  0
  2  3  2  0
  3  4  1  0
  3 35  1  0
  4  5  2  0
  4 36  1  0
  5 30  1  0
  5  6  1  0
  6  7  1  6
  6  8  1  0
  6 10  1  0
  7 37  1  0
  8  9  2  0
 10 11  1  0
 10 12  1  0
 10 38  1  6
 11 39  1  0
 12 13  1  0
 12 40  1  0
 12 41  1  0
 13 30  1  0
 13 14  1  0
 13 42  1  6
 14 15  1  0
 14 16  1  0
 14 43  1  6
 15 44  1  0
 16 26  1  0
 16 17  1  6
 16 18  1  0
 17 45  1  0
 18 19  1  6
 18 20  1  0
 18 22  1  0
 19 46  1  0
 19 47  1  0
 19 48  1  0
 20 21  1  0
 20 49  1  0
 20 50  1  0
 21 51  1  0
 22 23  1  0
 22 24  1  0
 22 52  1  1
 23 53  1  0
 24 28  1  0
 24 25  1  0
 24 54  1  1
 25 26  1  0
 26 27  1  1
 26 28  1  0
 27 55  1  0
 27 56  1  0
 27 57  1  0
 28 29  1  1
 28 30  1  0
 29 58  1  0
 30 31  1  1
 31 59  1  0
 31 60  1  0
 31 61  1  0
M  END
>  <i_m_ct_stereo_status>  (11) 
1

>  <s_m_source_file>  (11) 
/var/tmp/pbs.5076255.sched01/tmp5vb4dkz1/0x5hafel7.sdf

>  <i_m_source_file_index>  (11) 
5

>  <i_lp_mmshare_version>  (11) 
48012

>  <i_f3d_flags>  (11) 
0

>  <s_epik_input>  (11) 
Tz1DMUMoW0NIM10pPVtDSF1bQ0hdPUMoW0NAQF0xMltPSF0pW0NAXTMoW0NIM10pW0NAQEhdKFtDSDJdW0NAQEhdMltPSF0pW0NAQEhdKFtPSF0pW0NAQF00KFtPSF0pW0NAQF01KFtDSDNdKVtDQF0zKFtPSF0pW0NASF0oTzUpW0NASF0oW09IXSlbQ0BdNChbQ0gzXSlbQ0gyXVtPSF0=

>  <s_epik_cmdline>  (11) 
J2VwaWtfcHl0aG9uJywgJy1waHQnLCAnMi4wJywgJy1waCcsICc3LjAnLCAnLXRuJywgJzgnLCAnLW1hJywgJzIwMCcsICctaW1hZScsICc8aW5maWxlLm1hZT4nLCAnLW9tYWUnLCAnPG91dGZpbGUubWFlPic=

>  <r_lp_tautomer_probability>  (11) 
1

>  <r_epik_Ionization_Penalty>  (11) 
5.73621e-05

>  <r_epik_Ionization_Penalty_Charging>  (11) 
0

>  <r_epik_Ionization_Penalty_Neutral>  (11) 
5.73621e-05

>  <r_epik_State_Penalty>  (11) 
-0

>  <r_epik_Charging_Adjusted_Penalty>  (11) 
0

>  <i_epik_Tot_Q>  (11) 
0

>  <i_epik_Tot_abs_Q>  (11) 
0

>  <s_lp_Force_Field>  (11) 
OPLS3e

>  <r_lp_Energy>  (11) 
83.9686

>  <b_lp_Chiralities_Consistent>  (11) 
1

>  <s_lp_Variant>  (11) 
4:0-1

>  <s_i_glide_gridfile>  (11) 
pfpi4k_grid

>  <i_i_glide_lignum>  (11) 
5

>  <i_i_glide_rotatable_bonds>  (11) 
8

>  <r_i_docking_score>  (11) 
-3.40281

>  <r_i_glide_ligand_efficiency>  (11) 
-0.109768

>  <r_i_glide_ligand_efficiency_sa>  (11) 
-0.344823

>  <r_i_glide_ligand_efficiency_ln>  (11) 
-0.767437

>  <r_i_glide_gscore>  (11) 
-3.40281

>  <r_i_glide_lipo>  (11) 
-0.349776

>  <r_i_glide_hbond>  (11) 
0

>  <r_i_glide_metal>  (11) 
-0

>  <r_i_glide_rewards>  (11) 
-0.419535

>  <r_i_glide_evdw>  (11) 
-23.8348

>  <r_i_glide_ecoul>  (11) 
-10.2726

>  <r_i_glide_erotb>  (11) 
0.103769

>  <r_i_glide_esite>  (11) 
-0.00462855

>  <r_i_glide_emodel>  (11) 
-40.9797

>  <r_i_glide_energy>  (11) 
-34.1075

>  <r_i_glide_einternal>  (11) 
0.965385

>  <r_i_glide_intrahb_reward>  (11) 
-0

>  <i_i_glide_confnum>  (11) 
6

>  <i_i_glide_posenum>  (11) 
11

>  <r_i_glide_eff_state_penalty>  (11) 
0

>  <ligand_id>  (11) 
4

>  <original_smiles>  (11) 
CC1=CC=C2C(O)(C1=O)C(O)CC1C(O)C3(O)C(C)(CO)C(O)C4OC3(C)C4(O)C21C

>  <smiles>  (11) 
[H]OC([H])([H])C1(C([H])([H])[H])C([H])(O[H])C2([H])OC3(C([H])([H])[H])C2(O[H])C2(C([H])([H])[H])C4=C([H])C([H])=C(C([H])([H])[H])C(=O)C4(O[H])C([H])(O[H])C([H])([H])C2([H])C([H])(O[H])C31O[H]

$$$$
4:0:2
     RDKit          3D

 61 65  0  0  1  0  0  0  0  0999 V2000
   -0.7640   -2.3186    6.1361 C   0  0  0  0  0  0  0  0  0  0  0  0
    0.4380   -2.3933    5.2121 C   0  0  0  0  0  0  0  0  0  0  0  0
    1.2240   -3.4773    5.1105 C   0  0  0  0  0  0  0  0  0  0  0  0
    2.3932   -3.5280    4.2584 C   0  0  0  0  0  0  0  0  0  0  0  0
    2.7334   -2.5275    3.4060 C   0  0  0  0  0  0  0  0  0  0  0  0
    1.8489   -1.2478    3.3171 C   0  0  1  0  0  0  0  0  0  0  0  0
    1.1460   -1.2382    2.0869 O   0  0  0  0  0  0  0  0  0  0  0  0
    0.7310   -1.1925    4.3950 C   0  0  0  0  0  0  0  0  0  0  0  0
    0.0685   -0.1568    4.5134 O   0  0  0  0  0  0  0  0  0  0  0  0
    2.7332    0.0441    3.3689 C   0  0  1  0  0  0  0  0  0  0  0  0
    3.3203    0.1981    4.6453 O   0  0  0  0  0  0  0  0  0  0  0  0
    3.8907    0.0607    2.3419 C   0  0  0  0  0  0  0  0  0  0  0  0
    4.1398   -1.3039    1.6645 C   0  0  1  0  0  0  0  0  0  0  0  0
    5.2434   -1.2992    0.5735 C   0  0  1  0  0  0  0  0  0  0  0  0
    6.5184   -1.1126    1.1691 O   0  0  0  0  0  0  0  0  0  0  0  0
    5.2163   -2.5825   -0.3220 C   0  0  2  0  0  0  0  0  0  0  0  0
    6.3526   -2.4541   -1.1649 O   0  0  0  0  0  0  0  0  0  0  0  0
    3.9052   -2.7149   -1.2416 C   0  0  1  0  0  0  0  0  0  0  0  0
    3.3585   -1.3398   -1.7208 C   0  0  0  0  0  0  0  0  0  0  0  0
    4.1938   -3.5547   -2.5376 C   0  0  0  0  0  0  0  0  0  0  0  0
    4.9494   -2.8767   -3.5227 O   0  0  0  0  0  0  0  0  0  0  0  0
    2.7955   -3.4667   -0.3945 C   0  0  1  0  0  0  0  0  0  0  0  0
    1.8195   -4.2078   -1.1203 O   0  0  0  0  0  0  0  0  0  0  0  0
    3.4072   -4.3899    0.6713 C   0  0  1  0  0  0  0  0  0  0  0  0
    4.5934   -4.9255    0.0245 O   0  0  0  0  0  0  0  0  0  0  0  0
    5.3462   -3.8370    0.6204 C   0  0  1  0  0  0  0  0  0  0  0  0
    6.7848   -4.3281    0.8549 C   0  0  0  0  0  0  0  0  0  0  0  0
    4.3351   -3.8682    1.7946 C   0  0  2  0  0  0  0  0  0  0  0  0
    4.6028   -4.9048    2.7180 O   0  0  0  0  0  0  0  0  0  0  0  0
    4.0816   -2.5435    2.6198 C   0  0  2  0  0  0  0  0  0  0  0  0
    5.2188   -2.3940    3.6672 C   0  0  0  0  0  0  0  0  0  0  0  0
   -0.6407   -1.4961    6.8399 H   0  0  0  0  0  0  0  0  0  0  0  0
   -0.8810   -3.2379    6.7093 H   0  0  0  0  0  0  0  0  0  0  0  0
   -1.6821   -2.1543    5.5720 H   0  0  0  0  0  0  0  0  0  0  0  0
    0.9934   -4.3469    5.7161 H   0  0  0  0  0  0  0  0  0  0  0  0
    3.0279   -4.3892    4.3854 H   0  0  0  0  0  0  0  0  0  0  0  0
    1.7346   -1.0411    1.3741 H   0  0  0  0  0  0  0  0  0  0  0  0
    2.1103    0.9214    3.1990 H   0  0  0  0  0  0  0  0  0  0  0  0
    3.7254    1.0576    4.6875 H   0  0  0  0  0  0  0  0  0  0  0  0
    3.6363    0.7712    1.5535 H   0  0  0  0  0  0  0  0  0  0  0  0
    4.8123    0.4408    2.7905 H   0  0  0  0  0  0  0  0  0  0  0  0
    3.2681   -1.3854    1.0540 H   0  0  0  0  0  0  0  0  0  0  0  0
    5.1079   -0.4228   -0.0616 H   0  0  0  0  0  0  0  0  0  0  0  0
    6.5795   -0.2370    1.5197 H   0  0  0  0  0  0  0  0  0  0  0  0
    6.4563   -3.2990   -1.5840 H   0  0  0  0  0  0  0  0  0  0  0  0
    2.4852   -1.4803   -2.3592 H   0  0  0  0  0  0  0  0  0  0  0  0
    4.0957   -0.7631   -2.2867 H   0  0  0  0  0  0  0  0  0  0  0  0
    3.0170   -0.7038   -0.9070 H   0  0  0  0  0  0  0  0  0  0  0  0
    4.6854   -4.5027   -2.3224 H   0  0  0  0  0  0  0  0  0  0  0  0
    3.2662   -3.7969   -3.0579 H   0  0  0  0  0  0  0  0  0  0  0  0
    5.8397   -2.7415   -3.2162 H   0  0  0  0  0  0  0  0  0  0  0  0
    2.1601   -2.7481    0.1053 H   0  0  0  0  0  0  0  0  0  0  0  0
    2.2668   -4.8402   -1.6778 H   0  0  0  0  0  0  0  0  0  0  0  0
    2.7402   -5.1779    1.0213 H   0  0  0  0  0  0  0  0  0  0  0  0
    7.3775   -3.5726    1.3632 H   0  0  0  0  0  0  0  0  0  0  0  0
    7.2860   -4.5726   -0.0813 H   0  0  0  0  0  0  0  0  0  0  0  0
    6.8163   -5.2340    1.4608 H   0  0  0  0  0  0  0  0  0  0  0  0
    4.7944   -5.6733    2.1987 H   0  0  0  0  0  0  0  0  0  0  0  0
    6.1894   -2.5292    3.2020 H   0  0  0  0  0  0  0  0  0  0  0  0
    5.1474   -3.1286    4.4701 H   0  0  0  0  0  0  0  0  0  0  0  0
    5.2181   -1.4206    4.1460 H   0  0  0  0  0  0  0  0  0  0  0  0
  1  2  1  0
  1 32  1  0
  1 33  1  0
  1 34  1  0
  2  8  1  0
  2  3  2  0
  3  4  1  0
  3 35  1  0
  4  5  2  0
  4 36  1  0
  5 30  1  0
  5  6  1  0
  6  7  1  6
  6  8  1  0
  6 10  1  0
  7 37  1  0
  8  9  2  0
 10 11  1  0
 10 12  1  0
 10 38  1  6
 11 39  1  0
 12 13  1  0
 12 40  1  0
 12 41  1  0
 13 30  1  0
 13 14  1  0
 13 42  1  6
 14 15  1  0
 14 16  1  0
 14 43  1  6
 15 44  1  0
 16 26  1  0
 16 17  1  6
 16 18  1  0
 17 45  1  0
 18 19  1  6
 18 20  1  0
 18 22  1  0
 19 46  1  0
 19 47  1  0
 19 48  1  0
 20 21  1  0
 20 49  1  0
 20 50  1  0
 21 51  1  0
 22 23  1  0
 22 24  1  0
 22 52  1  1
 23 53  1  0
 24 28  1  0
 24 25  1  0
 24 54  1  1
 25 26  1  0
 26 27  1  1
 26 28  1  0
 27 55  1  0
 27 56  1  0
 27 57  1  0
 28 29  1  1
 28 30  1  0
 29 58  1  0
 30 31  1  1
 31 59  1  0
 31 60  1  0
 31 61  1  0
M  END
>  <i_m_ct_stereo_status>  (12) 
1

>  <s_m_source_file>  (12) 
/var/tmp/pbs.5076255.sched01/tmp5vb4dkz1/0x5hafel7.sdf

>  <i_m_source_file_index>  (12) 
5

>  <i_lp_mmshare_version>  (12) 
48012

>  <i_f3d_flags>  (12) 
0

>  <s_epik_input>  (12) 
Tz1DMUMoW0NIM10pPVtDSF1bQ0hdPUMoW0NAQF0xMltPSF0pW0NAXTMoW0NIM10pW0NAQEhdKFtDSDJdW0NAQEhdMltPSF0pW0NAQEhdKFtPSF0pW0NAQF00KFtPSF0pW0NAQF01KFtDSDNdKVtDQF0zKFtPSF0pW0NASF0oTzUpW0NASF0oW09IXSlbQ0BdNChbQ0gzXSlbQ0gyXVtPSF0=

>  <s_epik_cmdline>  (12) 
J2VwaWtfcHl0aG9uJywgJy1waHQnLCAnMi4wJywgJy1waCcsICc3LjAnLCAnLXRuJywgJzgnLCAnLW1hJywgJzIwMCcsICctaW1hZScsICc8aW5maWxlLm1hZT4nLCAnLW9tYWUnLCAnPG91dGZpbGUubWFlPic=

>  <r_lp_tautomer_probability>  (12) 
1

>  <r_epik_Ionization_Penalty>  (12) 
5.73621e-05

>  <r_epik_Ionization_Penalty_Charging>  (12) 
0

>  <r_epik_Ionization_Penalty_Neutral>  (12) 
5.73621e-05

>  <r_epik_State_Penalty>  (12) 
-0

>  <r_epik_Charging_Adjusted_Penalty>  (12) 
0

>  <i_epik_Tot_Q>  (12) 
0

>  <i_epik_Tot_abs_Q>  (12) 
0

>  <s_lp_Force_Field>  (12) 
OPLS3e

>  <r_lp_Energy>  (12) 
83.9686

>  <b_lp_Chiralities_Consistent>  (12) 
1

>  <s_lp_Variant>  (12) 
4:0-1

>  <s_i_glide_gridfile>  (12) 
pfpi4k_grid

>  <i_i_glide_lignum>  (12) 
5

>  <i_i_glide_rotatable_bonds>  (12) 
8

>  <r_i_docking_score>  (12) 
-3.28884

>  <r_i_glide_ligand_efficiency>  (12) 
-0.106092

>  <r_i_glide_ligand_efficiency_sa>  (12) 
-0.333275

>  <r_i_glide_ligand_efficiency_ln>  (12) 
-0.741735

>  <r_i_glide_gscore>  (12) 
-3.28884

>  <r_i_glide_lipo>  (12) 
-0.343739

>  <r_i_glide_hbond>  (12) 
0

>  <r_i_glide_metal>  (12) 
-0

>  <r_i_glide_rewards>  (12) 
-0.419535

>  <r_i_glide_evdw>  (12) 
-24.033

>  <r_i_glide_ecoul>  (12) 
-9.48792

>  <r_i_glide_erotb>  (12) 
0.103769

>  <r_i_glide_esite>  (12) 
-0.00450321

>  <r_i_glide_emodel>  (12) 
-39.8845

>  <r_i_glide_energy>  (12) 
-33.5209

>  <r_i_glide_einternal>  (12) 
1.56958

>  <r_i_glide_intrahb_reward>  (12) 
-0

>  <i_i_glide_confnum>  (12) 
6

>  <i_i_glide_posenum>  (12) 
3

>  <r_i_glide_eff_state_penalty>  (12) 
0

>  <ligand_id>  (12) 
4

>  <original_smiles>  (12) 
CC1=CC=C2C(O)(C1=O)C(O)CC1C(O)C3(O)C(C)(CO)C(O)C4OC3(C)C4(O)C21C

>  <smiles>  (12) 
[H]OC([H])([H])C1(C([H])([H])[H])C([H])(O[H])C2([H])OC3(C([H])([H])[H])C2(O[H])C2(C([H])([H])[H])C4=C([H])C([H])=C(C([H])([H])[H])C(=O)C4(O[H])C([H])(O[H])C([H])([H])C2([H])C([H])(O[H])C31O[H]

$$$$
5:0:0
     RDKit          3D

 31 34  0  0  1  0  0  0  0  0999 V2000
    2.0243   -3.0743   -2.2092 C   0  0  0  0  0  0  0  0  0  0  0  0
    3.1149   -2.0873   -2.0037 N   0  0  2  0  0  0  0  0  0  0  0  0
    4.2415   -2.2409   -2.7489 C   0  0  1  0  0  0  0  0  0  0  0  0
    4.8180   -0.7723   -2.0340 C   0  0  0  0  0  0  0  0  0  0  0  0
    4.7095   -1.1336   -0.4936 C   0  0  0  0  0  0  0  0  0  0  0  0
    5.5426   -1.6186    0.5406 C   0  0  0  0  0  0  0  0  0  0  0  0
    5.0531   -2.7459    1.2882 N   0  0  0  0  0  0  0  0  0  0  0  0
    4.9892   -4.2096    0.7949 C   0  0  0  0  0  0  0  0  0  0  0  0
    4.5852   -4.6843   -0.7731 C   0  0  0  0  0  0  0  0  0  0  0  0
    4.8257   -3.8151   -2.1997 C   0  0  2  0  0  0  0  0  0  0  0  0
    5.6157   -2.9356   -1.6046 C   0  0  2  0  0  0  0  0  0  0  0  0
    6.9121   -2.9353   -0.7982 C   0  0  0  0  0  0  0  0  0  0  0  0
    6.8845   -2.0429    0.2050 C   0  0  0  0  0  0  0  0  0  0  0  0
    4.1106   -2.2852   -0.9829 C   0  0  2  0  0  0  0  0  0  0  0  0
    2.3411   -4.0859   -2.4539 H   0  0  0  0  0  0  0  0  0  0  0  0
    1.4273   -2.7156   -3.0468 H   0  0  0  0  0  0  0  0  0  0  0  0
    1.3990   -3.1073   -1.3171 H   0  0  0  0  0  0  0  0  0  0  0  0
    4.0804   -2.1686   -3.8284 H   0  0  0  0  0  0  0  0  0  0  0  0
    5.8185   -0.4704   -2.3143 H   0  0  0  0  0  0  0  0  0  0  0  0
    4.1995    0.0985   -2.2519 H   0  0  0  0  0  0  0  0  0  0  0  0
    5.9567   -4.6507    1.0443 H   0  0  0  0  0  0  0  0  0  0  0  0
    4.2930   -4.7276    1.4579 H   0  0  0  0  0  0  0  0  0  0  0  0
    5.1063   -5.6383   -0.9081 H   0  0  0  0  0  0  0  0  0  0  0  0
    3.5329   -4.9737   -0.7229 H   0  0  0  0  0  0  0  0  0  0  0  0
    5.2670   -4.4097   -3.0010 H   0  0  0  0  0  0  0  0  0  0  0  0
    6.2635   -2.5752   -2.4452 H   0  0  0  0  0  0  0  0  0  0  0  0
    7.8038   -3.4564   -1.1165 H   0  0  0  0  0  0  0  0  0  0  0  0
    7.7262   -1.8662    0.8604 H   0  0  0  0  0  0  0  0  0  0  0  0
    3.4149   -2.7094   -0.2529 H   0  0  0  0  0  0  0  0  0  0  0  0
    5.1576   -2.6737    2.2923 H   0  0  0  0  0  0  0  0  0  0  0  0
    2.7754   -1.1420   -1.9514 H   0  0  0  0  0  0  0  0  0  0  0  0
  1  2  1  0
  1 15  1  0
  1 16  1  0
  1 17  1  0
  2 14  1  0
  2  3  1  0
  2 31  1  1
  3 10  1  0
  3  4  1  0
  3 18  1  6
  4  5  1  0
  4 19  1  0
  4 20  1  0
  5 14  1  0
  5  6  2  0
  6 13  1  0
  6  7  1  0
  7  8  1  0
  7 30  1  0
  8  9  1  0
  8 21  1  0
  8 22  1  0
  9 10  1  0
  9 23  1  0
  9 24  1  0
 10 11  1  0
 10 25  1  6
 11 12  1  0
 11 14  1  0
 11 26  1  6
 12 13  2  0
 12 27  1  0
 13 28  1  0
 14 29  1  1
M  CHG  1   2   1
M  END
>  <i_m_ct_stereo_status>  (13) 
1

>  <s_m_source_file>  (13) 
/var/tmp/pbs.5076255.sched01/tmp5vb4dkz1/0x5hafel7.sdf

>  <i_m_source_file_index>  (13) 
6

>  <i_lp_mmshare_version>  (13) 
48012

>  <i_f3d_flags>  (13) 
0

>  <s_epik_input>  (13) 
W0NASF0xMltDQEhdM1tDQEhdNFtDQEhdKE4xW0NIM10pW0NASF0oW0NIMl0yKS9DKFtDSF09W0NIXTQpPU5cW0NIMl1bQ0gyXTM=

>  <s_epik_cmdline>  (13) 
J2VwaWtfcHl0aG9uJywgJy1waHQnLCAnMi4wJywgJy1waCcsICc3LjAnLCAnLXRuJywgJzgnLCAnLW1hJywgJzIwMCcsICctaW1hZScsICc8aW5maWxlLm1hZT4nLCAnLW9tYWUnLCAnPG91dGZpbGUubWFlPic=

>  <r_epik_Ionization_Penalty>  (13) 
0.126333

>  <r_epik_Ionization_Penalty_Charging>  (13) 
0.126333

>  <r_epik_Ionization_Penalty_Neutral>  (13) 
8.58076e-08

>  <r_epik_State_Penalty>  (13) 
0.115785

>  <r_epik_Charging_Adjusted_Penalty>  (13) 
0.242118

>  <i_epik_Tot_Q>  (13) 
1

>  <i_epik_Tot_abs_Q>  (13) 
1

>  <s_epik_Chemistry_Notes>  (13) 
This compound has an imine and may undergo hydrolysis.

>  <s_lp_Force_Field>  (13) 
OPLS3e

>  <r_lp_Energy>  (13) 
408.911

>  <b_lp_Chiralities_Consistent>  (13) 
1

>  <s_lp_Variant>  (13) 
5:0-1

>  <s_i_glide_gridfile>  (13) 
pfpi4k_grid

>  <i_i_glide_lignum>  (13) 
6

>  <i_i_glide_rotatable_bonds>  (13) 
0

>  <r_i_docking_score>  (13) 
-3.84263

>  <r_i_glide_ligand_efficiency>  (13) 
-0.274474

>  <r_i_glide_ligand_efficiency_sa>  (13) 
-0.661521

>  <r_i_glide_ligand_efficiency_ln>  (13) 
-1.05594

>  <r_i_glide_gscore>  (13) 
-3.84263

>  <r_i_glide_lipo>  (13) 
-0.35447

>  <r_i_glide_hbond>  (13) 
-0.0126252

>  <r_i_glide_metal>  (13) 
-0

>  <r_i_glide_rewards>  (13) 
-2.11857

>  <r_i_glide_evdw>  (13) 
-15.9701

>  <r_i_glide_ecoul>  (13) 
-3.24999

>  <r_i_glide_erotb>  (13) 
0

>  <r_i_glide_esite>  (13) 
-0.0709658

>  <r_i_glide_emodel>  (13) 
-24.5128

>  <r_i_glide_energy>  (13) 
-19.2201

>  <r_i_glide_einternal>  (13) 
0

>  <r_i_glide_intrahb_reward>  (13) 
-0

>  <i_i_glide_confnum>  (13) 
2

>  <i_i_glide_posenum>  (13) 
31

>  <r_i_glide_eff_state_penalty>  (13) 
0

>  <ligand_id>  (13) 
5

>  <original_smiles>  (13) 
CN1C2CC3C4=NCCC2C(C=C4)C31

>  <smiles>  (13) 
[H]C1=C([H])C2([H])C3([H])C([H])([H])C([H])([H])N([H])C1=C1C([H])([H])C3([H])[N+]([H])(C([H])([H])[H])C12[H]

$$$$
5:0:1
     RDKit          3D

 31 34  0  0  1  0  0  0  0  0999 V2000
    2.0485   -3.6445   -1.6241 C   0  0  0  0  0  0  0  0  0  0  0  0
    3.2670   -2.8256   -1.8093 N   0  0  2  0  0  0  0  0  0  0  0  0
    4.4473   -3.4862   -1.9952 C   0  0  1  0  0  0  0  0  0  0  0  0
    5.2190   -1.9396   -2.2086 C   0  0  0  0  0  0  0  0  0  0  0  0
    4.7931   -1.2193   -0.8603 C   0  0  0  0  0  0  0  0  0  0  0  0
    5.3310   -0.9767    0.4088 C   0  0  0  0  0  0  0  0  0  0  0  0
    4.5177   -1.3334    1.5503 N   0  0  0  0  0  0  0  0  0  0  0  0
    4.2305   -2.7669    2.0524 C   0  0  0  0  0  0  0  0  0  0  0  0
    3.9773   -4.1146    1.0686 C   0  0  0  0  0  0  0  0  0  0  0  0
    4.6077   -4.3796   -0.4741 C   0  0  2  0  0  0  0  0  0  0  0  0
    5.4605   -3.3819   -0.3616 C   0  0  2  0  0  0  0  0  0  0  0  0
    6.5971   -2.9269    0.5499 C   0  0  0  0  0  0  0  0  0  0  0  0
    6.5948   -1.5931    0.7522 C   0  0  0  0  0  0  0  0  0  0  0  0
    4.0479   -2.3870   -0.6755 C   0  0  2  0  0  0  0  0  0  0  0  0
    2.1874   -4.5838   -1.0869 H   0  0  0  0  0  0  0  0  0  0  0  0
    1.6600   -3.8540   -2.6187 H   0  0  0  0  0  0  0  0  0  0  0  0
    1.2953   -3.0648   -1.1004 H   0  0  0  0  0  0  0  0  0  0  0  0
    4.4645   -4.1187   -2.8888 H   0  0  0  0  0  0  0  0  0  0  0  0
    6.3069   -1.9598   -2.3068 H   0  0  0  0  0  0  0  0  0  0  0  0
    4.8099   -1.3747   -3.0568 H   0  0  0  0  0  0  0  0  0  0  0  0
    5.0411   -2.9994    2.7454 H   0  0  0  0  0  0  0  0  0  0  0  0
    3.3555   -2.6864    2.6972 H   0  0  0  0  0  0  0  0  0  0  0  0
    4.3227   -4.9561    1.6761 H   0  0  0  0  0  0  0  0  0  0  0  0
    2.8967   -4.2582    1.0118 H   0  0  0  0  0  0  0  0  0  0  0  0
    5.0361   -5.3730   -0.6100 H   0  0  0  0  0  0  0  0  0  0  0  0
    6.2908   -3.6764   -1.0645 H   0  0  0  0  0  0  0  0  0  0  0  0
    7.3950   -3.5821    0.8513 H   0  0  0  0  0  0  0  0  0  0  0  0
    7.3399   -1.0811    1.3416 H   0  0  0  0  0  0  0  0  0  0  0  0
    3.1728   -2.1919   -0.0392 H   0  0  0  0  0  0  0  0  0  0  0  0
    4.4761   -0.6348    2.2776 H   0  0  0  0  0  0  0  0  0  0  0  0
    3.1465   -2.0502   -2.4500 H   0  0  0  0  0  0  0  0  0  0  0  0
  1  2  1  0
  1 15  1  0
  1 16  1  0
  1 17  1  0
  2 14  1  0
  2  3  1  0
  2 31  1  6
  3 10  1  0
  3  4  1  0
  3 18  1  6
  4  5  1  0
  4 19  1  0
  4 20  1  0
  5 14  1  0
  5  6  2  0
  6 13  1  0
  6  7  1  0
  7  8  1  0
  7 30  1  0
  8  9  1  0
  8 21  1  0
  8 22  1  0
  9 10  1  0
  9 23  1  0
  9 24  1  0
 10 11  1  0
 10 25  1  6
 11 12  1  0
 11 14  1  0
 11 26  1  6
 12 13  2  0
 12 27  1  0
 13 28  1  0
 14 29  1  1
M  CHG  1   2   1
M  END
>  <i_m_ct_stereo_status>  (14) 
1

>  <s_m_source_file>  (14) 
/var/tmp/pbs.5076255.sched01/tmp5vb4dkz1/0x5hafel7.sdf

>  <i_m_source_file_index>  (14) 
6

>  <i_lp_mmshare_version>  (14) 
48012

>  <i_f3d_flags>  (14) 
0

>  <s_epik_input>  (14) 
W0NASF0xMltDQEhdM1tDQEhdNFtDQEhdKE4xW0NIM10pW0NASF0oW0NIMl0yKS9DKFtDSF09W0NIXTQpPU5cW0NIMl1bQ0gyXTM=

>  <s_epik_cmdline>  (14) 
J2VwaWtfcHl0aG9uJywgJy1waHQnLCAnMi4wJywgJy1waCcsICc3LjAnLCAnLXRuJywgJzgnLCAnLW1hJywgJzIwMCcsICctaW1hZScsICc8aW5maWxlLm1hZT4nLCAnLW9tYWUnLCAnPG91dGZpbGUubWFlPic=

>  <r_epik_Ionization_Penalty>  (14) 
0.126333

>  <r_epik_Ionization_Penalty_Charging>  (14) 
0.126333

>  <r_epik_Ionization_Penalty_Neutral>  (14) 
8.58076e-08

>  <r_epik_State_Penalty>  (14) 
0.115785

>  <r_epik_Charging_Adjusted_Penalty>  (14) 
0.242118

>  <i_epik_Tot_Q>  (14) 
1

>  <i_epik_Tot_abs_Q>  (14) 
1

>  <s_epik_Chemistry_Notes>  (14) 
This compound has an imine and may undergo hydrolysis.

>  <s_lp_Force_Field>  (14) 
OPLS3e

>  <r_lp_Energy>  (14) 
408.911

>  <b_lp_Chiralities_Consistent>  (14) 
1

>  <s_lp_Variant>  (14) 
5:0-1

>  <s_i_glide_gridfile>  (14) 
pfpi4k_grid

>  <i_i_glide_lignum>  (14) 
6

>  <i_i_glide_rotatable_bonds>  (14) 
0

>  <r_i_docking_score>  (14) 
-3.72532

>  <r_i_glide_ligand_efficiency>  (14) 
-0.266094

>  <r_i_glide_ligand_efficiency_sa>  (14) 
-0.641326

>  <r_i_glide_ligand_efficiency_ln>  (14) 
-1.02371

>  <r_i_glide_gscore>  (14) 
-3.72532

>  <r_i_glide_lipo>  (14) 
-0.368525

>  <r_i_glide_hbond>  (14) 
0

>  <r_i_glide_metal>  (14) 
-0

>  <r_i_glide_rewards>  (14) 
-2.11857

>  <r_i_glide_evdw>  (14) 
-14.85

>  <r_i_glide_ecoul>  (14) 
-3.1625

>  <r_i_glide_erotb>  (14) 
0

>  <r_i_glide_esite>  (14) 
-0.0213546

>  <r_i_glide_emodel>  (14) 
-23.1537

>  <r_i_glide_energy>  (14) 
-18.0125

>  <r_i_glide_einternal>  (14) 
0

>  <r_i_glide_intrahb_reward>  (14) 
-0

>  <i_i_glide_confnum>  (14) 
2

>  <i_i_glide_posenum>  (14) 
39

>  <r_i_glide_eff_state_penalty>  (14) 
0

>  <ligand_id>  (14) 
5

>  <original_smiles>  (14) 
CN1C2CC3C4=NCCC2C(C=C4)C31

>  <smiles>  (14) 
[H]C1=C([H])C2([H])C3([H])C([H])([H])C([H])([H])N([H])C1=C1C([H])([H])C3([H])[N+]([H])(C([H])([H])[H])C12[H]

$$$$
5:0:2
     RDKit          3D

 31 34  0  0  1  0  0  0  0  0999 V2000
    2.6836   -1.2251    1.7659 C   0  0  0  0  0  0  0  0  0  0  0  0
    2.8139   -2.4543    0.9432 N   0  0  2  0  0  0  0  0  0  0  0  0
    3.9461   -3.2029    1.0617 C   0  0  1  0  0  0  0  0  0  0  0  0
    3.2426   -4.3448   -0.0378 C   0  0  0  0  0  0  0  0  0  0  0  0
    2.9183   -3.3930   -1.2685 C   0  0  0  0  0  0  0  0  0  0  0  0
    3.5031   -3.0126   -2.4881 C   0  0  0  0  0  0  0  0  0  0  0  0
    3.6211   -1.6029   -2.7491 N   0  0  0  0  0  0  0  0  0  0  0  0
    4.6160   -0.6364   -2.0826 C   0  0  0  0  0  0  0  0  0  0  0  0
    5.1098   -0.6935   -0.4618 C   0  0  0  0  0  0  0  0  0  0  0  0
    5.1789   -2.0613    0.5264 C   0  0  2  0  0  0  0  0  0  0  0  0
    5.0392   -2.8992   -0.4869 C   0  0  2  0  0  0  0  0  0  0  0  0
    5.7222   -3.2036   -1.8171 C   0  0  0  0  0  0  0  0  0  0  0  0
    4.8497   -3.4681   -2.7922 C   0  0  0  0  0  0  0  0  0  0  0  0
    3.3574   -2.4144   -0.3912 C   0  0  2  0  0  0  0  0  0  0  0  0
    3.6172   -0.6993    1.9623 H   0  0  0  0  0  0  0  0  0  0  0  0
    2.2720   -1.5042    2.7312 H   0  0  0  0  0  0  0  0  0  0  0  0
    1.9847   -0.5326    1.3013 H   0  0  0  0  0  0  0  0  0  0  0  0
    4.0977   -3.5992    2.0708 H   0  0  0  0  0  0  0  0  0  0  0  0
    3.8711   -5.1935   -0.3369 H   0  0  0  0  0  0  0  0  0  0  0  0
    2.3061   -4.7677    0.3218 H   0  0  0  0  0  0  0  0  0  0  0  0
    5.5015   -0.6921   -2.7047 H   0  0  0  0  0  0  0  0  0  0  0  0
    4.2299    0.3623   -2.2900 H   0  0  0  0  0  0  0  0  0  0  0  0
    6.1191   -0.2788   -0.4531 H   0  0  0  0  0  0  0  0  0  0  0  0
    4.5295    0.0695    0.0633 H   0  0  0  0  0  0  0  0  0  0  0  0
    6.1046   -2.1311    1.0956 H   0  0  0  0  0  0  0  0  0  0  0  0
    5.5258   -3.8389   -0.1147 H   0  0  0  0  0  0  0  0  0  0  0  0
    6.7821   -3.3913   -1.9028 H   0  0  0  0  0  0  0  0  0  0  0  0
    5.1376   -3.7802   -3.7897 H   0  0  0  0  0  0  0  0  0  0  0  0
    2.9152   -1.4451   -0.6284 H   0  0  0  0  0  0  0  0  0  0  0  0
    3.3117   -1.3020   -3.6600 H   0  0  0  0  0  0  0  0  0  0  0  0
    1.9779   -3.0184    0.9503 H   0  0  0  0  0  0  0  0  0  0  0  0
  1  2  1  0
  1 15  1  0
  1 16  1  0
  1 17  1  0
  2 14  1  0
  2  3  1  0
  2 31  1  6
  3 10  1  0
  3  4  1  0
  3 18  1  1
  4  5  1  0
  4 19  1  0
  4 20  1  0
  5 14  1  0
  5  6  2  0
  6 13  1  0
  6  7  1  0
  7  8  1  0
  7 30  1  0
  8  9  1  0
  8 21  1  0
  8 22  1  0
  9 10  1  0
  9 23  1  0
  9 24  1  0
 10 11  1  0
 10 25  1  1
 11 12  1  0
 11 14  1  0
 11 26  1  1
 12 13  2  0
 12 27  1  0
 13 28  1  0
 14 29  1  6
M  CHG  1   2   1
M  END
>  <i_m_ct_stereo_status>  (15) 
1

>  <s_m_source_file>  (15) 
/var/tmp/pbs.5076255.sched01/tmp5vb4dkz1/0x5hafel7.sdf

>  <i_m_source_file_index>  (15) 
6

>  <i_lp_mmshare_version>  (15) 
48012

>  <i_f3d_flags>  (15) 
0

>  <s_epik_input>  (15) 
W0NASF0xMltDQEhdM1tDQEhdNFtDQEhdKE4xW0NIM10pW0NASF0oW0NIMl0yKS9DKFtDSF09W0NIXTQpPU5cW0NIMl1bQ0gyXTM=

>  <s_epik_cmdline>  (15) 
J2VwaWtfcHl0aG9uJywgJy1waHQnLCAnMi4wJywgJy1waCcsICc3LjAnLCAnLXRuJywgJzgnLCAnLW1hJywgJzIwMCcsICctaW1hZScsICc8aW5maWxlLm1hZT4nLCAnLW9tYWUnLCAnPG91dGZpbGUubWFlPic=

>  <r_epik_Ionization_Penalty>  (15) 
0.126333

>  <r_epik_Ionization_Penalty_Charging>  (15) 
0.126333

>  <r_epik_Ionization_Penalty_Neutral>  (15) 
8.58076e-08

>  <r_epik_State_Penalty>  (15) 
0.115785

>  <r_epik_Charging_Adjusted_Penalty>  (15) 
0.242118

>  <i_epik_Tot_Q>  (15) 
1

>  <i_epik_Tot_abs_Q>  (15) 
1

>  <s_epik_Chemistry_Notes>  (15) 
This compound has an imine and may undergo hydrolysis.

>  <s_lp_Force_Field>  (15) 
OPLS3e

>  <r_lp_Energy>  (15) 
408.911

>  <b_lp_Chiralities_Consistent>  (15) 
1

>  <s_lp_Variant>  (15) 
5:0-1

>  <s_i_glide_gridfile>  (15) 
pfpi4k_grid

>  <i_i_glide_lignum>  (15) 
6

>  <i_i_glide_rotatable_bonds>  (15) 
0

>  <r_i_docking_score>  (15) 
-3.69913

>  <r_i_glide_ligand_efficiency>  (15) 
-0.264224

>  <r_i_glide_ligand_efficiency_sa>  (15) 
-0.636816

>  <r_i_glide_ligand_efficiency_ln>  (15) 
-1.01651

>  <r_i_glide_gscore>  (15) 
-3.69913

>  <r_i_glide_lipo>  (15) 
-0.38981

>  <r_i_glide_hbond>  (15) 
0

>  <r_i_glide_metal>  (15) 
-0

>  <r_i_glide_rewards>  (15) 
-2.11857

>  <r_i_glide_evdw>  (15) 
-16.3318

>  <r_i_glide_ecoul>  (15) 
-2.02475

>  <r_i_glide_erotb>  (15) 
0

>  <r_i_glide_esite>  (15) 
-0.0704516

>  <r_i_glide_emodel>  (15) 
-23.4447

>  <r_i_glide_energy>  (15) 
-18.3565

>  <r_i_glide_einternal>  (15) 
0

>  <r_i_glide_intrahb_reward>  (15) 
-0

>  <i_i_glide_confnum>  (15) 
1

>  <i_i_glide_posenum>  (15) 
10

>  <r_i_glide_eff_state_penalty>  (15) 
0

>  <ligand_id>  (15) 
5

>  <original_smiles>  (15) 
CN1C2CC3C4=NCCC2C(C=C4)C31

>  <smiles>  (15) 
[H]C1=C([H])C2([H])C3([H])C([H])([H])C([H])([H])N([H])C1=C1C([H])([H])C3([H])[N+]([H])(C([H])([H])[H])C12[H]

$$$$
5:1:0
     RDKit          3D

 31 34  0  0  1  0  0  0  0  0999 V2000
    2.5925   -2.3177   -3.5288 C   0  0  0  0  0  0  0  0  0  0  0  0
    3.1073   -3.0573   -2.3561 N   0  0  1  0  0  0  0  0  0  0  0  0
    4.3469   -3.6653   -2.3739 C   0  0  1  0  0  0  0  0  0  0  0  0
    5.2157   -2.1974   -2.6690 C   0  0  0  0  0  0  0  0  0  0  0  0
    4.6078   -1.2665   -1.5187 C   0  0  0  0  0  0  0  0  0  0  0  0
    4.9260   -0.8549   -0.2205 C   0  0  0  0  0  0  0  0  0  0  0  0
    3.9364   -1.0365    0.8230 N   0  0  0  0  0  0  0  0  0  0  0  0
    3.4820   -2.3952    1.4369 C   0  0  0  0  0  0  0  0  0  0  0  0
    3.3426   -3.8690    0.5944 C   0  0  0  0  0  0  0  0  0  0  0  0
    4.2287   -4.3505   -0.7654 C   0  0  2  0  0  0  0  0  0  0  0  0
    5.0285   -3.3185   -0.5925 C   0  0  2  0  0  0  0  0  0  0  0  0
    6.0557   -2.7793    0.4038 C   0  0  0  0  0  0  0  0  0  0  0  0
    6.0887   -1.4445    0.4274 C   0  0  0  0  0  0  0  0  0  0  0  0
    3.7498   -2.3495   -1.2901 C   0  0  2  0  0  0  0  0  0  0  0  0
    2.7697   -1.2354   -3.4645 H   0  0  0  0  0  0  0  0  0  0  0  0
    1.5237   -2.5021   -3.5328 H   0  0  0  0  0  0  0  0  0  0  0  0
    3.0174   -2.7204   -4.4472 H   0  0  0  0  0  0  0  0  0  0  0  0
    4.4797   -4.4137   -3.1709 H   0  0  0  0  0  0  0  0  0  0  0  0
    6.3116   -2.3054   -2.5749 H   0  0  0  0  0  0  0  0  0  0  0  0
    5.0320   -1.7467   -3.6398 H   0  0  0  0  0  0  0  0  0  0  0  0
    4.1497   -2.5552    2.2868 H   0  0  0  0  0  0  0  0  0  0  0  0
    2.5102   -2.2142    1.9032 H   0  0  0  0  0  0  0  0  0  0  0  0
    3.5307   -4.6298    1.3574 H   0  0  0  0  0  0  0  0  0  0  0  0
    2.2864   -3.9865    0.3282 H   0  0  0  0  0  0  0  0  0  0  0  0
    4.6701   -5.3412   -0.6682 H   0  0  0  0  0  0  0  0  0  0  0  0
    5.9611   -3.7008   -1.0874 H   0  0  0  0  0  0  0  0  0  0  0  0
    6.7507   -3.4218    0.9235 H   0  0  0  0  0  0  0  0  0  0  0  0
    6.7321   -0.8510    1.0746 H   0  0  0  0  0  0  0  0  0  0  0  0
    2.7832   -2.0347   -0.8495 H   0  0  0  0  0  0  0  0  0  0  0  0
    3.7481   -0.2323    1.3916 H   0  0  0  0  0  0  0  0  0  0  0  0
    2.4656   -3.7513   -1.9734 H   0  0  0  0  0  0  0  0  0  0  0  0
  1  2  1  0
  1 15  1  0
  1 16  1  0
  1 17  1  0
  2 14  1  0
  2  3  1  0
  2 31  1  1
  3 10  1  0
  3  4  1  0
  3 18  1  6
  4  5  1  0
  4 19  1  0
  4 20  1  0
  5 14  1  0
  5  6  2  0
  6 13  1  0
  6  7  1  0
  7  8  1  0
  7 30  1  0
  8  9  1  0
  8 21  1  0
  8 22  1  0
  9 10  1  0
  9 23  1  0
  9 24  1  0
 10 11  1  0
 10 25  1  6
 11 12  1  0
 11 14  1  0
 11 26  1  6
 12 13  2  0
 12 27  1  0
 13 28  1  0
 14 29  1  1
M  CHG  1   2   1
M  END
>  <i_m_ct_stereo_status>  (16) 
1

>  <s_m_source_file>  (16) 
/var/tmp/pbs.5076255.sched01/tmp5vb4dkz1/0x5hafel7.sdf

>  <i_m_source_file_index>  (16) 
7

>  <i_lp_mmshare_version>  (16) 
48012

>  <i_f3d_flags>  (16) 
0

>  <s_epik_input>  (16) 
W0NASF0xMltDQEhdM1tDQEhdNFtDQEhdKE4xW0NIM10pW0NASF0oW0NIMl0yKS9DKFtDSF09W0NIXTQpPU5cW0NIMl1bQ0gyXTM=

>  <s_epik_cmdline>  (16) 
J2VwaWtfcHl0aG9uJywgJy1waHQnLCAnMi4wJywgJy1waCcsICc3LjAnLCAnLXRuJywgJzgnLCAnLW1hJywgJzIwMCcsICctaW1hZScsICc8aW5maWxlLm1hZT4nLCAnLW9tYWUnLCAnPG91dGZpbGUubWFlPic=

>  <r_epik_Ionization_Penalty>  (16) 
0.126333

>  <r_epik_Ionization_Penalty_Charging>  (16) 
0.126333

>  <r_epik_Ionization_Penalty_Neutral>  (16) 
8.58076e-08

>  <r_epik_State_Penalty>  (16) 
0.115785

>  <r_epik_Charging_Adjusted_Penalty>  (16) 
0.242118

>  <i_epik_Tot_Q>  (16) 
1

>  <i_epik_Tot_abs_Q>  (16) 
1

>  <s_epik_Chemistry_Notes>  (16) 
This compound has an imine and may undergo hydrolysis.

>  <s_lp_Force_Field>  (16) 
OPLS3e

>  <r_lp_Energy>  (16) 
411.186

>  <b_lp_Chiralities_Consistent>  (16) 
1

>  <s_lp_Variant>  (16) 
5:0-2

>  <s_i_glide_gridfile>  (16) 
pfpi4k_grid

>  <i_i_glide_lignum>  (16) 
7

>  <i_i_glide_rotatable_bonds>  (16) 
0

>  <r_i_docking_score>  (16) 
-4.08155

>  <r_i_glide_ligand_efficiency>  (16) 
-0.291539

>  <r_i_glide_ligand_efficiency_sa>  (16) 
-0.70265

>  <r_i_glide_ligand_efficiency_ln>  (16) 
-1.12159

>  <r_i_glide_gscore>  (16) 
-4.08155

>  <r_i_glide_lipo>  (16) 
-0.557474

>  <r_i_glide_hbond>  (16) 
0

>  <r_i_glide_metal>  (16) 
-0

>  <r_i_glide_rewards>  (16) 
-2.11857

>  <r_i_glide_evdw>  (16) 
-16.2451

>  <r_i_glide_ecoul>  (16) 
-3.68568

>  <r_i_glide_erotb>  (16) 
0

>  <r_i_glide_esite>  (16) 
-0.0403986

>  <r_i_glide_emodel>  (16) 
-25.4976

>  <r_i_glide_energy>  (16) 
-19.9308

>  <r_i_glide_einternal>  (16) 
0

>  <r_i_glide_intrahb_reward>  (16) 
-0

>  <i_i_glide_confnum>  (16) 
2

>  <i_i_glide_posenum>  (16) 
12

>  <r_i_glide_eff_state_penalty>  (16) 
0

>  <ligand_id>  (16) 
5

>  <original_smiles>  (16) 
CN1C2CC3C4=NCCC2C(C=C4)C31

>  <smiles>  (16) 
[H]C1=C([H])C2([H])C3([H])C([H])([H])C([H])([H])N([H])C1=C1C([H])([H])C3([H])[N+]([H])(C([H])([H])[H])C12[H]

$$$$
5:1:1
     RDKit          3D

 31 34  0  0  1  0  0  0  0  0999 V2000
    1.7945   -2.7811   -3.4186 C   0  0  0  0  0  0  0  0  0  0  0  0
    3.0308   -3.4362   -3.0241 N   0  0  1  0  0  0  0  0  0  0  0  0
    4.1731   -3.1984   -3.6684 C   0  0  1  0  0  0  0  0  0  0  0  0
    4.1603   -1.4782   -3.4360 C   0  0  0  0  0  0  0  0  0  0  0  0
    3.9783   -1.4330   -1.8742 C   0  0  0  0  0  0  0  0  0  0  0  0
    4.7426   -1.3562   -0.6876 C   0  0  0  0  0  0  0  0  0  0  0  0
    4.4914   -2.3409    0.3278 N   0  0  0  0  0  0  0  0  0  0  0  0
    4.9671   -3.8056    0.3070 C   0  0  0  0  0  0  0  0  0  0  0  0
    4.9616   -4.7739   -1.0460 C   0  0  0  0  0  0  0  0  0  0  0  0
    5.0992   -4.2488   -2.6390 C   0  0  2  0  0  0  0  0  0  0  0  0
    5.6214   -3.0521   -2.4147 C   0  0  2  0  0  0  0  0  0  0  0  0
    6.6643   -2.4454   -1.4919 C   0  0  0  0  0  0  0  0  0  0  0  0
    6.1864   -1.4433   -0.7710 C   0  0  0  0  0  0  0  0  0  0  0  0
    3.9239   -2.8094   -2.0690 C   0  0  2  0  0  0  0  0  0  0  0  0
    1.7087   -1.8582   -2.8380 H   0  0  0  0  0  0  0  0  0  0  0  0
    1.0456   -3.4258   -3.0310 H   0  0  0  0  0  0  0  0  0  0  0  0
    1.6828   -2.6131   -4.4865 H   0  0  0  0  0  0  0  0  0  0  0  0
    4.1411   -3.5443   -4.7002 H   0  0  0  0  0  0  0  0  0  0  0  0
    5.0157   -0.9425   -3.7929 H   0  0  0  0  0  0  0  0  0  0  0  0
    3.3540   -0.9551   -3.9689 H   0  0  0  0  0  0  0  0  0  0  0  0
    5.9846   -3.8183    0.7069 H   0  0  0  0  0  0  0  0  0  0  0  0
    4.3697   -4.3321    1.0526 H   0  0  0  0  0  0  0  0  0  0  0  0
    5.7625   -5.4885   -0.8624 H   0  0  0  0  0  0  0  0  0  0  0  0
    4.0778   -5.3965   -0.9761 H   0  0  0  0  0  0  0  0  0  0  0  0
    5.6778   -4.8443   -3.2625 H   0  0  0  0  0  0  0  0  0  0  0  0
    6.1946   -2.7814   -3.3342 H   0  0  0  0  0  0  0  0  0  0  0  0
    7.7274   -2.6736   -1.6011 H   0  0  0  0  0  0  0  0  0  0  0  0
    6.8039   -0.8206   -0.1300 H   0  0  0  0  0  0  0  0  0  0  0  0
    3.2641   -3.2345   -1.3062 H   0  0  0  0  0  0  0  0  0  0  0  0
    4.4522   -1.9689    1.2689 H   0  0  0  0  0  0  0  0  0  0  0  0
    2.9156   -4.4384   -2.8592 H   0  0  0  0  0  0  0  0  0  0  0  0
  1  2  1  0
  1 15  1  0
  1 16  1  0
  1 17  1  0
  2 14  1  0
  2  3  1  0
  2 31  1  1
  3 10  1  0
  3  4  1  0
  3 18  1  6
  4  5  1  0
  4 19  1  0
  4 20  1  0
  5 14  1  0
  5  6  2  0
  6 13  1  0
  6  7  1  0
  7  8  1  0
  7 30  1  0
  8  9  1  0
  8 21  1  0
  8 22  1  0
  9 10  1  0
  9 23  1  0
  9 24  1  0
 10 11  1  0
 10 25  1  6
 11 12  1  0
 11 14  1  0
 11 26  1  6
 12 13  2  0
 12 27  1  0
 13 28  1  0
 14 29  1  1
M  CHG  1   2   1
M  END
>  <i_m_ct_stereo_status>  (17) 
1

>  <s_m_source_file>  (17) 
/var/tmp/pbs.5076255.sched01/tmp5vb4dkz1/0x5hafel7.sdf

>  <i_m_source_file_index>  (17) 
7

>  <i_lp_mmshare_version>  (17) 
48012

>  <i_f3d_flags>  (17) 
0

>  <s_epik_input>  (17) 
W0NASF0xMltDQEhdM1tDQEhdNFtDQEhdKE4xW0NIM10pW0NASF0oW0NIMl0yKS9DKFtDSF09W0NIXTQpPU5cW0NIMl1bQ0gyXTM=

>  <s_epik_cmdline>  (17) 
J2VwaWtfcHl0aG9uJywgJy1waHQnLCAnMi4wJywgJy1waCcsICc3LjAnLCAnLXRuJywgJzgnLCAnLW1hJywgJzIwMCcsICctaW1hZScsICc8aW5maWxlLm1hZT4nLCAnLW9tYWUnLCAnPG91dGZpbGUubWFlPic=

>  <r_epik_Ionization_Penalty>  (17) 
0.126333

>  <r_epik_Ionization_Penalty_Charging>  (17) 
0.126333

>  <r_epik_Ionization_Penalty_Neutral>  (17) 
8.58076e-08

>  <r_epik_State_Penalty>  (17) 
0.115785

>  <r_epik_Charging_Adjusted_Penalty>  (17) 
0.242118

>  <i_epik_Tot_Q>  (17) 
1

>  <i_epik_Tot_abs_Q>  (17) 
1

>  <s_epik_Chemistry_Notes>  (17) 
This compound has an imine and may undergo hydrolysis.

>  <s_lp_Force_Field>  (17) 
OPLS3e

>  <r_lp_Energy>  (17) 
411.186

>  <b_lp_Chiralities_Consistent>  (17) 
1

>  <s_lp_Variant>  (17) 
5:0-2

>  <s_i_glide_gridfile>  (17) 
pfpi4k_grid

>  <i_i_glide_lignum>  (17) 
7

>  <i_i_glide_rotatable_bonds>  (17) 
0

>  <r_i_docking_score>  (17) 
-3.75066

>  <r_i_glide_ligand_efficiency>  (17) 
-0.267904

>  <r_i_glide_ligand_efficiency_sa>  (17) 
-0.645687

>  <r_i_glide_ligand_efficiency_ln>  (17) 
-1.03067

>  <r_i_glide_gscore>  (17) 
-3.75066

>  <r_i_glide_lipo>  (17) 
-0.726296

>  <r_i_glide_hbond>  (17) 
0

>  <r_i_glide_metal>  (17) 
-0

>  <r_i_glide_rewards>  (17) 
-2.11857

>  <r_i_glide_evdw>  (17) 
-1.07527

>  <r_i_glide_ecoul>  (17) 
-5.65408

>  <r_i_glide_erotb>  (17) 
0

>  <r_i_glide_esite>  (17) 
-0.00392145

>  <r_i_glide_emodel>  (17) 
-9.39722

>  <r_i_glide_energy>  (17) 
-6.72935

>  <r_i_glide_einternal>  (17) 
0

>  <r_i_glide_intrahb_reward>  (17) 
-0

>  <i_i_glide_confnum>  (17) 
1

>  <i_i_glide_posenum>  (17) 
1

>  <r_i_glide_eff_state_penalty>  (17) 
0

>  <ligand_id>  (17) 
5

>  <original_smiles>  (17) 
CN1C2CC3C4=NCCC2C(C=C4)C31

>  <smiles>  (17) 
[H]C1=C([H])C2([H])C3([H])C([H])([H])C([H])([H])N([H])C1=C1C([H])([H])C3([H])[N+]([H])(C([H])([H])[H])C12[H]

$$$$
5:1:2
     RDKit          3D

 31 34  0  0  1  0  0  0  0  0999 V2000
    2.4143   -2.3486    1.4118 C   0  0  0  0  0  0  0  0  0  0  0  0
    3.5249   -2.0714    0.4861 N   0  0  1  0  0  0  0  0  0  0  0  0
    4.5264   -2.9886    0.2765 C   0  0  1  0  0  0  0  0  0  0  0  0
    3.4697   -4.2351   -0.3301 C   0  0  0  0  0  0  0  0  0  0  0  0
    2.6656   -3.4258   -1.4378 C   0  0  0  0  0  0  0  0  0  0  0  0
    2.7168   -3.1712   -2.8255 C   0  0  0  0  0  0  0  0  0  0  0  0
    2.7119   -1.8003   -3.2716 N   0  0  0  0  0  0  0  0  0  0  0  0
    3.8721   -0.7988   -3.1492 C   0  0  0  0  0  0  0  0  0  0  0  0
    4.9358   -0.7057   -1.8386 C   0  0  0  0  0  0  0  0  0  0  0  0
    5.4317   -1.9644   -0.8301 C   0  0  2  0  0  0  0  0  0  0  0  0
    4.9110   -2.8886   -1.6150 C   0  0  2  0  0  0  0  0  0  0  0  0
    5.0330   -3.3485   -3.0653 C   0  0  0  0  0  0  0  0  0  0  0  0
    3.8513   -3.6527   -3.5957 C   0  0  0  0  0  0  0  0  0  0  0  0
    3.3966   -2.3579   -0.9385 C   0  0  2  0  0  0  0  0  0  0  0  0
    1.5348   -2.6894    0.8815 H   0  0  0  0  0  0  0  0  0  0  0  0
    2.1082   -1.4099    1.8701 H   0  0  0  0  0  0  0  0  0  0  0  0
    2.6883   -3.0541    2.2028 H   0  0  0  0  0  0  0  0  0  0  0  0
    5.0745   -3.2540    1.1850 H   0  0  0  0  0  0  0  0  0  0  0  0
    3.9788   -5.1219   -0.7278 H   0  0  0  0  0  0  0  0  0  0  0  0
    2.7696   -4.6329    0.4101 H   0  0  0  0  0  0  0  0  0  0  0  0
    4.4663   -0.9307   -4.0589 H   0  0  0  0  0  0  0  0  0  0  0  0
    3.4340    0.1953   -3.2686 H   0  0  0  0  0  0  0  0  0  0  0  0
    5.8184   -0.2871   -2.3099 H   0  0  0  0  0  0  0  0  0  0  0  0
    4.5874    0.0916   -1.1911 H   0  0  0  0  0  0  0  0  0  0  0  0
    6.5100   -2.0193   -0.6772 H   0  0  0  0  0  0  0  0  0  0  0  0
    5.4988   -3.8080   -1.3670 H   0  0  0  0  0  0  0  0  0  0  0  0
    5.9813   -3.5936   -3.5214 H   0  0  0  0  0  0  0  0  0  0  0  0
    3.7271   -4.0703   -4.5851 H   0  0  0  0  0  0  0  0  0  0  0  0
    2.8546   -1.4142   -1.0698 H   0  0  0  0  0  0  0  0  0  0  0  0
    2.0698   -1.6125   -4.0320 H   0  0  0  0  0  0  0  0  0  0  0  0
    3.9347   -1.1615    0.6006 H   0  0  0  0  0  0  0  0  0  0  0  0
  1  2  1  0
  1 15  1  0
  1 16  1  0
  1 17  1  0
  2 14  1  0
  2  3  1  0
  2 31  1  6
  3 10  1  0
  3  4  1  0
  3 18  1  1
  4  5  1  0
  4 19  1  0
  4 20  1  0
  5 14  1  0
  5  6  2  0
  6 13  1  0
  6  7  1  0
  7  8  1  0
  7 30  1  0
  8  9  1  0
  8 21  1  0
  8 22  1  0
  9 10  1  0
  9 23  1  0
  9 24  1  0
 10 11  1  0
 10 25  1  1
 11 12  1  0
 11 14  1  0
 11 26  1  1
 12 13  2  0
 12 27  1  0
 13 28  1  0
 14 29  1  6
M  CHG  1   2   1
M  END
>  <i_m_ct_stereo_status>  (18) 
1

>  <s_m_source_file>  (18) 
/var/tmp/pbs.5076255.sched01/tmp5vb4dkz1/0x5hafel7.sdf

>  <i_m_source_file_index>  (18) 
7

>  <i_lp_mmshare_version>  (18) 
48012

>  <i_f3d_flags>  (18) 
0

>  <s_epik_input>  (18) 
W0NASF0xMltDQEhdM1tDQEhdNFtDQEhdKE4xW0NIM10pW0NASF0oW0NIMl0yKS9DKFtDSF09W0NIXTQpPU5cW0NIMl1bQ0gyXTM=

>  <s_epik_cmdline>  (18) 
J2VwaWtfcHl0aG9uJywgJy1waHQnLCAnMi4wJywgJy1waCcsICc3LjAnLCAnLXRuJywgJzgnLCAnLW1hJywgJzIwMCcsICctaW1hZScsICc8aW5maWxlLm1hZT4nLCAnLW9tYWUnLCAnPG91dGZpbGUubWFlPic=

>  <r_epik_Ionization_Penalty>  (18) 
0.126333

>  <r_epik_Ionization_Penalty_Charging>  (18) 
0.126333

>  <r_epik_Ionization_Penalty_Neutral>  (18) 
8.58076e-08

>  <r_epik_State_Penalty>  (18) 
0.115785

>  <r_epik_Charging_Adjusted_Penalty>  (18) 
0.242118

>  <i_epik_Tot_Q>  (18) 
1

>  <i_epik_Tot_abs_Q>  (18) 
1

>  <s_epik_Chemistry_Notes>  (18) 
This compound has an imine and may undergo hydrolysis.

>  <s_lp_Force_Field>  (18) 
OPLS3e

>  <r_lp_Energy>  (18) 
411.186

>  <b_lp_Chiralities_Consistent>  (18) 
1

>  <s_lp_Variant>  (18) 
5:0-2

>  <s_i_glide_gridfile>  (18) 
pfpi4k_grid

>  <i_i_glide_lignum>  (18) 
7

>  <i_i_glide_rotatable_bonds>  (18) 
0

>  <r_i_docking_score>  (18) 
-3.69802

>  <r_i_glide_ligand_efficiency>  (18) 
-0.264144

>  <r_i_glide_ligand_efficiency_sa>  (18) 
-0.636626

>  <r_i_glide_ligand_efficiency_ln>  (18) 
-1.0162

>  <r_i_glide_gscore>  (18) 
-3.69802

>  <r_i_glide_lipo>  (18) 
-0.607169

>  <r_i_glide_hbond>  (18) 
0

>  <r_i_glide_metal>  (18) 
-0

>  <r_i_glide_rewards>  (18) 
-2.11857

>  <r_i_glide_evdw>  (18) 
-12.8345

>  <r_i_glide_ecoul>  (18) 
-1.93671

>  <r_i_glide_erotb>  (18) 
0

>  <r_i_glide_esite>  (18) 
-0.040054

>  <r_i_glide_emodel>  (18) 
-19.6455

>  <r_i_glide_energy>  (18) 
-14.7712

>  <r_i_glide_einternal>  (18) 
0

>  <r_i_glide_intrahb_reward>  (18) 
-0

>  <i_i_glide_confnum>  (18) 
1

>  <i_i_glide_posenum>  (18) 
38

>  <r_i_glide_eff_state_penalty>  (18) 
0

>  <ligand_id>  (18) 
5

>  <original_smiles>  (18) 
CN1C2CC3C4=NCCC2C(C=C4)C31

>  <smiles>  (18) 
[H]C1=C([H])C2([H])C3([H])C([H])([H])C([H])([H])N([H])C1=C1C([H])([H])C3([H])[N+]([H])(C([H])([H])[H])C12[H]

$$$$
5:2:0
     RDKit          3D

 30 33  0  0  1  0  0  0  0  0999 V2000
    3.6428   -2.5944   -3.1552 C   0  0  0  0  0  0  0  0  0  0  0  0
    3.9506   -3.0582   -1.8028 N   0  0  0  0  0  0  0  0  0  0  0  0
    3.6559   -2.1713   -0.6767 C   0  0  2  0  0  0  0  0  0  0  0  0
    4.6530   -1.0236   -0.9388 C   0  0  0  0  0  0  0  0  0  0  0  0
    5.8997   -1.8668   -0.9877 C   0  0  0  0  0  0  0  0  0  0  0  0
    6.8080   -1.8637    0.0316 C   0  0  0  0  0  0  0  0  0  0  0  0
    6.5670   -1.0548    1.1224 N   0  0  0  0  0  0  0  0  0  0  0  0
    5.3939   -1.1842    1.9925 C   0  0  0  0  0  0  0  0  0  0  0  0
    4.5378   -2.4961    1.8718 C   0  0  0  0  0  0  0  0  0  0  0  0
    4.1183   -3.1382    0.4898 C   0  0  2  0  0  0  0  0  0  0  0  0
    5.1862   -4.0480   -0.2403 C   0  0  2  0  0  0  0  0  0  0  0  0
    6.5661   -4.2004    0.3886 C   0  0  0  0  0  0  0  0  0  0  0  0
    7.3856   -3.1392    0.4035 C   0  0  0  0  0  0  0  0  0  0  0  0
    5.3700   -3.2100   -1.5090 C   0  0  1  0  0  0  0  0  0  0  0  0
    2.5983   -2.2864   -3.2305 H   0  0  0  0  0  0  0  0  0  0  0  0
    3.7859   -3.4230   -3.8498 H   0  0  0  0  0  0  0  0  0  0  0  0
    4.2797   -1.7805   -3.5006 H   0  0  0  0  0  0  0  0  0  0  0  0
    2.6188   -1.8546   -0.6178 H   0  0  0  0  0  0  0  0  0  0  0  0
    4.4804   -0.5204   -1.8853 H   0  0  0  0  0  0  0  0  0  0  0  0
    4.6171   -0.2258   -0.2033 H   0  0  0  0  0  0  0  0  0  0  0  0
    5.7456   -1.1020    3.0223 H   0  0  0  0  0  0  0  0  0  0  0  0
    4.7576   -0.3089    1.8595 H   0  0  0  0  0  0  0  0  0  0  0  0
    5.0204   -3.2743    2.4638 H   0  0  0  0  0  0  0  0  0  0  0  0
    3.6141   -2.2870    2.4079 H   0  0  0  0  0  0  0  0  0  0  0  0
    3.2769   -3.7951    0.7108 H   0  0  0  0  0  0  0  0  0  0  0  0
    4.7852   -5.0351   -0.4729 H   0  0  0  0  0  0  0  0  0  0  0  0
    6.8890   -5.1834    0.7028 H   0  0  0  0  0  0  0  0  0  0  0  0
    8.3996   -3.2063    0.7681 H   0  0  0  0  0  0  0  0  0  0  0  0
    5.9732   -3.6893   -2.2838 H   0  0  0  0  0  0  0  0  0  0  0  0
    7.1480   -0.2291    1.2708 H   0  0  0  0  0  0  0  0  0  0  0  0
  1  2  1  0
  1 15  1  0
  1 16  1  0
  1 17  1  0
  2 14  1  0
  2  3  1  0
  3 10  1  0
  3  4  1  0
  3 18  1  1
  4  5  1  0
  4 19  1  0
  4 20  1  0
  5 14  1  0
  5  6  2  0
  6 13  1  0
  6  7  1  0
  7  8  1  0
  7 30  1  0
  8  9  1  0
  8 21  1  0
  8 22  1  0
  9 10  1  0
  9 23  1  0
  9 24  1  0
 10 11  1  0
 10 25  1  1
 11 12  1  0
 11 14  1  0
 11 26  1  6
 12 13  2  0
 12 27  1  0
 13 28  1  0
 14 29  1  6
M  END
>  <i_m_ct_stereo_status>  (19) 
1

>  <s_m_source_file>  (19) 
/var/tmp/pbs.5076255.sched01/tmp5vb4dkz1/0x5hafel7.sdf

>  <i_m_source_file_index>  (19) 
8

>  <i_lp_mmshare_version>  (19) 
48012

>  <i_f3d_flags>  (19) 
3

>  <s_epik_input>  (19) 
W0NASF0xMltDQEhdM1tDQEhdNFtDQEhdKE4xW0NIM10pW0NASF0oW0NIMl0yKS9DKFtDSF09W0NIXTQpPU5cW0NIMl1bQ0gyXTM=

>  <s_epik_cmdline>  (19) 
J2VwaWtfcHl0aG9uJywgJy1waHQnLCAnMi4wJywgJy1waCcsICc3LjAnLCAnLXRuJywgJzgnLCAnLW1hJywgJzIwMCcsICctaW1hZScsICc8aW5maWxlLm1hZT4nLCAnLW9tYWUnLCAnPG91dGZpbGUubWFlPic=

>  <r_epik_Ionization_Penalty>  (19) 
0.978625

>  <r_epik_Ionization_Penalty_Charging>  (19) 
1.05575e-10

>  <r_epik_Ionization_Penalty_Neutral>  (19) 
0.978625

>  <r_epik_State_Penalty>  (19) 
1.02424

>  <r_epik_Charging_Adjusted_Penalty>  (19) 
1.02424

>  <i_epik_Tot_Q>  (19) 
0

>  <i_epik_Tot_abs_Q>  (19) 
0

>  <s_epik_Chemistry_Notes>  (19) 
This compound has an imine and may undergo hydrolysis.

>  <s_lp_Force_Field>  (19) 
OPLS3e

>  <r_lp_Energy>  (19) 
100.017

>  <b_lp_Chiralities_Consistent>  (19) 
0

>  <s_lp_Variant>  (19) 
5:0-3

>  <s_i_glide_gridfile>  (19) 
pfpi4k_grid

>  <i_i_glide_lignum>  (19) 
8

>  <i_i_glide_rotatable_bonds>  (19) 
0

>  <r_i_docking_score>  (19) 
-4.22308

>  <r_i_glide_ligand_efficiency>  (19) 
-0.301648

>  <r_i_glide_ligand_efficiency_sa>  (19) 
-0.727016

>  <r_i_glide_ligand_efficiency_ln>  (19) 
-1.16049

>  <r_i_glide_gscore>  (19) 
-4.22308

>  <r_i_glide_lipo>  (19) 
-0.676795

>  <r_i_glide_hbond>  (19) 
-0.32

>  <r_i_glide_metal>  (19) 
-0

>  <r_i_glide_rewards>  (19) 
-2.12544

>  <r_i_glide_evdw>  (19) 
-15.8286

>  <r_i_glide_ecoul>  (19) 
-2.06276

>  <r_i_glide_erotb>  (19) 
0

>  <r_i_glide_esite>  (19) 
0

>  <r_i_glide_emodel>  (19) 
-22.9027

>  <r_i_glide_energy>  (19) 
-17.8913

>  <r_i_glide_einternal>  (19) 
0

>  <r_i_glide_intrahb_reward>  (19) 
-0

>  <i_i_glide_confnum>  (19) 
2

>  <i_i_glide_posenum>  (19) 
28

>  <r_i_glide_eff_state_penalty>  (19) 
0

>  <ligand_id>  (19) 
5

>  <original_smiles>  (19) 
CN1C2CC3C4=NCCC2C(C=C4)C31

>  <smiles>  (19) 
[H]C1=C([H])C2([H])C3([H])C4=C1N([H])C([H])([H])C([H])([H])C2([H])C([H])(N3C([H])([H])[H])C4([H])[H]

$$$$
5:2:1
     RDKit          3D

 30 33  0  0  1  0  0  0  0  0999 V2000
    3.6941   -1.1795   -4.0919 C   0  0  0  0  0  0  0  0  0  0  0  0
    4.5372   -2.0993   -3.3316 N   0  0  0  0  0  0  0  0  0  0  0  0
    3.8923   -3.2091   -2.6268 C   0  0  2  0  0  0  0  0  0  0  0  0
    3.0448   -2.4579   -1.5828 C   0  0  0  0  0  0  0  0  0  0  0  0
    4.1687   -1.6708   -0.9620 C   0  0  0  0  0  0  0  0  0  0  0  0
    4.6713   -1.9710    0.2706 C   0  0  0  0  0  0  0  0  0  0  0  0
    4.1014   -3.0163    0.9717 N   0  0  0  0  0  0  0  0  0  0  0  0
    4.0985   -4.4073    0.4875 C   0  0  0  0  0  0  0  0  0  0  0  0
    5.0440   -4.7665   -0.7203 C   0  0  0  0  0  0  0  0  0  0  0  0
    5.1939   -3.8688   -2.0125 C   0  0  2  0  0  0  0  0  0  0  0  0
    6.1730   -2.6340   -1.9160 C   0  0  2  0  0  0  0  0  0  0  0  0
    6.8622   -2.3367   -0.5895 C   0  0  0  0  0  0  0  0  0  0  0  0
    6.1116   -1.9006    0.4377 C   0  0  0  0  0  0  0  0  0  0  0  0
    5.1438   -1.5166   -2.1404 C   0  0  1  0  0  0  0  0  0  0  0  0
    3.0735   -1.7330   -4.7961 H   0  0  0  0  0  0  0  0  0  0  0  0
    4.3322   -0.5032   -4.6630 H   0  0  0  0  0  0  0  0  0  0  0  0
    3.0466   -0.5543   -3.4777 H   0  0  0  0  0  0  0  0  0  0  0  0
    3.3120   -3.8564   -3.2837 H   0  0  0  0  0  0  0  0  0  0  0  0
    2.3045   -1.8206   -2.0513 H   0  0  0  0  0  0  0  0  0  0  0  0
    2.4670   -3.0966   -0.9245 H   0  0  0  0  0  0  0  0  0  0  0  0
    4.3706   -5.0457    1.3302 H   0  0  0  0  0  0  0  0  0  0  0  0
    3.0749   -4.6989    0.2526 H   0  0  0  0  0  0  0  0  0  0  0  0
    6.0413   -4.9458   -0.3189 H   0  0  0  0  0  0  0  0  0  0  0  0
    4.7134   -5.7479   -1.0621 H   0  0  0  0  0  0  0  0  0  0  0  0
    5.5915   -4.5140   -2.7918 H   0  0  0  0  0  0  0  0  0  0  0  0
    6.9196   -2.6605   -2.7132 H   0  0  0  0  0  0  0  0  0  0  0  0
    7.9399   -2.3857   -0.5356 H   0  0  0  0  0  0  0  0  0  0  0  0
    6.5552   -1.6167    1.3807 H   0  0  0  0  0  0  0  0  0  0  0  0
    5.5629   -0.5183   -2.2647 H   0  0  0  0  0  0  0  0  0  0  0  0
    3.5338   -2.8032    1.7805 H   0  0  0  0  0  0  0  0  0  0  0  0
  1  2  1  0
  1 15  1  0
  1 16  1  0
  1 17  1  0
  2 14  1  0
  2  3  1  0
  3 10  1  0
  3  4  1  0
  3 18  1  6
  4  5  1  0
  4 19  1  0
  4 20  1  0
  5 14  1  0
  5  6  2  0
  6 13  1  0
  6  7  1  0
  7  8  1  0
  7 30  1  0
  8  9  1  0
  8 21  1  0
  8 22  1  0
  9 10  1  0
  9 23  1  0
  9 24  1  0
 10 11  1  0
 10 25  1  6
 11 12  1  0
 11 14  1  0
 11 26  1  6
 12 13  2  0
 12 27  1  0
 13 28  1  0
 14 29  1  6
M  END
>  <i_m_ct_stereo_status>  (20) 
1

>  <s_m_source_file>  (20) 
/var/tmp/pbs.5076255.sched01/tmp5vb4dkz1/0x5hafel7.sdf

>  <i_m_source_file_index>  (20) 
8

>  <i_lp_mmshare_version>  (20) 
48012

>  <i_f3d_flags>  (20) 
3

>  <s_epik_input>  (20) 
W0NASF0xMltDQEhdM1tDQEhdNFtDQEhdKE4xW0NIM10pW0NASF0oW0NIMl0yKS9DKFtDSF09W0NIXTQpPU5cW0NIMl1bQ0gyXTM=

>  <s_epik_cmdline>  (20) 
J2VwaWtfcHl0aG9uJywgJy1waHQnLCAnMi4wJywgJy1waCcsICc3LjAnLCAnLXRuJywgJzgnLCAnLW1hJywgJzIwMCcsICctaW1hZScsICc8aW5maWxlLm1hZT4nLCAnLW9tYWUnLCAnPG91dGZpbGUubWFlPic=

>  <r_epik_Ionization_Penalty>  (20) 
0.978625

>  <r_epik_Ionization_Penalty_Charging>  (20) 
1.05575e-10

>  <r_epik_Ionization_Penalty_Neutral>  (20) 
0.978625

>  <r_epik_State_Penalty>  (20) 
1.02424

>  <r_epik_Charging_Adjusted_Penalty>  (20) 
1.02424

>  <i_epik_Tot_Q>  (20) 
0

>  <i_epik_Tot_abs_Q>  (20) 
0

>  <s_epik_Chemistry_Notes>  (20) 
This compound has an imine and may undergo hydrolysis.

>  <s_lp_Force_Field>  (20) 
OPLS3e

>  <r_lp_Energy>  (20) 
100.017

>  <b_lp_Chiralities_Consistent>  (20) 
0

>  <s_lp_Variant>  (20) 
5:0-3

>  <s_i_glide_gridfile>  (20) 
pfpi4k_grid

>  <i_i_glide_lignum>  (20) 
8

>  <i_i_glide_rotatable_bonds>  (20) 
0

>  <r_i_docking_score>  (20) 
-3.53138

>  <r_i_glide_ligand_efficiency>  (20) 
-0.252241

>  <r_i_glide_ligand_efficiency_sa>  (20) 
-0.607937

>  <r_i_glide_ligand_efficiency_ln>  (20) 
-0.97041

>  <r_i_glide_gscore>  (20) 
-3.53138

>  <r_i_glide_lipo>  (20) 
-0.179865

>  <r_i_glide_hbond>  (20) 
0

>  <r_i_glide_metal>  (20) 
-0

>  <r_i_glide_rewards>  (20) 
-2.12544

>  <r_i_glide_evdw>  (20) 
-18.2107

>  <r_i_glide_ecoul>  (20) 
-2.10357

>  <r_i_glide_erotb>  (20) 
0

>  <r_i_glide_esite>  (20) 
0

>  <r_i_glide_emodel>  (20) 
-24.4929

>  <r_i_glide_energy>  (20) 
-20.3143

>  <r_i_glide_einternal>  (20) 
0

>  <r_i_glide_intrahb_reward>  (20) 
-0

>  <i_i_glide_confnum>  (20) 
1

>  <i_i_glide_posenum>  (20) 
14

>  <r_i_glide_eff_state_penalty>  (20) 
0

>  <ligand_id>  (20) 
5

>  <original_smiles>  (20) 
CN1C2CC3C4=NCCC2C(C=C4)C31

>  <smiles>  (20) 
[H]C1=C([H])C2([H])C3([H])C4=C1N([H])C([H])([H])C([H])([H])C2([H])C([H])(N3C([H])([H])[H])C4([H])[H]

$$$$
5:2:2
     RDKit          3D

 30 33  0  0  1  0  0  0  0  0999 V2000
    3.2348   -3.1086    1.8100 C   0  0  0  0  0  0  0  0  0  0  0  0
    4.0804   -2.3558    0.8881 N   0  0  0  0  0  0  0  0  0  0  0  0
    3.4233   -1.5631   -0.1541 C   0  0  2  0  0  0  0  0  0  0  0  0
    2.7789   -2.6738   -1.0204 C   0  0  0  0  0  0  0  0  0  0  0  0
    4.0326   -3.4550   -1.2839 C   0  0  0  0  0  0  0  0  0  0  0  0
    4.6374   -3.4396   -2.5061 C   0  0  0  0  0  0  0  0  0  0  0  0
    4.0809   -2.7102   -3.5356 N   0  0  0  0  0  0  0  0  0  0  0  0
    3.8820   -1.2504   -3.4558 C   0  0  0  0  0  0  0  0  0  0  0  0
    4.6341   -0.4710   -2.3105 C   0  0  0  0  0  0  0  0  0  0  0  0
    4.7258   -0.9484   -0.8082 C   0  0  2  0  0  0  0  0  0  0  0  0
    5.8135   -2.0431   -0.4580 C   0  0  2  0  0  0  0  0  0  0  0  0
    6.6752   -2.6196   -1.5787 C   0  0  0  0  0  0  0  0  0  0  0  0
    6.0855   -3.3790   -2.5087 C   0  0  0  0  0  0  0  0  0  0  0  0
    4.8702   -3.1715   -0.0255 C   0  0  1  0  0  0  0  0  0  0  0  0
    2.5021   -2.4461    2.2818 H   0  0  0  0  0  0  0  0  0  0  0  0
    3.8691   -3.5250    2.5962 H   0  0  0  0  0  0  0  0  0  0  0  0
    2.7177   -3.9441    1.3404 H   0  0  0  0  0  0  0  0  0  0  0  0
    2.7237   -0.8170    0.2232 H   0  0  0  0  0  0  0  0  0  0  0  0
    2.0493   -3.2683   -0.4780 H   0  0  0  0  0  0  0  0  0  0  0  0
    2.2378   -2.3211   -1.8940 H   0  0  0  0  0  0  0  0  0  0  0  0
    4.2014   -0.8282   -4.4096 H   0  0  0  0  0  0  0  0  0  0  0  0
    2.8167   -1.0256   -3.4155 H   0  0  0  0  0  0  0  0  0  0  0  0
    5.6595   -0.3259   -2.6135 H   0  0  0  0  0  0  0  0  0  0  0  0
    4.2180    0.5338   -2.3178 H   0  0  0  0  0  0  0  0  0  0  0  0
    4.9987   -0.0717   -0.2178 H   0  0  0  0  0  0  0  0  0  0  0  0
    6.4611   -1.7280    0.3629 H   0  0  0  0  0  0  0  0  0  0  0  0
    7.7503   -2.4953   -1.5439 H   0  0  0  0  0  0  0  0  0  0  0  0
    6.6432   -3.8505   -3.2915 H   0  0  0  0  0  0  0  0  0  0  0  0
    5.3749   -4.0334    0.4129 H   0  0  0  0  0  0  0  0  0  0  0  0
    3.5560   -3.2152   -4.2338 H   0  0  0  0  0  0  0  0  0  0  0  0
  1  2  1  0
  1 15  1  0
  1 16  1  0
  1 17  1  0
  2 14  1  0
  2  3  1  0
  3 10  1  0
  3  4  1  0
  3 18  1  1
  4  5  1  0
  4 19  1  0
  4 20  1  0
  5 14  1  0
  5  6  2  0
  6 13  1  0
  6  7  1  0
  7  8  1  0
  7 30  1  0
  8  9  1  0
  8 21  1  0
  8 22  1  0
  9 10  1  0
  9 23  1  0
  9 24  1  0
 10 11  1  0
 10 25  1  1
 11 12  1  0
 11 14  1  0
 11 26  1  1
 12 13  2  0
 12 27  1  0
 13 28  1  0
 14 29  1  1
M  END
>  <i_m_ct_stereo_status>  (21) 
1

>  <s_m_source_file>  (21) 
/var/tmp/pbs.5076255.sched01/tmp5vb4dkz1/0x5hafel7.sdf

>  <i_m_source_file_index>  (21) 
8

>  <i_lp_mmshare_version>  (21) 
48012

>  <i_f3d_flags>  (21) 
3

>  <s_epik_input>  (21) 
W0NASF0xMltDQEhdM1tDQEhdNFtDQEhdKE4xW0NIM10pW0NASF0oW0NIMl0yKS9DKFtDSF09W0NIXTQpPU5cW0NIMl1bQ0gyXTM=

>  <s_epik_cmdline>  (21) 
J2VwaWtfcHl0aG9uJywgJy1waHQnLCAnMi4wJywgJy1waCcsICc3LjAnLCAnLXRuJywgJzgnLCAnLW1hJywgJzIwMCcsICctaW1hZScsICc8aW5maWxlLm1hZT4nLCAnLW9tYWUnLCAnPG91dGZpbGUubWFlPic=

>  <r_epik_Ionization_Penalty>  (21) 
0.978625

>  <r_epik_Ionization_Penalty_Charging>  (21) 
1.05575e-10

>  <r_epik_Ionization_Penalty_Neutral>  (21) 
0.978625

>  <r_epik_State_Penalty>  (21) 
1.02424

>  <r_epik_Charging_Adjusted_Penalty>  (21) 
1.02424

>  <i_epik_Tot_Q>  (21) 
0

>  <i_epik_Tot_abs_Q>  (21) 
0

>  <s_epik_Chemistry_Notes>  (21) 
This compound has an imine and may undergo hydrolysis.

>  <s_lp_Force_Field>  (21) 
OPLS3e

>  <r_lp_Energy>  (21) 
100.017

>  <b_lp_Chiralities_Consistent>  (21) 
0

>  <s_lp_Variant>  (21) 
5:0-3

>  <s_i_glide_gridfile>  (21) 
pfpi4k_grid

>  <i_i_glide_lignum>  (21) 
8

>  <i_i_glide_rotatable_bonds>  (21) 
0

>  <r_i_docking_score>  (21) 
-3.48203

>  <r_i_glide_ligand_efficiency>  (21) 
-0.248716

>  <r_i_glide_ligand_efficiency_sa>  (21) 
-0.599442

>  <r_i_glide_ligand_efficiency_ln>  (21) 
-0.956849

>  <r_i_glide_gscore>  (21) 
-3.48203

>  <r_i_glide_lipo>  (21) 
-0.554786

>  <r_i_glide_hbond>  (21) 
0

>  <r_i_glide_metal>  (21) 
-0

>  <r_i_glide_rewards>  (21) 
-2.12544

>  <r_i_glide_evdw>  (21) 
-15.3973

>  <r_i_glide_ecoul>  (21) 
-0.212912

>  <r_i_glide_erotb>  (21) 
0

>  <r_i_glide_esite>  (21) 
0

>  <r_i_glide_emodel>  (21) 
-19.6036

>  <r_i_glide_energy>  (21) 
-15.6102

>  <r_i_glide_einternal>  (21) 
0

>  <r_i_glide_intrahb_reward>  (21) 
-0

>  <i_i_glide_confnum>  (21) 
2

>  <i_i_glide_posenum>  (21) 
38

>  <r_i_glide_eff_state_penalty>  (21) 
0

>  <ligand_id>  (21) 
5

>  <original_smiles>  (21) 
CN1C2CC3C4=NCCC2C(C=C4)C31

>  <smiles>  (21) 
[H]C1=C([H])C2([H])C3([H])C4=C1N([H])C([H])([H])C([H])([H])C2([H])C([H])(N3C([H])([H])[H])C4([H])[H]

$$$$
6:0:0
     RDKit          3D

 74 81  0  0  1  0  0  0  0  0999 V2000
    1.0443   -2.9622    6.0186 C   0  0  0  0  0  0  0  0  0  0  0  0
    1.6648   -4.3617    6.1837 C   0  0  0  0  0  0  0  0  0  0  0  0
    2.9050   -4.2729    7.1066 C   0  0  0  0  0  0  0  0  0  0  0  0
    0.7178   -5.2280    6.8052 O   0  0  0  0  0  0  0  0  0  0  0  0
    1.0267   -6.5913    6.4894 C   0  0  0  0  0  0  0  0  0  0  0  0
    1.5519   -6.5615    5.0501 C   0  0  2  0  0  0  0  0  0  0  0  0
    1.9526   -5.0973    4.8708 C   0  0  1  0  0  0  0  0  0  0  0  0
    1.0067   -5.0128    3.6707 C   0  0  0  0  0  0  0  0  0  0  0  0
    0.5558   -6.4630    3.8850 C   0  0  2  0  0  0  0  0  0  0  0  0
   -0.8120   -6.6138    4.2244 O   0  0  0  0  0  0  0  0  0  0  0  0
    0.8694   -7.5574    2.8499 C   0  0  1  0  0  0  0  0  0  0  0  0
    0.9010   -7.0142    1.5447 O   0  0  0  0  0  0  0  0  0  0  0  0
    2.1344   -8.3698    3.3303 C   0  0  2  0  0  0  0  0  0  0  0  0
    1.6069   -9.8034    3.6769 C   0  0  0  0  0  0  0  0  0  0  0  0
    2.4906   -7.7559    4.7405 C   0  0  1  0  0  0  0  0  0  0  0  0
    3.9840   -7.5734    5.0315 C   0  0  0  0  0  0  0  0  0  0  0  0
    4.8071   -8.7354    4.4554 C   0  0  0  0  0  0  0  0  0  0  0  0
    4.7381   -8.8681    2.9208 C   0  0  2  0  0  0  0  0  0  0  0  0
    5.7845   -8.0724    2.1101 C   0  0  2  0  0  0  0  0  0  0  0  0
    7.1720   -8.6006    1.7615 C   0  0  0  0  0  0  0  0  0  0  0  0
    7.5579   -7.1415    1.5110 C   0  0  0  0  0  0  0  0  0  0  0  0
    6.4463   -6.7188    2.5138 C   0  0  2  0  0  0  0  0  0  0  0  0
    7.0944   -6.5262    3.9081 C   0  0  0  0  0  0  0  0  0  0  0  0
    5.5321   -5.4924    2.2069 C   0  0  1  0  0  0  0  0  0  0  0  0
    6.0900   -4.6078    1.0970 C   0  0  0  0  0  0  0  0  0  0  0  0
    7.4139   -4.0787    1.0222 C   0  0  0  0  0  0  0  0  0  0  0  0
    7.5029   -3.3641   -0.1339 C   0  0  0  0  0  0  0  0  0  0  0  0
    6.3161   -3.3836   -0.7920 O   0  0  0  0  0  0  0  0  0  0  0  0
    5.4751   -4.1406   -0.0344 C   0  0  0  0  0  0  0  0  0  0  0  0
    4.0434   -5.9182    1.9666 C   0  0  0  0  0  0  0  0  0  0  0  0
    3.8069   -7.3222    1.3666 C   0  0  1  0  0  0  0  0  0  0  0  0
    5.0630   -7.7855    0.9206 O   0  0  0  0  0  0  0  0  0  0  0  0
    3.3623   -8.5164    2.2811 C   0  0  2  0  0  0  0  0  0  0  0  0
    3.0142   -9.6394    1.2572 C   0  0  0  0  0  0  0  0  0  0  0  0
    1.6685   -2.3175    5.4008 H   0  0  0  0  0  0  0  0  0  0  0  0
    0.9222   -2.4687    6.9828 H   0  0  0  0  0  0  0  0  0  0  0  0
    0.0566   -3.0092    5.5658 H   0  0  0  0  0  0  0  0  0  0  0  0
    3.6562   -3.5855    6.7142 H   0  0  0  0  0  0  0  0  0  0  0  0
    3.3894   -5.2383    7.2466 H   0  0  0  0  0  0  0  0  0  0  0  0
    2.6245   -3.9077    8.0972 H   0  0  0  0  0  0  0  0  0  0  0  0
    1.7811   -6.9532    7.1909 H   0  0  0  0  0  0  0  0  0  0  0  0
    0.1397   -7.2118    6.6077 H   0  0  0  0  0  0  0  0  0  0  0  0
    2.9721   -4.9210    4.5528 H   0  0  0  0  0  0  0  0  0  0  0  0
    0.2126   -4.2824    3.7911 H   0  0  0  0  0  0  0  0  0  0  0  0
    1.5164   -4.8332    2.7276 H   0  0  0  0  0  0  0  0  0  0  0  0
   -0.9208   -7.5060    4.5143 H   0  0  0  0  0  0  0  0  0  0  0  0
    0.0260   -8.2484    2.7857 H   0  0  0  0  0  0  0  0  0  0  0  0
    0.9629   -7.7358    0.9343 H   0  0  0  0  0  0  0  0  0  0  0  0
    2.4114  -10.4533    4.0296 H   0  0  0  0  0  0  0  0  0  0  0  0
    1.1223  -10.3063    2.8369 H   0  0  0  0  0  0  0  0  0  0  0  0
    0.8454   -9.7867    4.4622 H   0  0  0  0  0  0  0  0  0  0  0  0
    2.2393   -8.5084    5.4922 H   0  0  0  0  0  0  0  0  0  0  0  0
    4.3406   -6.6202    4.6789 H   0  0  0  0  0  0  0  0  0  0  0  0
    4.1322   -7.5432    6.1109 H   0  0  0  0  0  0  0  0  0  0  0  0
    5.8408   -8.6742    4.7788 H   0  0  0  0  0  0  0  0  0  0  0  0
    4.4476   -9.6619    4.9016 H   0  0  0  0  0  0  0  0  0  0  0  0
    4.9480   -9.9198    2.7257 H   0  0  0  0  0  0  0  0  0  0  0  0
    7.6868   -9.0466    2.6145 H   0  0  0  0  0  0  0  0  0  0  0  0
    7.2163   -9.2344    0.8792 H   0  0  0  0  0  0  0  0  0  0  0  0
    8.5767   -6.8917    1.8143 H   0  0  0  0  0  0  0  0  0  0  0  0
    7.3756   -6.8427    0.4798 H   0  0  0  0  0  0  0  0  0  0  0  0
    7.8026   -5.6956    3.8979 H   0  0  0  0  0  0  0  0  0  0  0  0
    7.6666   -7.4066    4.2091 H   0  0  0  0  0  0  0  0  0  0  0  0
    6.3902   -6.3161    4.7069 H   0  0  0  0  0  0  0  0  0  0  0  0
    5.5033   -4.8315    3.0746 H   0  0  0  0  0  0  0  0  0  0  0  0
    8.2172   -4.2315    1.7243 H   0  0  0  0  0  0  0  0  0  0  0  0
    8.3010   -2.8229   -0.6178 H   0  0  0  0  0  0  0  0  0  0  0  0
    4.4852   -4.2484   -0.4534 H   0  0  0  0  0  0  0  0  0  0  0  0
    3.5188   -5.9364    2.8981 H   0  0  0  0  0  0  0  0  0  0  0  0
    3.5015   -5.1696    1.3933 H   0  0  0  0  0  0  0  0  0  0  0  0
    3.1789   -7.2058    0.4858 H   0  0  0  0  0  0  0  0  0  0  0  0
    3.7260   -9.7060    0.4318 H   0  0  0  0  0  0  0  0  0  0  0  0
    2.0350   -9.4856    0.8130 H   0  0  0  0  0  0  0  0  0  0  0  0
    3.0155  -10.6339    1.6992 H   0  0  0  0  0  0  0  0  0  0  0  0
  1  2  1  0
  1 35  1  0
  1 36  1  0
  1 37  1  0
  2  7  1  0
  2  3  1  0
  2  4  1  0
  3 38  1  0
  3 39  1  0
  3 40  1  0
  4  5  1  0
  6  5  1  1
  5 41  1  0
  5 42  1  0
  6  9  1  0
  6 15  1  0
  6  7  1  0
  7  8  1  0
  7 43  1  6
  8  9  1  0
  8 44  1  0
  8 45  1  0
  9 10  1  1
  9 11  1  0
 10 46  1  0
 11 12  1  0
 11 13  1  0
 11 47  1  6
 12 48  1  0
 13 33  1  0
 13 14  1  1
 13 15  1  0
 14 49  1  0
 14 50  1  0
 14 51  1  0
 15 16  1  0
 15 52  1  1
 16 17  1  0
 16 53  1  0
 16 54  1  0
 17 18  1  0
 17 55  1  0
 17 56  1  0
 18 33  1  0
 18 19  1  0
 18 57  1  1
 19 22  1  0
 19 32  1  0
 19 20  1  6
 20 21  1  0
 20 58  1  0
 20 59  1  0
 21 22  1  0
 21 60  1  0
 21 61  1  0
 22 23  1  1
 22 24  1  0
 23 62  1  0
 23 63  1  0
 23 64  1  0
 24 25  1  0
 24 30  1  0
 24 65  1  1
 25 29  2  0
 25 26  1  0
 26 27  2  0
 26 66  1  0
 27 28  1  0
 27 67  1  0
 28 29  1  0
 29 68  1  0
 30 31  1  0
 30 69  1  0
 30 70  1  0
 31 32  1  0
 31 33  1  0
 31 71  1  6
 33 34  1  6
 34 72  1  0
 34 73  1  0
 34 74  1  0
M  END
>  <i_m_ct_stereo_status>  (22) 
1

>  <s_m_source_file>  (22) 
/var/tmp/pbs.5076255.sched01/tmp5vb4dkz1/0x5hafel7.sdf

>  <i_m_source_file_index>  (22) 
9

>  <i_lp_mmshare_version>  (22) 
48012

>  <i_f3d_flags>  (22) 
0

>  <s_epik_input>  (22) 
W0NIMl0xT0MoW0NIM10pKFtDSDNdKVtDQEBIXShbQ0BAXTEyMylbQ0gyXVtDQEBdMihbT0hdKVtDQEBIXShbT0hdKVtDQF00KFtDSDNdKVtDQEhdM1tDSDJdW0NIMl1bQ0BASF01W0NAQF02N1tDQEBdKFtDSDNdKShbQ0gyXVtDSDJdNilbQ0BIXShbQ0gyXVtDQEBIXShPNylbQ0BdNDVbQ0gzXSljOFtjSF1bY0hdb1tjSF04

>  <s_epik_cmdline>  (22) 
J2VwaWtfcHl0aG9uJywgJy1waHQnLCAnMi4wJywgJy1waCcsICc3LjAnLCAnLXRuJywgJzgnLCAnLW1hJywgJzIwMCcsICctaW1hZScsICc8aW5maWxlLm1hZT4nLCAnLW9tYWUnLCAnPG91dGZpbGUubWFlPic=

>  <r_lp_tautomer_probability>  (22) 
1

>  <r_epik_Ionization_Penalty>  (22) 
6.16091e-07

>  <r_epik_Ionization_Penalty_Charging>  (22) 
0

>  <r_epik_Ionization_Penalty_Neutral>  (22) 
6.16091e-07

>  <r_epik_State_Penalty>  (22) 
-0

>  <r_epik_Charging_Adjusted_Penalty>  (22) 
0

>  <i_epik_Tot_Q>  (22) 
0

>  <i_epik_Tot_abs_Q>  (22) 
0

>  <s_lp_Force_Field>  (22) 
OPLS3e

>  <r_lp_Energy>  (22) 
121.343

>  <b_lp_Chiralities_Consistent>  (22) 
1

>  <s_lp_Variant>  (22) 
6:0-1

>  <s_i_glide_gridfile>  (22) 
pfpi4k_grid

>  <i_i_glide_lignum>  (22) 
9

>  <i_i_glide_rotatable_bonds>  (22) 
3

>  <r_i_docking_score>  (22) 
-2.76655

>  <r_i_glide_ligand_efficiency>  (22) 
-0.081369

>  <r_i_glide_ligand_efficiency_sa>  (22) 
-0.263604

>  <r_i_glide_ligand_efficiency_ln>  (22) 
-0.611208

>  <r_i_glide_gscore>  (22) 
-2.76655

>  <r_i_glide_lipo>  (22) 
-0.747637

>  <r_i_glide_hbond>  (22) 
0

>  <r_i_glide_metal>  (22) 
-0

>  <r_i_glide_rewards>  (22) 
-0.213921

>  <r_i_glide_evdw>  (22) 
-23.2623

>  <r_i_glide_ecoul>  (22) 
-4.8921

>  <r_i_glide_erotb>  (22) 
0.0919422

>  <r_i_glide_esite>  (22) 
0

>  <r_i_glide_emodel>  (22) 
-32.6026

>  <r_i_glide_energy>  (22) 
-28.1544

>  <r_i_glide_einternal>  (22) 
1.96108

>  <r_i_glide_intrahb_reward>  (22) 
-0

>  <i_i_glide_confnum>  (22) 
1

>  <i_i_glide_posenum>  (22) 
1

>  <r_i_glide_eff_state_penalty>  (22) 
0

>  <ligand_id>  (22) 
6

>  <original_smiles>  (22) 
CC1(C)OCC23C1CC2(O)C(O)C1(C)C3CCC2C34CCC3(C)C(c3ccoc3)CC(O4)C21C

>  <smiles>  (22) 
[H]OC1([H])C2(O[H])C([H])([H])C3([H])C(C([H])([H])[H])(C([H])([H])[H])OC([H])([H])C32C2([H])C([H])([H])C([H])([H])C3([H])C45OC([H])(C([H])([H])C([H])(c6c([H])oc([H])c6[H])C4(C([H])([H])[H])C([H])([H])C5([H])[H])C3(C([H])([H])[H])C12C([H])([H])[H]

$$$$
6:0:1
     RDKit          3D

 74 81  0  0  1  0  0  0  0  0999 V2000
    2.6283   -2.0080    5.6164 C   0  0  0  0  0  0  0  0  0  0  0  0
    3.2621   -0.6094    5.6654 C   0  0  0  0  0  0  0  0  0  0  0  0
    3.9921   -0.4135    7.0167 C   0  0  0  0  0  0  0  0  0  0  0  0
    4.2370   -0.4832    4.6349 O   0  0  0  0  0  0  0  0  0  0  0  0
    4.4359    0.8897    4.3017 C   0  0  0  0  0  0  0  0  0  0  0  0
    3.0580    1.5422    4.4540 C   0  0  2  0  0  0  0  0  0  0  0  0
    2.3041    0.5402    5.3284 C   0  0  1  0  0  0  0  0  0  0  0  0
    1.2240    0.4090    4.2413 C   0  0  0  0  0  0  0  0  0  0  0  0
    2.0213    1.3665    3.3425 C   0  0  2  0  0  0  0  0  0  0  0  0
    2.5002    0.7743    2.1612 O   0  0  0  0  0  0  0  0  0  0  0  0
    1.4612    2.7456    2.9560 C   0  0  1  0  0  0  0  0  0  0  0  0
    0.0604    2.7325    2.8826 O   0  0  0  0  0  0  0  0  0  0  0  0
    2.1158    3.8523    3.8737 C   0  0  2  0  0  0  0  0  0  0  0  0
    3.0042    4.7266    2.9271 C   0  0  0  0  0  0  0  0  0  0  0  0
    3.1639    3.0666    4.7522 C   0  0  1  0  0  0  0  0  0  0  0  0
    3.2463    3.4822    6.2206 C   0  0  0  0  0  0  0  0  0  0  0  0
    3.0999    5.0018    6.3673 C   0  0  0  0  0  0  0  0  0  0  0  0
    1.7425    5.5579    5.9078 C   0  0  2  0  0  0  0  0  0  0  0  0
    0.6135    5.6094    6.9728 C   0  0  2  0  0  0  0  0  0  0  0  0
    0.3929    6.7777    7.9274 C   0  0  0  0  0  0  0  0  0  0  0  0
   -0.4255    5.7959    8.7724 C   0  0  0  0  0  0  0  0  0  0  0  0
    0.4260    4.6431    8.1751 C   0  0  2  0  0  0  0  0  0  0  0  0
    1.5881    4.3321    9.1458 C   0  0  0  0  0  0  0  0  0  0  0  0
   -0.2492    3.3034    7.7621 C   0  0  1  0  0  0  0  0  0  0  0  0
   -1.6398    3.1422    8.3486 C   0  0  0  0  0  0  0  0  0  0  0  0
   -1.9715    3.0902    9.7418 C   0  0  0  0  0  0  0  0  0  0  0  0
   -3.3188    2.9885    9.8227 C   0  0  0  0  0  0  0  0  0  0  0  0
   -3.8736    2.9565    8.5847 O   0  0  0  0  0  0  0  0  0  0  0  0
   -2.8418    3.0335    7.7099 C   0  0  0  0  0  0  0  0  0  0  0  0
   -0.2065    3.0762    6.2116 C   0  0  0  0  0  0  0  0  0  0  0  0
   -0.2179    4.3389    5.3186 C   0  0  1  0  0  0  0  0  0  0  0  0
   -0.5403    5.4151    6.1770 O   0  0  0  0  0  0  0  0  0  0  0  0
    1.1098    4.8542    4.6706 C   0  0  2  0  0  0  0  0  0  0  0  0
    0.6147    5.9725    3.6950 C   0  0  0  0  0  0  0  0  0  0  0  0
    1.7687   -2.0799    6.2829 H   0  0  0  0  0  0  0  0  0  0  0  0
    3.3410   -2.7740    5.9166 H   0  0  0  0  0  0  0  0  0  0  0  0
    2.3005   -2.2631    4.6119 H   0  0  0  0  0  0  0  0  0  0  0  0
    3.3184   -0.5359    7.8657 H   0  0  0  0  0  0  0  0  0  0  0  0
    4.4541    0.5694    7.1040 H   0  0  0  0  0  0  0  0  0  0  0  0
    4.7879   -1.1520    7.1318 H   0  0  0  0  0  0  0  0  0  0  0  0
    5.1630    1.3218    4.9881 H   0  0  0  0  0  0  0  0  0  0  0  0
    4.8261    0.9420    3.2884 H   0  0  0  0  0  0  0  0  0  0  0  0
    1.8714    0.9522    6.2228 H   0  0  0  0  0  0  0  0  0  0  0  0
    1.1265   -0.5819    3.8151 H   0  0  0  0  0  0  0  0  0  0  0  0
    0.2567    0.7890    4.5581 H   0  0  0  0  0  0  0  0  0  0  0  0
    1.7625    0.6893    1.5746 H   0  0  0  0  0  0  0  0  0  0  0  0
    1.7414    2.9563    1.9165 H   0  0  0  0  0  0  0  0  0  0  0  0
   -0.1642    3.3356    2.1699 H   0  0  0  0  0  0  0  0  0  0  0  0
    3.5161    5.5204    3.4741 H   0  0  0  0  0  0  0  0  0  0  0  0
    2.4505    5.1868    2.1075 H   0  0  0  0  0  0  0  0  0  0  0  0
    3.7779    4.1429    2.4294 H   0  0  0  0  0  0  0  0  0  0  0  0
    4.1621    3.3533    4.3983 H   0  0  0  0  0  0  0  0  0  0  0  0
    2.5326    2.9416    6.8356 H   0  0  0  0  0  0  0  0  0  0  0  0
    4.2170    3.1929    6.6088 H   0  0  0  0  0  0  0  0  0  0  0  0
    3.2978    5.3078    7.3889 H   0  0  0  0  0  0  0  0  0  0  0  0
    3.8944    5.4872    5.7882 H   0  0  0  0  0  0  0  0  0  0  0  0
    1.9394    6.5908    5.6478 H   0  0  0  0  0  0  0  0  0  0  0  0
    1.3092    7.1068    8.4137 H   0  0  0  0  0  0  0  0  0  0  0  0
   -0.1878    7.6085    7.5221 H   0  0  0  0  0  0  0  0  0  0  0  0
   -0.3092    5.9337    9.8468 H   0  0  0  0  0  0  0  0  0  0  0  0
   -1.4758    5.7846    8.4818 H   0  0  0  0  0  0  0  0  0  0  0  0
    1.2178    3.9507   10.1012 H   0  0  0  0  0  0  0  0  0  0  0  0
    2.1590    5.2292    9.3837 H   0  0  0  0  0  0  0  0  0  0  0  0
    2.3000    3.5960    8.7816 H   0  0  0  0  0  0  0  0  0  0  0  0
    0.3007    2.4695    8.1914 H   0  0  0  0  0  0  0  0  0  0  0  0
   -1.3034    3.1538   10.5906 H   0  0  0  0  0  0  0  0  0  0  0  0
   -4.0190    2.9440   10.6524 H   0  0  0  0  0  0  0  0  0  0  0  0
   -3.1433    3.0240    6.6685 H   0  0  0  0  0  0  0  0  0  0  0  0
    0.6940    2.5530    5.9469 H   0  0  0  0  0  0  0  0  0  0  0  0
   -0.9846    2.3913    5.8989 H   0  0  0  0  0  0  0  0  0  0  0  0
   -1.0254    4.2476    4.5865 H   0  0  0  0  0  0  0  0  0  0  0  0
   -0.1662    6.6003    4.1197 H   0  0  0  0  0  0  0  0  0  0  0  0
    0.2020    5.5547    2.7801 H   0  0  0  0  0  0  0  0  0  0  0  0
    1.4011    6.6683    3.4084 H   0  0  0  0  0  0  0  0  0  0  0  0
  1  2  1  0
  1 35  1  0
  1 36  1  0
  1 37  1  0
  2  7  1  0
  2  3  1  0
  2  4  1  0
  3 38  1  0
  3 39  1  0
  3 40  1  0
  4  5  1  0
  6  5  1  6
  5 41  1  0
  5 42  1  0
  6  9  1  0
  6 15  1  0
  6  7  1  0
  7  8  1  0
  7 43  1  1
  8  9  1  0
  8 44  1  0
  8 45  1  0
  9 10  1  6
  9 11  1  0
 10 46  1  0
 11 12  1  0
 11 13  1  0
 11 47  1  6
 12 48  1  0
 13 33  1  0
 13 14  1  6
 13 15  1  0
 14 49  1  0
 14 50  1  0
 14 51  1  0
 15 16  1  0
 15 52  1  6
 16 17  1  0
 16 53  1  0
 16 54  1  0
 17 18  1  0
 17 55  1  0
 17 56  1  0
 18 33  1  0
 18 19  1  0
 18 57  1  6
 19 22  1  0
 19 32  1  0
 19 20  1  1
 20 21  1  0
 20 58  1  0
 20 59  1  0
 21 22  1  0
 21 60  1  0
 21 61  1  0
 22 23  1  1
 22 24  1  0
 23 62  1  0
 23 63  1  0
 23 64  1  0
 24 25  1  0
 24 30  1  0
 24 65  1  1
 25 29  2  0
 25 26  1  0
 26 27  2  0
 26 66  1  0
 27 28  1  0
 27 67  1  0
 28 29  1  0
 29 68  1  0
 30 31  1  0
 30 69  1  0
 30 70  1  0
 31 32  1  0
 31 33  1  0
 31 71  1  6
 33 34  1  6
 34 72  1  0
 34 73  1  0
 34 74  1  0
M  END
>  <i_m_ct_stereo_status>  (23) 
1

>  <s_m_source_file>  (23) 
/var/tmp/pbs.5076255.sched01/tmp5vb4dkz1/0x5hafel7.sdf

>  <i_m_source_file_index>  (23) 
9

>  <i_lp_mmshare_version>  (23) 
48012

>  <i_f3d_flags>  (23) 
0

>  <s_epik_input>  (23) 
W0NIMl0xT0MoW0NIM10pKFtDSDNdKVtDQEBIXShbQ0BAXTEyMylbQ0gyXVtDQEBdMihbT0hdKVtDQEBIXShbT0hdKVtDQF00KFtDSDNdKVtDQEhdM1tDSDJdW0NIMl1bQ0BASF01W0NAQF02N1tDQEBdKFtDSDNdKShbQ0gyXVtDSDJdNilbQ0BIXShbQ0gyXVtDQEBIXShPNylbQ0BdNDVbQ0gzXSljOFtjSF1bY0hdb1tjSF04

>  <s_epik_cmdline>  (23) 
J2VwaWtfcHl0aG9uJywgJy1waHQnLCAnMi4wJywgJy1waCcsICc3LjAnLCAnLXRuJywgJzgnLCAnLW1hJywgJzIwMCcsICctaW1hZScsICc8aW5maWxlLm1hZT4nLCAnLW9tYWUnLCAnPG91dGZpbGUubWFlPic=

>  <r_lp_tautomer_probability>  (23) 
1

>  <r_epik_Ionization_Penalty>  (23) 
6.16091e-07

>  <r_epik_Ionization_Penalty_Charging>  (23) 
0

>  <r_epik_Ionization_Penalty_Neutral>  (23) 
6.16091e-07

>  <r_epik_State_Penalty>  (23) 
-0

>  <r_epik_Charging_Adjusted_Penalty>  (23) 
0

>  <i_epik_Tot_Q>  (23) 
0

>  <i_epik_Tot_abs_Q>  (23) 
0

>  <s_lp_Force_Field>  (23) 
OPLS3e

>  <r_lp_Energy>  (23) 
121.343

>  <b_lp_Chiralities_Consistent>  (23) 
1

>  <s_lp_Variant>  (23) 
6:0-1

>  <s_i_glide_gridfile>  (23) 
pfpi4k_grid

>  <i_i_glide_lignum>  (23) 
9

>  <i_i_glide_rotatable_bonds>  (23) 
3

>  <r_i_docking_score>  (23) 
-2.40441

>  <r_i_glide_ligand_efficiency>  (23) 
-0.0707181

>  <r_i_glide_ligand_efficiency_sa>  (23) 
-0.229099

>  <r_i_glide_ligand_efficiency_ln>  (23) 
-0.531203

>  <r_i_glide_gscore>  (23) 
-2.40441

>  <r_i_glide_lipo>  (23) 
-0.288829

>  <r_i_glide_hbond>  (23) 
0

>  <r_i_glide_metal>  (23) 
-0

>  <r_i_glide_rewards>  (23) 
-0.213921

>  <r_i_glide_evdw>  (23) 
-21.3752

>  <r_i_glide_ecoul>  (23) 
-6.16564

>  <r_i_glide_erotb>  (23) 
0.0919422

>  <r_i_glide_esite>  (23) 
0

>  <r_i_glide_emodel>  (23) 
-31.0714

>  <r_i_glide_energy>  (23) 
-27.5409

>  <r_i_glide_einternal>  (23) 
1.91379

>  <r_i_glide_intrahb_reward>  (23) 
-0

>  <i_i_glide_confnum>  (23) 
2

>  <i_i_glide_posenum>  (23) 
37

>  <r_i_glide_eff_state_penalty>  (23) 
0

>  <ligand_id>  (23) 
6

>  <original_smiles>  (23) 
CC1(C)OCC23C1CC2(O)C(O)C1(C)C3CCC2C34CCC3(C)C(c3ccoc3)CC(O4)C21C

>  <smiles>  (23) 
[H]OC1([H])C2(O[H])C([H])([H])C3([H])C(C([H])([H])[H])(C([H])([H])[H])OC([H])([H])C32C2([H])C([H])([H])C([H])([H])C3([H])C45OC([H])(C([H])([H])C([H])(c6c([H])oc([H])c6[H])C4(C([H])([H])[H])C([H])([H])C5([H])[H])C3(C([H])([H])[H])C12C([H])([H])[H]

$$$$
6:0:2
     RDKit          3D

 74 81  0  0  1  0  0  0  0  0999 V2000
    2.0468   -2.3023    5.4659 C   0  0  0  0  0  0  0  0  0  0  0  0
    2.7827   -0.9529    5.4454 C   0  0  0  0  0  0  0  0  0  0  0  0
    3.6286   -0.8015    6.7348 C   0  0  0  0  0  0  0  0  0  0  0  0
    3.6804   -0.9038    4.3380 O   0  0  0  0  0  0  0  0  0  0  0  0
    3.9540    0.4504    3.9717 C   0  0  0  0  0  0  0  0  0  0  0  0
    2.6415    1.1970    4.2324 C   0  0  2  0  0  0  0  0  0  0  0  0
    1.8888    0.2598    5.1723 C   0  0  1  0  0  0  0  0  0  0  0  0
    0.7201    0.1996    4.1761 C   0  0  0  0  0  0  0  0  0  0  0  0
    1.5123    1.0881    3.2066 C   0  0  2  0  0  0  0  0  0  0  0  0
    1.8600    0.4581    2.0016 O   0  0  0  0  0  0  0  0  0  0  0  0
    1.0263    2.4966    2.8485 C   0  0  1  0  0  0  0  0  0  0  0  0
   -0.3790    2.5843    2.8779 O   0  0  0  0  0  0  0  0  0  0  0  0
    1.8268    3.5626    3.6951 C   0  0  2  0  0  0  0  0  0  0  0  0
    2.7057    4.3628    2.6752 C   0  0  0  0  0  0  0  0  0  0  0  0
    2.8804    2.7115    4.5009 C   0  0  1  0  0  0  0  0  0  0  0  0
    3.1097    3.1330    5.9529 C   0  0  0  0  0  0  0  0  0  0  0  0
    3.0868    4.6602    6.0876 C   0  0  0  0  0  0  0  0  0  0  0  0
    1.7413    5.3082    5.7276 C   0  0  2  0  0  0  0  0  0  0  0  0
    0.7062    5.4513    6.8775 C   0  0  2  0  0  0  0  0  0  0  0  0
    0.6435    6.6390    7.8317 C   0  0  0  0  0  0  0  0  0  0  0  0
   -0.1740    5.7244    8.7522 C   0  0  0  0  0  0  0  0  0  0  0  0
    0.5485    4.5115    8.1078 C   0  0  2  0  0  0  0  0  0  0  0  0
    1.7560    4.1258    8.9859 C   0  0  0  0  0  0  0  0  0  0  0  0
   -0.2458    3.2150    7.7735 C   0  0  1  0  0  0  0  0  0  0  0  0
   -1.5962    3.1595    8.4646 C   0  0  0  0  0  0  0  0  0  0  0  0
   -2.8717    3.4717    7.9026 C   0  0  0  0  0  0  0  0  0  0  0  0
   -3.7859    3.3384    8.8978 C   0  0  0  0  0  0  0  0  0  0  0  0
   -3.1835    2.9415   10.0457 O   0  0  0  0  0  0  0  0  0  0  0  0
   -1.8635    2.8377    9.7621 C   0  0  0  0  0  0  0  0  0  0  0  0
   -0.3545    2.9794    6.2299 C   0  0  0  0  0  0  0  0  0  0  0  0
   -0.3430    4.2327    5.3150 C   0  0  1  0  0  0  0  0  0  0  0  0
   -0.5173    5.3372    6.1817 O   0  0  0  0  0  0  0  0  0  0  0  0
    0.9632    4.6441    4.5546 C   0  0  2  0  0  0  0  0  0  0  0  0
    0.4803    5.7880    3.6073 C   0  0  0  0  0  0  0  0  0  0  0  0
    1.2404   -2.3055    6.1980 H   0  0  0  0  0  0  0  0  0  0  0  0
    2.7236   -3.1156    5.7202 H   0  0  0  0  0  0  0  0  0  0  0  0
    1.6241   -2.5400    4.4940 H   0  0  0  0  0  0  0  0  0  0  0  0
    3.0161   -0.8677    7.6350 H   0  0  0  0  0  0  0  0  0  0  0  0
    4.1664    0.1454    6.7734 H   0  0  0  0  0  0  0  0  0  0  0  0
    4.3754   -1.5960    6.7983 H   0  0  0  0  0  0  0  0  0  0  0  0
    4.7617    0.8281    4.5990 H   0  0  0  0  0  0  0  0  0  0  0  0
    4.2759    0.4989    2.9311 H   0  0  0  0  0  0  0  0  0  0  0  0
    1.5586    0.7092    6.0896 H   0  0  0  0  0  0  0  0  0  0  0  0
    0.5168   -0.7839    3.7672 H   0  0  0  0  0  0  0  0  0  0  0  0
   -0.1907    0.6517    4.5591 H   0  0  0  0  0  0  0  0  0  0  0  0
    1.1002    0.4767    1.4300 H   0  0  0  0  0  0  0  0  0  0  0  0
    1.2525    2.6735    1.7884 H   0  0  0  0  0  0  0  0  0  0  0  0
   -0.6032    3.2332    2.2260 H   0  0  0  0  0  0  0  0  0  0  0  0
    3.3226    5.1179    3.1662 H   0  0  0  0  0  0  0  0  0  0  0  0
    2.1395    4.8659    1.8912 H   0  0  0  0  0  0  0  0  0  0  0  0
    3.3918    3.7154    2.1283 H   0  0  0  0  0  0  0  0  0  0  0  0
    3.8680    2.9220    4.0650 H   0  0  0  0  0  0  0  0  0  0  0  0
    2.4072    2.6501    6.6232 H   0  0  0  0  0  0  0  0  0  0  0  0
    4.0848    2.7738    6.2641 H   0  0  0  0  0  0  0  0  0  0  0  0
    3.3861    4.9575    7.0856 H   0  0  0  0  0  0  0  0  0  0  0  0
    3.8638    5.0796    5.4404 H   0  0  0  0  0  0  0  0  0  0  0  0
    1.9901    6.3233    5.4400 H   0  0  0  0  0  0  0  0  0  0  0  0
    1.6175    6.9051    8.2370 H   0  0  0  0  0  0  0  0  0  0  0  0
    0.0960    7.5063    7.4584 H   0  0  0  0  0  0  0  0  0  0  0  0
    0.0350    5.8653    9.8122 H   0  0  0  0  0  0  0  0  0  0  0  0
   -1.2404    5.7904    8.5431 H   0  0  0  0  0  0  0  0  0  0  0  0
    1.4345    3.7784    9.9708 H   0  0  0  0  0  0  0  0  0  0  0  0
    2.4071    4.9794    9.1657 H   0  0  0  0  0  0  0  0  0  0  0  0
    2.3796    3.3365    8.5768 H   0  0  0  0  0  0  0  0  0  0  0  0
    0.2849    2.3461    8.1659 H   0  0  0  0  0  0  0  0  0  0  0  0
   -3.0809    3.7835    6.8909 H   0  0  0  0  0  0  0  0  0  0  0  0
   -4.8575    3.4778    8.9673 H   0  0  0  0  0  0  0  0  0  0  0  0
   -1.2604    2.5432   10.6154 H   0  0  0  0  0  0  0  0  0  0  0  0
    0.4744    2.3856    5.8913 H   0  0  0  0  0  0  0  0  0  0  0  0
   -1.2168    2.3609    5.9993 H   0  0  0  0  0  0  0  0  0  0  0  0
   -1.2098    4.1926    4.6463 H   0  0  0  0  0  0  0  0  0  0  0  0
   -0.2046    6.4833    4.0862 H   0  0  0  0  0  0  0  0  0  0  0  0
   -0.0445    5.3979    2.7413 H   0  0  0  0  0  0  0  0  0  0  0  0
    1.2874    6.4191    3.2451 H   0  0  0  0  0  0  0  0  0  0  0  0
  1  2  1  0
  1 35  1  0
  1 36  1  0
  1 37  1  0
  2  7  1  0
  2  3  1  0
  2  4  1  0
  3 38  1  0
  3 39  1  0
  3 40  1  0
  4  5  1  0
  6  5  1  6
  5 41  1  0
  5 42  1  0
  6  9  1  0
  6 15  1  0
  6  7  1  0
  7  8  1  0
  7 43  1  1
  8  9  1  0
  8 44  1  0
  8 45  1  0
  9 10  1  6
  9 11  1  0
 10 46  1  0
 11 12  1  0
 11 13  1  0
 11 47  1  6
 12 48  1  0
 13 33  1  0
 13 14  1  6
 13 15  1  0
 14 49  1  0
 14 50  1  0
 14 51  1  0
 15 16  1  0
 15 52  1  6
 16 17  1  0
 16 53  1  0
 16 54  1  0
 17 18  1  0
 17 55  1  0
 17 56  1  0
 18 33  1  0
 18 19  1  0
 18 57  1  6
 19 22  1  0
 19 32  1  0
 19 20  1  1
 20 21  1  0
 20 58  1  0
 20 59  1  0
 21 22  1  0
 21 60  1  0
 21 61  1  0
 22 23  1  1
 22 24  1  0
 23 62  1  0
 23 63  1  0
 23 64  1  0
 24 25  1  0
 24 30  1  0
 24 65  1  1
 25 29  2  0
 25 26  1  0
 26 27  2  0
 26 66  1  0
 27 28  1  0
 27 67  1  0
 28 29  1  0
 29 68  1  0
 30 31  1  0
 30 69  1  0
 30 70  1  0
 31 32  1  0
 31 33  1  0
 31 71  1  6
 33 34  1  6
 34 72  1  0
 34 73  1  0
 34 74  1  0
M  END
>  <i_m_ct_stereo_status>  (24) 
1

>  <s_m_source_file>  (24) 
/var/tmp/pbs.5076255.sched01/tmp5vb4dkz1/0x5hafel7.sdf

>  <i_m_source_file_index>  (24) 
9

>  <i_lp_mmshare_version>  (24) 
48012

>  <i_f3d_flags>  (24) 
0

>  <s_epik_input>  (24) 
W0NIMl0xT0MoW0NIM10pKFtDSDNdKVtDQEBIXShbQ0BAXTEyMylbQ0gyXVtDQEBdMihbT0hdKVtDQEBIXShbT0hdKVtDQF00KFtDSDNdKVtDQEhdM1tDSDJdW0NIMl1bQ0BASF01W0NAQF02N1tDQEBdKFtDSDNdKShbQ0gyXVtDSDJdNilbQ0BIXShbQ0gyXVtDQEBIXShPNylbQ0BdNDVbQ0gzXSljOFtjSF1bY0hdb1tjSF04

>  <s_epik_cmdline>  (24) 
J2VwaWtfcHl0aG9uJywgJy1waHQnLCAnMi4wJywgJy1waCcsICc3LjAnLCAnLXRuJywgJzgnLCAnLW1hJywgJzIwMCcsICctaW1hZScsICc8aW5maWxlLm1hZT4nLCAnLW9tYWUnLCAnPG91dGZpbGUubWFlPic=

>  <r_lp_tautomer_probability>  (24) 
1

>  <r_epik_Ionization_Penalty>  (24) 
6.16091e-07

>  <r_epik_Ionization_Penalty_Charging>  (24) 
0

>  <r_epik_Ionization_Penalty_Neutral>  (24) 
6.16091e-07

>  <r_epik_State_Penalty>  (24) 
-0

>  <r_epik_Charging_Adjusted_Penalty>  (24) 
0

>  <i_epik_Tot_Q>  (24) 
0

>  <i_epik_Tot_abs_Q>  (24) 
0

>  <s_lp_Force_Field>  (24) 
OPLS3e

>  <r_lp_Energy>  (24) 
121.343

>  <b_lp_Chiralities_Consistent>  (24) 
1

>  <s_lp_Variant>  (24) 
6:0-1

>  <s_i_glide_gridfile>  (24) 
pfpi4k_grid

>  <i_i_glide_lignum>  (24) 
9

>  <i_i_glide_rotatable_bonds>  (24) 
3

>  <r_i_docking_score>  (24) 
-2.10934

>  <r_i_glide_ligand_efficiency>  (24) 
-0.0620395

>  <r_i_glide_ligand_efficiency_sa>  (24) 
-0.200984

>  <r_i_glide_ligand_efficiency_ln>  (24) 
-0.466013

>  <r_i_glide_gscore>  (24) 
-2.10934

>  <r_i_glide_lipo>  (24) 
-0.17943

>  <r_i_glide_hbond>  (24) 
0

>  <r_i_glide_metal>  (24) 
-0

>  <r_i_glide_rewards>  (24) 
-0.213921

>  <r_i_glide_evdw>  (24) 
-22.1992

>  <r_i_glide_ecoul>  (24) 
-4.65316

>  <r_i_glide_erotb>  (24) 
0.0919422

>  <r_i_glide_esite>  (24) 
0

>  <r_i_glide_emodel>  (24) 
-29.9317

>  <r_i_glide_energy>  (24) 
-26.8524

>  <r_i_glide_einternal>  (24) 
1.60343

>  <r_i_glide_intrahb_reward>  (24) 
-0

>  <i_i_glide_confnum>  (24) 
2

>  <i_i_glide_posenum>  (24) 
2

>  <r_i_glide_eff_state_penalty>  (24) 
0

>  <ligand_id>  (24) 
6

>  <original_smiles>  (24) 
CC1(C)OCC23C1CC2(O)C(O)C1(C)C3CCC2C34CCC3(C)C(c3ccoc3)CC(O4)C21C

>  <smiles>  (24) 
[H]OC1([H])C2(O[H])C([H])([H])C3([H])C(C([H])([H])[H])(C([H])([H])[H])OC([H])([H])C32C2([H])C([H])([H])C([H])([H])C3([H])C45OC([H])(C([H])([H])C([H])(c6c([H])oc([H])c6[H])C4(C([H])([H])[H])C([H])([H])C5([H])[H])C3(C([H])([H])[H])C12C([H])([H])[H]

$$$$
7:0:0
     RDKit          3D

 28 30  0  0  1  0  0  0  0  0999 V2000
    5.7840   -2.8151    0.4136 C   0  0  0  0  0  0  0  0  0  0  0  0
    4.4796   -3.5957    0.3346 C   0  0  0  0  0  0  0  0  0  0  0  0
    4.2617   -4.6439    1.2816 C   0  0  0  0  0  0  0  0  0  0  0  0
    3.0642   -5.3700    1.1334 C   0  0  0  0  0  0  0  0  0  0  0  0
    2.6059   -6.4380    1.9366 C   0  0  0  0  0  0  0  0  0  0  0  0
    1.3643   -6.6939    1.2666 C   0  0  0  0  0  0  0  0  0  0  0  0
    1.1282   -5.8653    0.2277 N   0  0  0  0  0  0  0  0  0  0  0  0
    2.1881   -5.0183    0.1517 N   0  0  0  0  0  0  0  0  0  0  0  0
    2.3035   -4.0048   -0.6946 N   0  0  0  0  0  0  0  0  0  0  0  0
    3.4725   -3.3125   -0.6462 C   0  0  0  0  0  0  0  0  0  0  0  0
    3.5903   -2.2727   -1.7182 C   0  0  0  0  0  0  0  0  0  0  0  0
    4.3511   -1.1823   -1.6092 N   0  0  0  0  0  0  0  0  0  0  0  0
    4.2138   -0.4017   -2.7281 C   0  0  0  0  0  0  0  0  0  0  0  0
    3.3190   -1.0397   -3.5489 C   0  0  0  0  0  0  0  0  0  0  0  0
    2.9523   -2.1917   -2.9034 N   0  0  0  0  0  0  0  0  0  0  0  0
    1.9928   -3.1475   -3.4462 C   0  0  0  0  0  0  0  0  0  0  0  0
    6.5210   -3.2908    1.0606 H   0  0  0  0  0  0  0  0  0  0  0  0
    5.6053   -1.8180    0.8148 H   0  0  0  0  0  0  0  0  0  0  0  0
    6.2395   -2.7237   -0.5716 H   0  0  0  0  0  0  0  0  0  0  0  0
    4.9388   -4.9121    2.0814 H   0  0  0  0  0  0  0  0  0  0  0  0
    3.1619   -6.8346    2.7875 H   0  0  0  0  0  0  0  0  0  0  0  0
    0.5899   -7.4340    1.4519 H   0  0  0  0  0  0  0  0  0  0  0  0
    4.6953    0.5515   -2.8354 H   0  0  0  0  0  0  0  0  0  0  0  0
    2.8999   -0.7270   -4.4965 H   0  0  0  0  0  0  0  0  0  0  0  0
    1.8590   -2.9548   -4.5050 H   0  0  0  0  0  0  0  0  0  0  0  0
    1.0444   -3.0519   -2.9155 H   0  0  0  0  0  0  0  0  0  0  0  0
    2.3765   -4.1580   -3.3540 H   0  0  0  0  0  0  0  0  0  0  0  0
    4.9027   -0.9512   -0.7929 H   0  0  0  0  0  0  0  0  0  0  0  0
  1  2  1  0
  1 17  1  0
  1 18  1  0
  1 19  1  0
  2 10  1  0
  2  3  2  0
  3  4  1  0
  3 20  1  0
  4  8  1  0
  4  5  2  0
  5  6  1  0
  5 21  1  0
  6  7  2  0
  6 22  1  0
  7  8  1  0
  8  9  1  0
  9 10  2  0
 10 11  1  0
 11 15  1  0
 11 12  2  0
 12 13  1  0
 12 28  1  0
 13 14  2  0
 13 23  1  0
 14 15  1  0
 14 24  1  0
 15 16  1  0
 16 25  1  0
 16 26  1  0
 16 27  1  0
M  CHG  1  12   1
M  END
>  <i_m_ct_stereo_status>  (25) 
1

>  <s_m_source_file>  (25) 
/var/tmp/pbs.5076255.sched01/tmp5vb4dkz1/0x5hafel7.sdf

>  <i_m_source_file_index>  (25) 
10

>  <i_lp_mmshare_version>  (25) 
48012

>  <i_f3d_flags>  (25) 
0

>  <s_epik_input>  (25) 
W2NIXTFbY0hdbm4oYzEyKW5jKGMoW0NIM10pW2NIXTIpLWMzbltjSF1bY0hdbjNbQ0gzXQ==

>  <s_epik_cmdline>  (25) 
J2VwaWtfcHl0aG9uJywgJy1waHQnLCAnMi4wJywgJy1waCcsICc3LjAnLCAnLXRuJywgJzgnLCAnLW1hJywgJzIwMCcsICctaW1hZScsICc8aW5maWxlLm1hZT4nLCAnLW9tYWUnLCAnPG91dGZpbGUubWFlPic=

>  <r_lp_tautomer_probability>  (25) 
1

>  <r_epik_Ionization_Penalty>  (25) 
0.349121

>  <r_epik_Ionization_Penalty_Charging>  (25) 
0

>  <r_epik_Ionization_Penalty_Neutral>  (25) 
0.349121

>  <r_epik_State_Penalty>  (25) 
0.345246

>  <r_epik_Charging_Adjusted_Penalty>  (25) 
0.345246

>  <i_epik_Tot_Q>  (25) 
1

>  <i_epik_Tot_abs_Q>  (25) 
1

>  <s_lp_Force_Field>  (25) 
OPLS3e

>  <r_lp_Energy>  (25) 
22.1629

>  <b_lp_Chiralities_Consistent>  (25) 
1

>  <s_lp_Variant>  (25) 
7:0-1

>  <s_i_glide_gridfile>  (25) 
pfpi4k_grid

>  <i_i_glide_lignum>  (25) 
10

>  <i_i_glide_rotatable_bonds>  (25) 
1

>  <r_i_docking_score>  (25) 
-4.79717

>  <r_i_glide_ligand_efficiency>  (25) 
-0.299823

>  <r_i_glide_ligand_efficiency_sa>  (25) 
-0.755508

>  <r_i_glide_ligand_efficiency_ln>  (25) 
-1.27159

>  <r_i_glide_gscore>  (25) 
-4.79717

>  <r_i_glide_lipo>  (25) 
-0.763418

>  <r_i_glide_hbond>  (25) 
-0.251786

>  <r_i_glide_metal>  (25) 
-0

>  <r_i_glide_rewards>  (25) 
-1.94832

>  <r_i_glide_evdw>  (25) 
-17.8266

>  <r_i_glide_ecoul>  (25) 
-7.53675

>  <r_i_glide_erotb>  (25) 
0.3639

>  <r_i_glide_esite>  (25) 
-0.175709

>  <r_i_glide_emodel>  (25) 
-35.1321

>  <r_i_glide_energy>  (25) 
-25.3633

>  <r_i_glide_einternal>  (25) 
0.266597

>  <r_i_glide_intrahb_reward>  (25) 
-0

>  <i_i_glide_confnum>  (25) 
3

>  <i_i_glide_posenum>  (25) 
28

>  <r_i_glide_eff_state_penalty>  (25) 
0

>  <ligand_id>  (25) 
7

>  <original_smiles>  (25) 
Cc1cc2ccnn2nc1-c1nccn1C

>  <smiles>  (25) 
[H]c1nn2nc(-c3n(C([H])([H])[H])c([H])c([H])[n+]3[H])c(C([H])([H])[H])c([H])c2c1[H]

$$$$
7:0:1
     RDKit          3D

 28 30  0  0  1  0  0  0  0  0999 V2000
    6.1150   -4.0894    0.2626 C   0  0  0  0  0  0  0  0  0  0  0  0
    4.6873   -4.6275    0.3394 C   0  0  0  0  0  0  0  0  0  0  0  0
    4.4400   -5.7975    1.1224 C   0  0  0  0  0  0  0  0  0  0  0  0
    3.1094   -6.2639    1.1201 C   0  0  0  0  0  0  0  0  0  0  0  0
    2.5869   -7.4001    1.7872 C   0  0  0  0  0  0  0  0  0  0  0  0
    1.2285   -7.3050    1.3543 C   0  0  0  0  0  0  0  0  0  0  0  0
    0.9849   -6.2601    0.5543 N   0  0  0  0  0  0  0  0  0  0  0  0
    2.1561   -5.5719    0.4061 N   0  0  0  0  0  0  0  0  0  0  0  0
    2.3300   -4.4726   -0.2999 N   0  0  0  0  0  0  0  0  0  0  0  0
    3.6041   -3.9922   -0.3562 C   0  0  0  0  0  0  0  0  0  0  0  0
    3.7437   -2.7854   -1.2214 C   0  0  0  0  0  0  0  0  0  0  0  0
    4.6359   -1.8121   -1.0009 N   0  0  0  0  0  0  0  0  0  0  0  0
    4.4766   -0.8203   -1.9360 C   0  0  0  0  0  0  0  0  0  0  0  0
    3.4475   -1.1990   -2.7481 C   0  0  0  0  0  0  0  0  0  0  0  0
    3.0177   -2.4206   -2.2963 N   0  0  0  0  0  0  0  0  0  0  0  0
    1.9105   -3.1638   -2.9011 C   0  0  0  0  0  0  0  0  0  0  0  0
    6.8466   -4.8038    0.6407 H   0  0  0  0  0  0  0  0  0  0  0  0
    6.2148   -3.1829    0.8592 H   0  0  0  0  0  0  0  0  0  0  0  0
    6.3872   -3.8570   -0.7674 H   0  0  0  0  0  0  0  0  0  0  0  0
    5.2089   -6.3164    1.6817 H   0  0  0  0  0  0  0  0  0  0  0  0
    3.1591   -8.0784    2.4168 H   0  0  0  0  0  0  0  0  0  0  0  0
    0.3808   -7.9490    1.5764 H   0  0  0  0  0  0  0  0  0  0  0  0
    5.0626    0.0849   -1.9470 H   0  0  0  0  0  0  0  0  0  0  0  0
    2.9830   -0.6874   -3.5824 H   0  0  0  0  0  0  0  0  0  0  0  0
    1.7014   -2.7586   -3.8912 H   0  0  0  0  0  0  0  0  0  0  0  0
    1.0237   -3.0638   -2.2721 H   0  0  0  0  0  0  0  0  0  0  0  0
    2.1825   -4.2112   -3.0113 H   0  0  0  0  0  0  0  0  0  0  0  0
    5.2918   -1.8016   -0.2356 H   0  0  0  0  0  0  0  0  0  0  0  0
  1  2  1  0
  1 17  1  0
  1 18  1  0
  1 19  1  0
  2 10  1  0
  2  3  2  0
  3  4  1  0
  3 20  1  0
  4  8  1  0
  4  5  2  0
  5  6  1  0
  5 21  1  0
  6  7  2  0
  6 22  1  0
  7  8  1  0
  8  9  1  0
  9 10  2  0
 10 11  1  0
 11 15  1  0
 11 12  2  0
 12 13  1  0
 12 28  1  0
 13 14  2  0
 13 23  1  0
 14 15  1  0
 14 24  1  0
 15 16  1  0
 16 25  1  0
 16 26  1  0
 16 27  1  0
M  CHG  1  12   1
M  END
>  <i_m_ct_stereo_status>  (26) 
1

>  <s_m_source_file>  (26) 
/var/tmp/pbs.5076255.sched01/tmp5vb4dkz1/0x5hafel7.sdf

>  <i_m_source_file_index>  (26) 
10

>  <i_lp_mmshare_version>  (26) 
48012

>  <i_f3d_flags>  (26) 
0

>  <s_epik_input>  (26) 
W2NIXTFbY0hdbm4oYzEyKW5jKGMoW0NIM10pW2NIXTIpLWMzbltjSF1bY0hdbjNbQ0gzXQ==

>  <s_epik_cmdline>  (26) 
J2VwaWtfcHl0aG9uJywgJy1waHQnLCAnMi4wJywgJy1waCcsICc3LjAnLCAnLXRuJywgJzgnLCAnLW1hJywgJzIwMCcsICctaW1hZScsICc8aW5maWxlLm1hZT4nLCAnLW9tYWUnLCAnPG91dGZpbGUubWFlPic=

>  <r_lp_tautomer_probability>  (26) 
1

>  <r_epik_Ionization_Penalty>  (26) 
0.349121

>  <r_epik_Ionization_Penalty_Charging>  (26) 
0

>  <r_epik_Ionization_Penalty_Neutral>  (26) 
0.349121

>  <r_epik_State_Penalty>  (26) 
0.345246

>  <r_epik_Charging_Adjusted_Penalty>  (26) 
0.345246

>  <i_epik_Tot_Q>  (26) 
1

>  <i_epik_Tot_abs_Q>  (26) 
1

>  <s_lp_Force_Field>  (26) 
OPLS3e

>  <r_lp_Energy>  (26) 
22.1629

>  <b_lp_Chiralities_Consistent>  (26) 
1

>  <s_lp_Variant>  (26) 
7:0-1

>  <s_i_glide_gridfile>  (26) 
pfpi4k_grid

>  <i_i_glide_lignum>  (26) 
10

>  <i_i_glide_rotatable_bonds>  (26) 
1

>  <r_i_docking_score>  (26) 
-4.42045

>  <r_i_glide_ligand_efficiency>  (26) 
-0.276278

>  <r_i_glide_ligand_efficiency_sa>  (26) 
-0.696178

>  <r_i_glide_ligand_efficiency_ln>  (26) 
-1.17173

>  <r_i_glide_gscore>  (26) 
-4.42045

>  <r_i_glide_lipo>  (26) 
-0.377805

>  <r_i_glide_hbond>  (26) 
-0.164644

>  <r_i_glide_metal>  (26) 
-0

>  <r_i_glide_rewards>  (26) 
-1.94832

>  <r_i_glide_evdw>  (26) 
-19.3878

>  <r_i_glide_ecoul>  (26) 
-7.76337

>  <r_i_glide_erotb>  (26) 
0.3639

>  <r_i_glide_esite>  (26) 
-0.159687

>  <r_i_glide_emodel>  (26) 
-36.0442

>  <r_i_glide_energy>  (26) 
-27.1512

>  <r_i_glide_einternal>  (26) 
0.617914

>  <r_i_glide_intrahb_reward>  (26) 
-0

>  <i_i_glide_confnum>  (26) 
6

>  <i_i_glide_posenum>  (26) 
20

>  <r_i_glide_eff_state_penalty>  (26) 
0

>  <ligand_id>  (26) 
7

>  <original_smiles>  (26) 
Cc1cc2ccnn2nc1-c1nccn1C

>  <smiles>  (26) 
[H]c1nn2nc(-c3n(C([H])([H])[H])c([H])c([H])[n+]3[H])c(C([H])([H])[H])c([H])c2c1[H]

$$$$
7:0:2
     RDKit          3D

 28 30  0  0  1  0  0  0  0  0999 V2000
    6.0353   -4.1485   -0.1366 C   0  0  0  0  0  0  0  0  0  0  0  0
    4.6243   -4.6232    0.1317 C   0  0  0  0  0  0  0  0  0  0  0  0
    4.4579   -5.6945    1.0514 C   0  0  0  0  0  0  0  0  0  0  0  0
    3.1334   -6.1792    1.2250 C   0  0  0  0  0  0  0  0  0  0  0  0
    2.7271   -7.2300    2.0679 C   0  0  0  0  0  0  0  0  0  0  0  0
    1.3228   -7.2077    1.7617 C   0  0  0  0  0  0  0  0  0  0  0  0
    0.9783   -6.2658    0.8688 N   0  0  0  0  0  0  0  0  0  0  0  0
    2.1221   -5.5837    0.5429 N   0  0  0  0  0  0  0  0  0  0  0  0
    2.2212   -4.5548   -0.2947 N   0  0  0  0  0  0  0  0  0  0  0  0
    3.4795   -4.0479   -0.5028 C   0  0  0  0  0  0  0  0  0  0  0  0
    3.4834   -2.9644   -1.5201 C   0  0  0  0  0  0  0  0  0  0  0  0
    2.8302   -3.0420   -2.6942 N   0  0  0  0  0  0  0  0  0  0  0  0
    3.0132   -1.8843   -3.4051 C   0  0  0  0  0  0  0  0  0  0  0  0
    3.8048   -1.0670   -2.6244 C   0  0  0  0  0  0  0  0  0  0  0  0
    4.0699   -1.7485   -1.4703 N   0  0  0  0  0  0  0  0  0  0  0  0
    4.8306   -1.1707   -0.3672 C   0  0  0  0  0  0  0  0  0  0  0  0
    6.7789   -4.8837    0.1319 H   0  0  0  0  0  0  0  0  0  0  0  0
    6.2145   -3.2903    0.4987 H   0  0  0  0  0  0  0  0  0  0  0  0
    6.1530   -3.8784   -1.1756 H   0  0  0  0  0  0  0  0  0  0  0  0
    5.2790   -6.1447    1.5951 H   0  0  0  0  0  0  0  0  0  0  0  0
    3.3764   -7.8053    2.7048 H   0  0  0  0  0  0  0  0  0  0  0  0
    0.5279   -7.8319    2.1444 H   0  0  0  0  0  0  0  0  0  0  0  0
    2.5791   -1.6981   -4.3890 H   0  0  0  0  0  0  0  0  0  0  0  0
    4.1679   -0.0620   -2.8092 H   0  0  0  0  0  0  0  0  0  0  0  0
    4.7800   -0.0848   -0.4316 H   0  0  0  0  0  0  0  0  0  0  0  0
    5.8736   -1.4566   -0.4880 H   0  0  0  0  0  0  0  0  0  0  0  0
    4.4209   -1.4883    0.5891 H   0  0  0  0  0  0  0  0  0  0  0  0
    2.2702   -3.8377   -2.9899 H   0  0  0  0  0  0  0  0  0  0  0  0
  1  2  1  0
  1 17  1  0
  1 18  1  0
  1 19  1  0
  2 10  1  0
  2  3  2  0
  3  4  1  0
  3 20  1  0
  4  8  1  0
  4  5  2  0
  5  6  1  0
  5 21  1  0
  6  7  2  0
  6 22  1  0
  7  8  1  0
  8  9  1  0
  9 10  2  0
 10 11  1  0
 11 15  1  0
 11 12  2  0
 12 13  1  0
 12 28  1  0
 13 14  2  0
 13 23  1  0
 14 15  1  0
 14 24  1  0
 15 16  1  0
 16 25  1  0
 16 26  1  0
 16 27  1  0
M  CHG  1  12   1
M  END
>  <i_m_ct_stereo_status>  (27) 
1

>  <s_m_source_file>  (27) 
/var/tmp/pbs.5076255.sched01/tmp5vb4dkz1/0x5hafel7.sdf

>  <i_m_source_file_index>  (27) 
10

>  <i_lp_mmshare_version>  (27) 
48012

>  <i_f3d_flags>  (27) 
0

>  <s_epik_input>  (27) 
W2NIXTFbY0hdbm4oYzEyKW5jKGMoW0NIM10pW2NIXTIpLWMzbltjSF1bY0hdbjNbQ0gzXQ==

>  <s_epik_cmdline>  (27) 
J2VwaWtfcHl0aG9uJywgJy1waHQnLCAnMi4wJywgJy1waCcsICc3LjAnLCAnLXRuJywgJzgnLCAnLW1hJywgJzIwMCcsICctaW1hZScsICc8aW5maWxlLm1hZT4nLCAnLW9tYWUnLCAnPG91dGZpbGUubWFlPic=

>  <r_lp_tautomer_probability>  (27) 
1

>  <r_epik_Ionization_Penalty>  (27) 
0.349121

>  <r_epik_Ionization_Penalty_Charging>  (27) 
0

>  <r_epik_Ionization_Penalty_Neutral>  (27) 
0.349121

>  <r_epik_State_Penalty>  (27) 
0.345246

>  <r_epik_Charging_Adjusted_Penalty>  (27) 
0.345246

>  <i_epik_Tot_Q>  (27) 
1

>  <i_epik_Tot_abs_Q>  (27) 
1

>  <s_lp_Force_Field>  (27) 
OPLS3e

>  <r_lp_Energy>  (27) 
22.1629

>  <b_lp_Chiralities_Consistent>  (27) 
1

>  <s_lp_Variant>  (27) 
7:0-1

>  <s_i_glide_gridfile>  (27) 
pfpi4k_grid

>  <i_i_glide_lignum>  (27) 
10

>  <i_i_glide_rotatable_bonds>  (27) 
1

>  <r_i_docking_score>  (27) 
-4.29687

>  <r_i_glide_ligand_efficiency>  (27) 
-0.268555

>  <r_i_glide_ligand_efficiency_sa>  (27) 
-0.676715

>  <r_i_glide_ligand_efficiency_ln>  (27) 
-1.13897

>  <r_i_glide_gscore>  (27) 
-4.29687

>  <r_i_glide_lipo>  (27) 
-0.318226

>  <r_i_glide_hbond>  (27) 
-0.16

>  <r_i_glide_metal>  (27) 
-0

>  <r_i_glide_rewards>  (27) 
-1.94832

>  <r_i_glide_evdw>  (27) 
-20.5474

>  <r_i_glide_ecoul>  (27) 
-7.25311

>  <r_i_glide_erotb>  (27) 
0.3639

>  <r_i_glide_esite>  (27) 
-0.118893

>  <r_i_glide_emodel>  (27) 
-35.1137

>  <r_i_glide_energy>  (27) 
-27.8005

>  <r_i_glide_einternal>  (27) 
2.63555

>  <r_i_glide_intrahb_reward>  (27) 
-0

>  <i_i_glide_confnum>  (27) 
5

>  <i_i_glide_posenum>  (27) 
1

>  <r_i_glide_eff_state_penalty>  (27) 
0

>  <ligand_id>  (27) 
7

>  <original_smiles>  (27) 
Cc1cc2ccnn2nc1-c1nccn1C

>  <smiles>  (27) 
[H]c1nn2nc(-c3n(C([H])([H])[H])c([H])c([H])[n+]3[H])c(C([H])([H])[H])c([H])c2c1[H]

$$$$
7:1:0
     RDKit          3D

 27 29  0  0  1  0  0  0  0  0999 V2000
    6.3546   -5.0075    0.7879 C   0  0  0  0  0  0  0  0  0  0  0  0
    4.8623   -5.3188    0.8200 C   0  0  0  0  0  0  0  0  0  0  0  0
    4.4472   -6.6281    1.2197 C   0  0  0  0  0  0  0  0  0  0  0  0
    3.0489   -6.8211    1.3044 C   0  0  0  0  0  0  0  0  0  0  0  0
    2.3792   -8.0003    1.6837 C   0  0  0  0  0  0  0  0  0  0  0  0
    1.0316   -7.5423    1.5680 C   0  0  0  0  0  0  0  0  0  0  0  0
    0.9271   -6.2601    1.1624 N   0  0  0  0  0  0  0  0  0  0  0  0
    2.2008   -5.8052    0.9944 N   0  0  0  0  0  0  0  0  0  0  0  0
    2.5368   -4.5861    0.5941 N   0  0  0  0  0  0  0  0  0  0  0  0
    3.8758   -4.3495    0.4939 C   0  0  0  0  0  0  0  0  0  0  0  0
    4.2063   -2.9719    0.0864 C   0  0  0  0  0  0  0  0  0  0  0  0
    3.8392   -1.9221    0.8185 N   0  0  0  0  0  0  0  0  0  0  0  0
    4.2611   -0.8028    0.1152 C   0  0  0  0  0  0  0  0  0  0  0  0
    4.9072   -1.2116   -1.0234 C   0  0  0  0  0  0  0  0  0  0  0  0
    4.8635   -2.5993   -1.0401 N   0  0  0  0  0  0  0  0  0  0  0  0
    5.3850   -3.4278   -2.1169 C   0  0  0  0  0  0  0  0  0  0  0  0
    6.9462   -5.7267    1.3587 H   0  0  0  0  0  0  0  0  0  0  0  0
    6.5495   -4.0092    1.1849 H   0  0  0  0  0  0  0  0  0  0  0  0
    6.7191   -5.0511   -0.2319 H   0  0  0  0  0  0  0  0  0  0  0  0
    5.1240   -7.4304    1.4714 H   0  0  0  0  0  0  0  0  0  0  0  0
    2.8796   -8.9168    1.9442 H   0  0  0  0  0  0  0  0  0  0  0  0
    0.1066   -8.0706    1.7402 H   0  0  0  0  0  0  0  0  0  0  0  0
    4.0669    0.1982    0.4693 H   0  0  0  0  0  0  0  0  0  0  0  0
    5.3653   -0.6395   -1.8111 H   0  0  0  0  0  0  0  0  0  0  0  0
    5.4662   -2.8288   -3.0298 H   0  0  0  0  0  0  0  0  0  0  0  0
    4.7217   -4.2822   -2.3019 H   0  0  0  0  0  0  0  0  0  0  0  0
    6.3890   -3.7712   -1.8664 H   0  0  0  0  0  0  0  0  0  0  0  0
  1  2  1  0
  1 17  1  0
  1 18  1  0
  1 19  1  0
  2 10  1  0
  2  3  2  0
  3  4  1  0
  3 20  1  0
  4  8  1  0
  4  5  2  0
  5  6  1  0
  5 21  1  0
  6  7  2  0
  6 22  1  0
  7  8  1  0
  8  9  1  0
  9 10  2  0
 10 11  1  0
 11 15  1  0
 11 12  2  0
 12 13  1  0
 13 14  2  0
 13 23  1  0
 14 15  1  0
 14 24  1  0
 15 16  1  0
 16 25  1  0
 16 26  1  0
 16 27  1  0
M  END
>  <i_m_ct_stereo_status>  (28) 
1

>  <s_m_source_file>  (28) 
/var/tmp/pbs.5076255.sched01/tmp5vb4dkz1/0x5hafel7.sdf

>  <i_m_source_file_index>  (28) 
11

>  <i_lp_mmshare_version>  (28) 
48012

>  <i_f3d_flags>  (28) 
0

>  <s_epik_input>  (28) 
W2NIXTFbY0hdbm4oYzEyKW5jKGMoW0NIM10pW2NIXTIpLWMzbltjSF1bY0hdbjNbQ0gzXQ==

>  <s_epik_cmdline>  (28) 
J2VwaWtfcHl0aG9uJywgJy1waHQnLCAnMi4wJywgJy1waCcsICc3LjAnLCAnLXRuJywgJzgnLCAnLW1hJywgJzIwMCcsICctaW1hZScsICc8aW5maWxlLm1hZT4nLCAnLW9tYWUnLCAnPG91dGZpbGUubWFlPic=

>  <r_lp_tautomer_probability>  (28) 
1

>  <r_epik_Ionization_Penalty>  (28) 
0.479385

>  <r_epik_Ionization_Penalty_Charging>  (28) 
0.479385

>  <r_epik_Ionization_Penalty_Neutral>  (28) 
7.11541e-07

>  <r_epik_State_Penalty>  (28) 
0.484248

>  <r_epik_Charging_Adjusted_Penalty>  (28) 
0.963633

>  <i_epik_Tot_Q>  (28) 
0

>  <i_epik_Tot_abs_Q>  (28) 
0

>  <s_lp_Force_Field>  (28) 
OPLS3e

>  <r_lp_Energy>  (28) 
18.0425

>  <b_lp_Chiralities_Consistent>  (28) 
1

>  <s_lp_Variant>  (28) 
7:0-2

>  <s_i_glide_gridfile>  (28) 
pfpi4k_grid

>  <i_i_glide_lignum>  (28) 
11

>  <i_i_glide_rotatable_bonds>  (28) 
1

>  <r_i_docking_score>  (28) 
-3.70888

>  <r_i_glide_ligand_efficiency>  (28) 
-0.231805

>  <r_i_glide_ligand_efficiency_sa>  (28) 
-0.584112

>  <r_i_glide_ligand_efficiency_ln>  (28) 
-0.983112

>  <r_i_glide_gscore>  (28) 
-3.70888

>  <r_i_glide_lipo>  (28) 
-0.491748

>  <r_i_glide_hbond>  (28) 
-0.16

>  <r_i_glide_metal>  (28) 
-0

>  <r_i_glide_rewards>  (28) 
-1.96081

>  <r_i_glide_evdw>  (28) 
-19.8468

>  <r_i_glide_ecoul>  (28) 
-2.82456

>  <r_i_glide_erotb>  (28) 
0.366797

>  <r_i_glide_esite>  (28) 
-0.0470974

>  <r_i_glide_emodel>  (28) 
-27.6322

>  <r_i_glide_energy>  (28) 
-22.6713

>  <r_i_glide_einternal>  (28) 
2.60844

>  <r_i_glide_intrahb_reward>  (28) 
-0

>  <i_i_glide_confnum>  (28) 
5

>  <i_i_glide_posenum>  (28) 
13

>  <r_i_glide_eff_state_penalty>  (28) 
0

>  <ligand_id>  (28) 
7

>  <original_smiles>  (28) 
Cc1cc2ccnn2nc1-c1nccn1C

>  <smiles>  (28) 
[H]c1nn2nc(-c3nc([H])c([H])n3C([H])([H])[H])c(C([H])([H])[H])c([H])c2c1[H]

$$$$
7:1:1
     RDKit          3D

 27 29  0  0  1  0  0  0  0  0999 V2000
    2.6008   -9.7001    2.0126 C   0  0  0  0  0  0  0  0  0  0  0  0
    2.6940   -8.2044    1.7772 C   0  0  0  0  0  0  0  0  0  0  0  0
    3.9427   -7.7360    1.2425 C   0  0  0  0  0  0  0  0  0  0  0  0
    3.9934   -6.3437    0.9653 C   0  0  0  0  0  0  0  0  0  0  0  0
    5.0848   -5.6292    0.4148 C   0  0  0  0  0  0  0  0  0  0  0  0
    4.4737   -4.3291    0.3784 C   0  0  0  0  0  0  0  0  0  0  0  0
    3.2143   -4.2858    0.8449 N   0  0  0  0  0  0  0  0  0  0  0  0
    2.9094   -5.5593    1.2195 N   0  0  0  0  0  0  0  0  0  0  0  0
    1.7509   -5.9389    1.7442 N   0  0  0  0  0  0  0  0  0  0  0  0
    1.6514   -7.2777    2.0338 C   0  0  0  0  0  0  0  0  0  0  0  0
    0.3391   -7.6310    2.6447 C   0  0  0  0  0  0  0  0  0  0  0  0
   -0.7847   -7.1404    2.1206 N   0  0  0  0  0  0  0  0  0  0  0  0
   -1.8174   -7.6792    2.8822 C   0  0  0  0  0  0  0  0  0  0  0  0
   -1.2832   -8.4543    3.8688 C   0  0  0  0  0  0  0  0  0  0  0  0
    0.0945   -8.4214    3.7247 N   0  0  0  0  0  0  0  0  0  0  0  0
    0.9837   -9.1035    4.6382 C   0  0  0  0  0  0  0  0  0  0  0  0
    3.2784  -10.2832    1.4037 H   0  0  0  0  0  0  0  0  0  0  0  0
    1.5877  -10.0438    1.8495 H   0  0  0  0  0  0  0  0  0  0  0  0
    2.9098   -9.8888    3.0316 H   0  0  0  0  0  0  0  0  0  0  0  0
    4.7814   -8.3826    1.0515 H   0  0  0  0  0  0  0  0  0  0  0  0
    6.0301   -6.0717    0.1401 H   0  0  0  0  0  0  0  0  0  0  0  0
    4.8973   -3.4017    0.0334 H   0  0  0  0  0  0  0  0  0  0  0  0
   -2.8569   -7.4535    2.6783 H   0  0  0  0  0  0  0  0  0  0  0  0
   -1.7381   -9.0499    4.6386 H   0  0  0  0  0  0  0  0  0  0  0  0
    0.5199   -9.2076    5.6176 H   0  0  0  0  0  0  0  0  0  0  0  0
    1.9204   -8.5545    4.7278 H   0  0  0  0  0  0  0  0  0  0  0  0
    1.1479  -10.1075    4.2552 H   0  0  0  0  0  0  0  0  0  0  0  0
  1  2  1  0
  1 17  1  0
  1 18  1  0
  1 19  1  0
  2 10  1  0
  2  3  2  0
  3  4  1  0
  3 20  1  0
  4  8  1  0
  4  5  2  0
  5  6  1  0
  5 21  1  0
  6  7  2  0
  6 22  1  0
  7  8  1  0
  8  9  1  0
  9 10  2  0
 10 11  1  0
 11 15  1  0
 11 12  2  0
 12 13  1  0
 13 14  2  0
 13 23  1  0
 14 15  1  0
 14 24  1  0
 15 16  1  0
 16 25  1  0
 16 26  1  0
 16 27  1  0
M  END
>  <i_m_ct_stereo_status>  (29) 
1

>  <s_m_source_file>  (29) 
/var/tmp/pbs.5076255.sched01/tmp5vb4dkz1/0x5hafel7.sdf

>  <i_m_source_file_index>  (29) 
11

>  <i_lp_mmshare_version>  (29) 
48012

>  <i_f3d_flags>  (29) 
0

>  <s_epik_input>  (29) 
W2NIXTFbY0hdbm4oYzEyKW5jKGMoW0NIM10pW2NIXTIpLWMzbltjSF1bY0hdbjNbQ0gzXQ==

>  <s_epik_cmdline>  (29) 
J2VwaWtfcHl0aG9uJywgJy1waHQnLCAnMi4wJywgJy1waCcsICc3LjAnLCAnLXRuJywgJzgnLCAnLW1hJywgJzIwMCcsICctaW1hZScsICc8aW5maWxlLm1hZT4nLCAnLW9tYWUnLCAnPG91dGZpbGUubWFlPic=

>  <r_lp_tautomer_probability>  (29) 
1

>  <r_epik_Ionization_Penalty>  (29) 
0.479385

>  <r_epik_Ionization_Penalty_Charging>  (29) 
0.479385

>  <r_epik_Ionization_Penalty_Neutral>  (29) 
7.11541e-07

>  <r_epik_State_Penalty>  (29) 
0.484248

>  <r_epik_Charging_Adjusted_Penalty>  (29) 
0.963633

>  <i_epik_Tot_Q>  (29) 
0

>  <i_epik_Tot_abs_Q>  (29) 
0

>  <s_lp_Force_Field>  (29) 
OPLS3e

>  <r_lp_Energy>  (29) 
18.0425

>  <b_lp_Chiralities_Consistent>  (29) 
1

>  <s_lp_Variant>  (29) 
7:0-2

>  <s_i_glide_gridfile>  (29) 
pfpi4k_grid

>  <i_i_glide_lignum>  (29) 
11

>  <i_i_glide_rotatable_bonds>  (29) 
1

>  <r_i_docking_score>  (29) 
-3.49928

>  <r_i_glide_ligand_efficiency>  (29) 
-0.218705

>  <r_i_glide_ligand_efficiency_sa>  (29) 
-0.551102

>  <r_i_glide_ligand_efficiency_ln>  (29) 
-0.927554

>  <r_i_glide_gscore>  (29) 
-3.49928

>  <r_i_glide_lipo>  (29) 
-0.275633

>  <r_i_glide_hbond>  (29) 
-0.138525

>  <r_i_glide_metal>  (29) 
-0

>  <r_i_glide_rewards>  (29) 
-1.95519

>  <r_i_glide_evdw>  (29) 
-19.9155

>  <r_i_glide_ecoul>  (29) 
-2.74623

>  <r_i_glide_erotb>  (29) 
0.366797

>  <r_i_glide_esite>  (29) 
-0.0890169

>  <r_i_glide_emodel>  (29) 
-26.9857

>  <r_i_glide_energy>  (29) 
-22.6617

>  <r_i_glide_einternal>  (29) 
2.5581

>  <r_i_glide_intrahb_reward>  (29) 
-0

>  <i_i_glide_confnum>  (29) 
3

>  <i_i_glide_posenum>  (29) 
7

>  <r_i_glide_eff_state_penalty>  (29) 
0

>  <ligand_id>  (29) 
7

>  <original_smiles>  (29) 
Cc1cc2ccnn2nc1-c1nccn1C

>  <smiles>  (29) 
[H]c1nn2nc(-c3nc([H])c([H])n3C([H])([H])[H])c(C([H])([H])[H])c([H])c2c1[H]

$$$$
7:1:2
     RDKit          3D

 27 29  0  0  1  0  0  0  0  0999 V2000
    6.6745   -3.4064   -0.7886 C   0  0  0  0  0  0  0  0  0  0  0  0
    5.3398   -4.0090   -0.3441 C   0  0  0  0  0  0  0  0  0  0  0  0
    5.3101   -4.9884    0.6924 C   0  0  0  0  0  0  0  0  0  0  0  0
    4.0226   -5.4022    1.0969 C   0  0  0  0  0  0  0  0  0  0  0  0
    3.7612   -6.3496    2.1028 C   0  0  0  0  0  0  0  0  0  0  0  0
    2.3273   -6.3255    2.0323 C   0  0  0  0  0  0  0  0  0  0  0  0
    1.8387   -5.4706    1.1116 N   0  0  0  0  0  0  0  0  0  0  0  0
    2.9050   -4.8723    0.5119 N   0  0  0  0  0  0  0  0  0  0  0  0
    2.8757   -3.9613   -0.4541 N   0  0  0  0  0  0  0  0  0  0  0  0
    4.0978   -3.5738   -0.9086 C   0  0  0  0  0  0  0  0  0  0  0  0
    4.0332   -2.5740   -1.9756 C   0  0  0  0  0  0  0  0  0  0  0  0
    3.4989   -1.3766   -1.7798 N   0  0  0  0  0  0  0  0  0  0  0  0
    3.5111   -0.7283   -3.0086 C   0  0  0  0  0  0  0  0  0  0  0  0
    4.1381   -1.5352   -3.9138 C   0  0  0  0  0  0  0  0  0  0  0  0
    4.4426   -2.7238   -3.2583 N   0  0  0  0  0  0  0  0  0  0  0  0
    5.0547   -3.8855   -3.8694 C   0  0  0  0  0  0  0  0  0  0  0  0
    7.4843   -3.6330   -0.0908 H   0  0  0  0  0  0  0  0  0  0  0  0
    6.5936   -2.3218   -0.9137 H   0  0  0  0  0  0  0  0  0  0  0  0
    7.0068   -3.7935   -1.7426 H   0  0  0  0  0  0  0  0  0  0  0  0
    6.1913   -5.3946    1.1861 H   0  0  0  0  0  0  0  0  0  0  0  0
    4.5488   -6.8473    2.6662 H   0  0  0  0  0  0  0  0  0  0  0  0
    1.5844   -6.8702    2.6012 H   0  0  0  0  0  0  0  0  0  0  0  0
    3.0911    0.2620   -3.1358 H   0  0  0  0  0  0  0  0  0  0  0  0
    4.3574   -1.3387   -4.9538 H   0  0  0  0  0  0  0  0  0  0  0  0
    4.9069   -3.8848   -4.9482 H   0  0  0  0  0  0  0  0  0  0  0  0
    4.6220   -4.8059   -3.4752 H   0  0  0  0  0  0  0  0  0  0  0  0
    6.1294   -3.8582   -3.6991 H   0  0  0  0  0  0  0  0  0  0  0  0
  1  2  1  0
  1 17  1  0
  1 18  1  0
  1 19  1  0
  2 10  1  0
  2  3  2  0
  3  4  1  0
  3 20  1  0
  4  8  1  0
  4  5  2  0
  5  6  1  0
  5 21  1  0
  6  7  2  0
  6 22  1  0
  7  8  1  0
  8  9  1  0
  9 10  2  0
 10 11  1  0
 11 15  1  0
 11 12  2  0
 12 13  1  0
 13 14  2  0
 13 23  1  0
 14 15  1  0
 14 24  1  0
 15 16  1  0
 16 25  1  0
 16 26  1  0
 16 27  1  0
M  END
>  <i_m_ct_stereo_status>  (30) 
1

>  <s_m_source_file>  (30) 
/var/tmp/pbs.5076255.sched01/tmp5vb4dkz1/0x5hafel7.sdf

>  <i_m_source_file_index>  (30) 
11

>  <i_lp_mmshare_version>  (30) 
48012

>  <i_f3d_flags>  (30) 
0

>  <s_epik_input>  (30) 
W2NIXTFbY0hdbm4oYzEyKW5jKGMoW0NIM10pW2NIXTIpLWMzbltjSF1bY0hdbjNbQ0gzXQ==

>  <s_epik_cmdline>  (30) 
J2VwaWtfcHl0aG9uJywgJy1waHQnLCAnMi4wJywgJy1waCcsICc3LjAnLCAnLXRuJywgJzgnLCAnLW1hJywgJzIwMCcsICctaW1hZScsICc8aW5maWxlLm1hZT4nLCAnLW9tYWUnLCAnPG91dGZpbGUubWFlPic=

>  <r_lp_tautomer_probability>  (30) 
1

>  <r_epik_Ionization_Penalty>  (30) 
0.479385

>  <r_epik_Ionization_Penalty_Charging>  (30) 
0.479385

>  <r_epik_Ionization_Penalty_Neutral>  (30) 
7.11541e-07

>  <r_epik_State_Penalty>  (30) 
0.484248

>  <r_epik_Charging_Adjusted_Penalty>  (30) 
0.963633

>  <i_epik_Tot_Q>  (30) 
0

>  <i_epik_Tot_abs_Q>  (30) 
0

>  <s_lp_Force_Field>  (30) 
OPLS3e

>  <r_lp_Energy>  (30) 
18.0425

>  <b_lp_Chiralities_Consistent>  (30) 
1

>  <s_lp_Variant>  (30) 
7:0-2

>  <s_i_glide_gridfile>  (30) 
pfpi4k_grid

>  <i_i_glide_lignum>  (30) 
11

>  <i_i_glide_rotatable_bonds>  (30) 
1

>  <r_i_docking_score>  (30) 
-3.28651

>  <r_i_glide_ligand_efficiency>  (30) 
-0.205407

>  <r_i_glide_ligand_efficiency_sa>  (30) 
-0.517592

>  <r_i_glide_ligand_efficiency_ln>  (30) 
-0.871154

>  <r_i_glide_gscore>  (30) 
-3.28651

>  <r_i_glide_lipo>  (30) 
-0.453233

>  <r_i_glide_hbond>  (30) 
-0.0833205

>  <r_i_glide_metal>  (30) 
-0

>  <r_i_glide_rewards>  (30) 
-2.13474

>  <r_i_glide_evdw>  (30) 
-22.1953

>  <r_i_glide_ecoul>  (30) 
1.10551

>  <r_i_glide_erotb>  (30) 
0.366797

>  <r_i_glide_esite>  (30) 
-0.0380692

>  <r_i_glide_emodel>  (30) 
-25.1976

>  <r_i_glide_energy>  (30) 
-21.0897

>  <r_i_glide_einternal>  (30) 
2.87903

>  <r_i_glide_intrahb_reward>  (30) 
-0

>  <i_i_glide_confnum>  (30) 
3

>  <i_i_glide_posenum>  (30) 
8

>  <r_i_glide_eff_state_penalty>  (30) 
0

>  <ligand_id>  (30) 
7

>  <original_smiles>  (30) 
Cc1cc2ccnn2nc1-c1nccn1C

>  <smiles>  (30) 
[H]c1nn2nc(-c3nc([H])c([H])n3C([H])([H])[H])c(C([H])([H])[H])c([H])c2c1[H]

$$$$
8:0:0
     RDKit          3D

 50 54  0  0  1  0  0  0  0  0999 V2000
    0.5143    2.7531    7.1569 C   0  0  0  0  0  0  0  0  0  0  0  0
   -0.8339    3.4057    6.7505 C   0  0  0  0  0  0  0  0  0  0  0  0
   -1.8541    3.1599    7.8767 C   0  0  0  0  0  0  0  0  0  0  0  0
   -1.4270    3.0821    5.3219 C   0  0  2  0  0  0  0  0  0  0  0  0
   -1.8959    1.6182    5.1226 C   0  0  0  0  0  0  0  0  0  0  0  0
   -0.7432    0.6111    4.9560 C   0  0  0  0  0  0  0  0  0  0  0  0
    0.3260    1.0718    3.9233 C   0  0  1  0  0  0  0  0  0  0  0  0
    0.7028    2.5835    4.0638 C   0  0  0  0  0  0  0  0  0  0  0  0
    1.9155    3.2384    4.1217 C   0  0  0  0  0  0  0  0  0  0  0  0
    3.2138    2.8015    4.1439 O   0  0  0  0  0  0  0  0  0  0  0  0
    3.4245    1.4629    4.5268 C   0  0  2  0  0  0  0  0  0  0  0  0
    4.7258    0.9016    4.2300 O   0  0  0  0  0  0  0  0  0  0  0  0
    4.0399   -0.3007    3.8183 C   0  0  2  0  0  0  0  0  0  0  0  0
    4.5158   -0.9476    2.6434 O   0  0  0  0  0  0  0  0  0  0  0  0
    3.4678   -1.2395    1.7277 C   0  0  1  0  0  0  0  0  0  0  0  0
    4.1594   -2.0502    0.5999 C   0  0  0  0  0  0  0  0  0  0  0  0
    2.2741   -2.0426    2.3556 C   0  0  0  0  0  0  0  0  0  0  0  0
    1.0853   -1.1808    2.8819 C   0  0  0  0  0  0  0  0  0  0  0  0
    1.4390   -0.0143    3.8322 C   0  0  1  0  0  0  0  0  0  0  0  0
    2.7984    0.5261    3.5328 C   0  0  1  0  0  0  0  0  0  0  0  0
    2.8914    1.0585    2.1920 O   0  0  0  0  0  0  0  0  0  0  0  0
    2.9019   -0.0707    1.1648 O   0  0  0  0  0  0  0  0  0  0  0  0
   -0.5212    3.4920    4.1338 C   0  0  1  0  0  0  0  0  0  0  0  0
   -1.2397    3.4743    2.8947 O   0  0  0  0  0  0  0  0  0  0  0  0
    0.4627    1.6609    7.1586 H   0  0  0  0  0  0  0  0  0  0  0  0
    0.8042    3.0654    8.1625 H   0  0  0  0  0  0  0  0  0  0  0  0
    1.3250    3.0825    6.5197 H   0  0  0  0  0  0  0  0  0  0  0  0
   -0.6654    4.4895    6.7507 H   0  0  0  0  0  0  0  0  0  0  0  0
   -2.1994    2.1234    7.9000 H   0  0  0  0  0  0  0  0  0  0  0  0
   -2.7321    3.8061    7.8161 H   0  0  0  0  0  0  0  0  0  0  0  0
   -1.3915    3.3355    8.8499 H   0  0  0  0  0  0  0  0  0  0  0  0
   -2.3195    3.6945    5.2257 H   0  0  0  0  0  0  0  0  0  0  0  0
   -2.5715    1.3172    5.9054 H   0  0  0  0  0  0  0  0  0  0  0  0
   -2.5055    1.5800    4.2076 H   0  0  0  0  0  0  0  0  0  0  0  0
   -0.2970    0.3907    5.9346 H   0  0  0  0  0  0  0  0  0  0  0  0
   -1.1750   -0.3347    4.6299 H   0  0  0  0  0  0  0  0  0  0  0  0
   -0.1814    1.0600    2.9478 H   0  0  0  0  0  0  0  0  0  0  0  0
    1.9296    4.3177    4.2035 H   0  0  0  0  0  0  0  0  0  0  0  0
    3.1290    1.2515    5.5645 H   0  0  0  0  0  0  0  0  0  0  0  0
    3.9088   -1.0123    4.6512 H   0  0  0  0  0  0  0  0  0  0  0  0
    4.9965   -1.4837    0.1889 H   0  0  0  0  0  0  0  0  0  0  0  0
    3.4768   -2.2728   -0.2149 H   0  0  0  0  0  0  0  0  0  0  0  0
    4.5592   -2.9896    0.9773 H   0  0  0  0  0  0  0  0  0  0  0  0
    1.8508   -2.6852    1.5861 H   0  0  0  0  0  0  0  0  0  0  0  0
    2.6395   -2.7119    3.1310 H   0  0  0  0  0  0  0  0  0  0  0  0
    0.5746   -0.7712    2.0089 H   0  0  0  0  0  0  0  0  0  0  0  0
    0.3585   -1.8326    3.3658 H   0  0  0  0  0  0  0  0  0  0  0  0
    1.5229   -0.4634    4.8327 H   0  0  0  0  0  0  0  0  0  0  0  0
   -0.2304    4.5364    4.2596 H   0  0  0  0  0  0  0  0  0  0  0  0
   -0.6467    3.7400    2.1829 H   0  0  0  0  0  0  0  0  0  0  0  0
  1  2  1  0
  1 25  1  0
  1 26  1  0
  1 27  1  0
  2  3  1  0
  2  4  1  0
  2 28  1  0
  3 29  1  0
  3 30  1  0
  3 31  1  0
  4 23  1  0
  4  5  1  0
  4 32  1  6
  5  6  1  0
  5 33  1  0
  5 34  1  0
  6  7  1  0
  6 35  1  0
  6 36  1  0
  7 19  1  0
  7  8  1  0
  7 37  1  6
  8  9  2  0
  8 23  1  0
  9 10  1  0
  9 38  1  0
 10 11  1  0
 11 20  1  0
 11 12  1  0
 11 39  1  1
 12 13  1  0
 13 20  1  0
 13 14  1  0
 13 40  1  1
 14 15  1  0
 15 22  1  0
 15 16  1  6
 15 17  1  0
 16 41  1  0
 16 42  1  0
 16 43  1  0
 17 18  1  0
 17 44  1  0
 17 45  1  0
 18 19  1  0
 18 46  1  0
 18 47  1  0
 19 20  1  0
 19 48  1  1
 20 21  1  6
 21 22  1  0
 23 24  1  0
 23 49  1  1
 24 50  1  0
M  END
>  <i_m_ct_stereo_status>  (31) 
1

>  <s_m_source_file>  (31) 
/var/tmp/pbs.5076255.sched01/tmp5vb4dkz1/0x5hafel7.sdf

>  <i_m_source_file_index>  (31) 
12

>  <i_lp_mmshare_version>  (31) 
48012

>  <i_f3d_flags>  (31) 
0

>  <s_epik_input>  (31) 
W0NIM11bQ0hdKFtDSDNdKVtDQEBIXShbQ0BASF0xW09IXSlbQ0gyXVtDSDJdW0NAQEhdKEMxPVtDSF1PW0NASF0yW0NAQF0zNDUpW0NASF00W0NIMl1bQ0gyXVtDQEBdKFtDSDNdKShPTzUpT1tDQEhdM08y

>  <s_epik_cmdline>  (31) 
J2VwaWtfcHl0aG9uJywgJy1waHQnLCAnMi4wJywgJy1waCcsICc3LjAnLCAnLXRuJywgJzgnLCAnLW1hJywgJzIwMCcsICctaW1hZScsICc8aW5maWxlLm1hZT4nLCAnLW9tYWUnLCAnPG91dGZpbGUubWFlPic=

>  <r_lp_tautomer_probability>  (31) 
1

>  <r_epik_Ionization_Penalty>  (31) 
1.37022e-07

>  <r_epik_Ionization_Penalty_Charging>  (31) 
0

>  <r_epik_Ionization_Penalty_Neutral>  (31) 
1.37022e-07

>  <r_epik_State_Penalty>  (31) 
-0

>  <r_epik_Charging_Adjusted_Penalty>  (31) 
0

>  <i_epik_Tot_Q>  (31) 
0

>  <i_epik_Tot_abs_Q>  (31) 
0

>  <s_epik_Chemistry_Notes>  (31) 
This compound contains an acetal/aminal-like group ( X-CH(R)-Y where X, Y are N, S, or O) that may be acid/base labile, releasing an aldehyde.

>  <s_lp_Force_Field>  (31) 
OPLS3e

>  <r_lp_Energy>  (31) 
49.4736

>  <b_lp_Chiralities_Consistent>  (31) 
1

>  <s_lp_Variant>  (31) 
8:0-1

>  <s_i_glide_gridfile>  (31) 
pfpi4k_grid

>  <i_i_glide_lignum>  (31) 
12

>  <i_i_glide_rotatable_bonds>  (31) 
2

>  <r_i_docking_score>  (31) 
-2.64881

>  <r_i_glide_ligand_efficiency>  (31) 
-0.110367

>  <r_i_glide_ligand_efficiency_sa>  (31) 
-0.318354

>  <r_i_glide_ligand_efficiency_ln>  (31) 
-0.633982

>  <r_i_glide_gscore>  (31) 
-2.64881

>  <r_i_glide_lipo>  (31) 
-0.00556777

>  <r_i_glide_hbond>  (31) 
-0.16

>  <r_i_glide_metal>  (31) 
-0

>  <r_i_glide_rewards>  (31) 
-1.1201

>  <r_i_glide_evdw>  (31) 
-15.9312

>  <r_i_glide_ecoul>  (31) 
-3.63804

>  <r_i_glide_erotb>  (31) 
0

>  <r_i_glide_esite>  (31) 
-0.0208787

>  <r_i_glide_emodel>  (31) 
-19.3506

>  <r_i_glide_energy>  (31) 
-19.5692

>  <r_i_glide_einternal>  (31) 
6.81493

>  <r_i_glide_intrahb_reward>  (31) 
-0

>  <i_i_glide_confnum>  (31) 
1

>  <i_i_glide_posenum>  (31) 
9

>  <r_i_glide_eff_state_penalty>  (31) 
0

>  <ligand_id>  (31) 
8

>  <original_smiles>  (31) 
CC(C)C1CCC2C(=COC3OC4OC5(C)CCC2C34OO5)C1O

>  <smiles>  (31) 
[H]OC1([H])C2=C([H])OC3([H])OC4([H])OC5(C([H])([H])[H])OOC34C([H])(C([H])([H])C5([H])[H])C2([H])C([H])([H])C([H])([H])C1([H])C([H])(C([H])([H])[H])C([H])([H])[H]

$$$$
8:0:1
     RDKit          3D

 50 54  0  0  1  0  0  0  0  0999 V2000
   -2.4316    3.6445    7.7129 C   0  0  0  0  0  0  0  0  0  0  0  0
   -2.6133    2.7885    6.4342 C   0  0  0  0  0  0  0  0  0  0  0  0
   -2.2058    1.3162    6.7691 C   0  0  0  0  0  0  0  0  0  0  0  0
   -1.9888    3.4715    5.1483 C   0  0  2  0  0  0  0  0  0  0  0  0
   -2.2857    2.7458    3.8063 C   0  0  0  0  0  0  0  0  0  0  0  0
   -1.4633    1.4514    3.6042 C   0  0  0  0  0  0  0  0  0  0  0  0
    0.0639    1.6567    3.8731 C   0  0  1  0  0  0  0  0  0  0  0  0
    0.3419    2.4861    5.1880 C   0  0  0  0  0  0  0  0  0  0  0  0
    1.1491    2.2714    6.2639 C   0  0  0  0  0  0  0  0  0  0  0  0
    1.9710    1.2261    6.6379 O   0  0  0  0  0  0  0  0  0  0  0  0
    1.7207   -0.0181    6.0211 C   0  0  2  0  0  0  0  0  0  0  0  0
    2.7815   -1.0009    6.1265 O   0  0  0  0  0  0  0  0  0  0  0  0
    2.5194   -1.3353    4.7389 C   0  0  2  0  0  0  0  0  0  0  0  0
    3.6465   -1.5635    3.9122 O   0  0  0  0  0  0  0  0  0  0  0  0
    3.5876   -0.8249    2.6936 C   0  0  1  0  0  0  0  0  0  0  0  0
    4.8161   -1.3064    1.8938 C   0  0  0  0  0  0  0  0  0  0  0  0
    2.2569   -1.0127    1.8963 C   0  0  0  0  0  0  0  0  0  0  0  0
    1.1402    0.0410    2.1684 C   0  0  0  0  0  0  0  0  0  0  0  0
    0.7811    0.2899    3.6503 C   0  0  1  0  0  0  0  0  0  0  0  0
    1.9607    0.0681    4.5439 C   0  0  1  0  0  0  0  0  0  0  0  0
    3.0482    0.9501    4.2390 O   0  0  0  0  0  0  0  0  0  0  0  0
    3.6978    0.5698    2.9202 O   0  0  0  0  0  0  0  0  0  0  0  0
   -0.4746    3.7813    5.2185 C   0  0  1  0  0  0  0  0  0  0  0  0
   -0.1046    4.6792    4.1810 O   0  0  0  0  0  0  0  0  0  0  0  0
   -1.3808    3.8378    7.9297 H   0  0  0  0  0  0  0  0  0  0  0  0
   -2.8246    3.1018    8.5719 H   0  0  0  0  0  0  0  0  0  0  0  0
   -2.9624    4.5989    7.6802 H   0  0  0  0  0  0  0  0  0  0  0  0
   -3.6887    2.7833    6.2555 H   0  0  0  0  0  0  0  0  0  0  0  0
   -1.1232    1.2088    6.8267 H   0  0  0  0  0  0  0  0  0  0  0  0
   -2.6146    0.6188    6.0555 H   0  0  0  0  0  0  0  0  0  0  0  0
   -2.5714    1.0498    7.7725 H   0  0  0  0  0  0  0  0  0  0  0  0
   -2.4729    4.4462    5.0578 H   0  0  0  0  0  0  0  0  0  0  0  0
   -3.3547    2.5608    3.7123 H   0  0  0  0  0  0  0  0  0  0  0  0
   -2.0564    3.4356    2.9860 H   0  0  0  0  0  0  0  0  0  0  0  0
   -1.8537    0.6456    4.1895 H   0  0  0  0  0  0  0  0  0  0  0  0
   -1.6028    1.1385    2.5601 H   0  0  0  0  0  0  0  0  0  0  0  0
    0.4373    2.3343    3.0916 H   0  0  0  0  0  0  0  0  0  0  0  0
    1.1604    2.9968    7.0777 H   0  0  0  0  0  0  0  0  0  0  0  0
    0.7517   -0.4629    6.2733 H   0  0  0  0  0  0  0  0  0  0  0  0
    1.7576   -2.1182    4.6414 H   0  0  0  0  0  0  0  0  0  0  0  0
    5.7276   -1.1824    2.4773 H   0  0  0  0  0  0  0  0  0  0  0  0
    4.9410   -0.7528    0.9656 H   0  0  0  0  0  0  0  0  0  0  0  0
    4.7354   -2.3673    1.6471 H   0  0  0  0  0  0  0  0  0  0  0  0
    2.4890   -0.9213    0.8363 H   0  0  0  0  0  0  0  0  0  0  0  0
    1.8764   -2.0239    2.0253 H   0  0  0  0  0  0  0  0  0  0  0  0
    1.4546    0.9861    1.7208 H   0  0  0  0  0  0  0  0  0  0  0  0
    0.2397   -0.2386    1.6257 H   0  0  0  0  0  0  0  0  0  0  0  0
    0.0604   -0.4930    3.9135 H   0  0  0  0  0  0  0  0  0  0  0  0
   -0.2605    4.3451    6.1343 H   0  0  0  0  0  0  0  0  0  0  0  0
   -0.0649    4.1847    3.3606 H   0  0  0  0  0  0  0  0  0  0  0  0
  1  2  1  0
  1 25  1  0
  1 26  1  0
  1 27  1  0
  2  3  1  0
  2  4  1  0
  2 28  1  0
  3 29  1  0
  3 30  1  0
  3 31  1  0
  4 23  1  0
  4  5  1  0
  4 32  1  6
  5  6  1  0
  5 33  1  0
  5 34  1  0
  6  7  1  0
  6 35  1  0
  6 36  1  0
  7 19  1  0
  7  8  1  0
  7 37  1  6
  8  9  2  0
  8 23  1  0
  9 10  1  0
  9 38  1  0
 10 11  1  0
 11 20  1  0
 11 12  1  0
 11 39  1  6
 12 13  1  0
 13 20  1  0
 13 14  1  0
 13 40  1  1
 14 15  1  0
 15 22  1  0
 15 16  1  6
 15 17  1  0
 16 41  1  0
 16 42  1  0
 16 43  1  0
 17 18  1  0
 17 44  1  0
 17 45  1  0
 18 19  1  0
 18 46  1  0
 18 47  1  0
 19 20  1  0
 19 48  1  1
 20 21  1  1
 21 22  1  0
 23 24  1  0
 23 49  1  1
 24 50  1  0
M  END
>  <i_m_ct_stereo_status>  (32) 
1

>  <s_m_source_file>  (32) 
/var/tmp/pbs.5076255.sched01/tmp5vb4dkz1/0x5hafel7.sdf

>  <i_m_source_file_index>  (32) 
12

>  <i_lp_mmshare_version>  (32) 
48012

>  <i_f3d_flags>  (32) 
0

>  <s_epik_input>  (32) 
W0NIM11bQ0hdKFtDSDNdKVtDQEBIXShbQ0BASF0xW09IXSlbQ0gyXVtDSDJdW0NAQEhdKEMxPVtDSF1PW0NASF0yW0NAQF0zNDUpW0NASF00W0NIMl1bQ0gyXVtDQEBdKFtDSDNdKShPTzUpT1tDQEhdM08y

>  <s_epik_cmdline>  (32) 
J2VwaWtfcHl0aG9uJywgJy1waHQnLCAnMi4wJywgJy1waCcsICc3LjAnLCAnLXRuJywgJzgnLCAnLW1hJywgJzIwMCcsICctaW1hZScsICc8aW5maWxlLm1hZT4nLCAnLW9tYWUnLCAnPG91dGZpbGUubWFlPic=

>  <r_lp_tautomer_probability>  (32) 
1

>  <r_epik_Ionization_Penalty>  (32) 
1.37022e-07

>  <r_epik_Ionization_Penalty_Charging>  (32) 
0

>  <r_epik_Ionization_Penalty_Neutral>  (32) 
1.37022e-07

>  <r_epik_State_Penalty>  (32) 
-0

>  <r_epik_Charging_Adjusted_Penalty>  (32) 
0

>  <i_epik_Tot_Q>  (32) 
0

>  <i_epik_Tot_abs_Q>  (32) 
0

>  <s_epik_Chemistry_Notes>  (32) 
This compound contains an acetal/aminal-like group ( X-CH(R)-Y where X, Y are N, S, or O) that may be acid/base labile, releasing an aldehyde.

>  <s_lp_Force_Field>  (32) 
OPLS3e

>  <r_lp_Energy>  (32) 
49.4736

>  <b_lp_Chiralities_Consistent>  (32) 
1

>  <s_lp_Variant>  (32) 
8:0-1

>  <s_i_glide_gridfile>  (32) 
pfpi4k_grid

>  <i_i_glide_lignum>  (32) 
12

>  <i_i_glide_rotatable_bonds>  (32) 
2

>  <r_i_docking_score>  (32) 
-2.57941

>  <r_i_glide_ligand_efficiency>  (32) 
-0.107475

>  <r_i_glide_ligand_efficiency_sa>  (32) 
-0.310013

>  <r_i_glide_ligand_efficiency_ln>  (32) 
-0.617371

>  <r_i_glide_gscore>  (32) 
-2.57941

>  <r_i_glide_lipo>  (32) 
-0.320282

>  <r_i_glide_hbond>  (32) 
0

>  <r_i_glide_metal>  (32) 
-0

>  <r_i_glide_rewards>  (32) 
-1.11086

>  <r_i_glide_evdw>  (32) 
-16.9825

>  <r_i_glide_ecoul>  (32) 
-1.99432

>  <r_i_glide_erotb>  (32) 
0

>  <r_i_glide_esite>  (32) 
0

>  <r_i_glide_emodel>  (32) 
-18.4662

>  <r_i_glide_energy>  (32) 
-18.9768

>  <r_i_glide_einternal>  (32) 
7.11807

>  <r_i_glide_intrahb_reward>  (32) 
-0

>  <i_i_glide_confnum>  (32) 
2

>  <i_i_glide_posenum>  (32) 
2

>  <r_i_glide_eff_state_penalty>  (32) 
0

>  <ligand_id>  (32) 
8

>  <original_smiles>  (32) 
CC(C)C1CCC2C(=COC3OC4OC5(C)CCC2C34OO5)C1O

>  <smiles>  (32) 
[H]OC1([H])C2=C([H])OC3([H])OC4([H])OC5(C([H])([H])[H])OOC34C([H])(C([H])([H])C5([H])[H])C2([H])C([H])([H])C([H])([H])C1([H])C([H])(C([H])([H])[H])C([H])([H])[H]

$$$$
8:0:2
     RDKit          3D

 50 54  0  0  1  0  0  0  0  0999 V2000
    2.4326    3.5845    2.8442 C   0  0  0  0  0  0  0  0  0  0  0  0
    1.7504    4.9129    3.2961 C   0  0  0  0  0  0  0  0  0  0  0  0
    2.8287    5.9126    3.7369 C   0  0  0  0  0  0  0  0  0  0  0  0
    0.5475    4.8194    4.3119 C   0  0  2  0  0  0  0  0  0  0  0  0
    0.9341    4.4946    5.7767 C   0  0  0  0  0  0  0  0  0  0  0  0
    1.3951    3.0340    5.9587 C   0  0  0  0  0  0  0  0  0  0  0  0
    0.3535    2.0110    5.3899 C   0  0  1  0  0  0  0  0  0  0  0  0
   -0.1331    2.4078    3.9518 C   0  0  0  0  0  0  0  0  0  0  0  0
   -0.2459    1.6984    2.7839 C   0  0  0  0  0  0  0  0  0  0  0  0
    0.0548    0.4036    2.4604 O   0  0  0  0  0  0  0  0  0  0  0  0
    1.0375   -0.2257    3.2271 C   0  0  2  0  0  0  0  0  0  0  0  0
    1.1548   -1.6722    3.0801 O   0  0  0  0  0  0  0  0  0  0  0  0
    1.2513   -1.7588    4.5108 C   0  0  2  0  0  0  0  0  0  0  0  0
    0.5151   -2.7974    5.1353 O   0  0  0  0  0  0  0  0  0  0  0  0
   -0.2846   -2.3396    6.2386 C   0  0  1  0  0  0  0  0  0  0  0  0
   -0.8519   -3.6410    6.8551 C   0  0  0  0  0  0  0  0  0  0  0  0
    0.5118   -1.4952    7.2893 C   0  0  0  0  0  0  0  0  0  0  0  0
    0.4783    0.0466    7.0837 C   0  0  0  0  0  0  0  0  0  0  0  0
    0.8632    0.5638    5.6746 C   0  0  1  0  0  0  0  0  0  0  0  0
    0.4903   -0.4329    4.6033 C   0  0  1  0  0  0  0  0  0  0  0  0
   -0.9180   -0.7233    4.5836 O   0  0  0  0  0  0  0  0  0  0  0  0
   -1.3380   -1.4868    5.7949 O   0  0  0  0  0  0  0  0  0  0  0  0
   -0.6004    3.8657    3.8772 C   0  0  1  0  0  0  0  0  0  0  0  0
   -1.7750    4.0699    4.6489 O   0  0  0  0  0  0  0  0  0  0  0  0
    2.7890    3.0062    3.6876 H   0  0  0  0  0  0  0  0  0  0  0  0
    3.2806    3.8332    2.1513 H   0  0  0  0  0  0  0  0  0  0  0  0
    1.7190    2.9984    2.2188 H   0  0  0  0  0  0  0  0  0  0  0  0
    1.3156    5.3506    2.3968 H   0  0  0  0  0  0  0  0  0  0  0  0
    3.2727    5.6322    4.6968 H   0  0  0  0  0  0  0  0  0  0  0  0
    2.4507    6.9382    3.8133 H   0  0  0  0  0  0  0  0  0  0  0  0
    3.6476    5.9139    3.0213 H   0  0  0  0  0  0  0  0  0  0  0  0
    0.0959    5.8110    4.3307 H   0  0  0  0  0  0  0  0  0  0  0  0
    1.6886    5.1884    6.1347 H   0  0  0  0  0  0  0  0  0  0  0  0
    0.0662    4.6921    6.4195 H   0  0  0  0  0  0  0  0  0  0  0  0
    2.3764    2.9175    5.5146 H   0  0  0  0  0  0  0  0  0  0  0  0
    1.4768    2.8653    7.0492 H   0  0  0  0  0  0  0  0  0  0  0  0
   -0.5598    2.1268    5.9843 H   0  0  0  0  0  0  0  0  0  0  0  0
   -0.6557    2.1783    1.9042 H   0  0  0  0  0  0  0  0  0  0  0  0
    2.0232    0.2458    3.2234 H   0  0  0  0  0  0  0  0  0  0  0  0
    2.2785   -1.6812    4.8662 H   0  0  0  0  0  0  0  0  0  0  0  0
   -1.3655   -4.2174    6.0941 H   0  0  0  0  0  0  0  0  0  0  0  0
   -1.5532   -3.4441    7.6486 H   0  0  0  0  0  0  0  0  0  0  0  0
   -0.0567   -4.2647    7.2476 H   0  0  0  0  0  0  0  0  0  0  0  0
    0.0745   -1.6761    8.2626 H   0  0  0  0  0  0  0  0  0  0  0  0
    1.5389   -1.8588    7.3631 H   0  0  0  0  0  0  0  0  0  0  0  0
   -0.5256    0.3969    7.3192 H   0  0  0  0  0  0  0  0  0  0  0  0
    1.1256    0.5181    7.8181 H   0  0  0  0  0  0  0  0  0  0  0  0
    1.9564    0.6198    5.6675 H   0  0  0  0  0  0  0  0  0  0  0  0
   -0.9010    4.1189    2.8689 H   0  0  0  0  0  0  0  0  0  0  0  0
   -2.3821    3.3711    4.4179 H   0  0  0  0  0  0  0  0  0  0  0  0
  1  2  1  0
  1 25  1  0
  1 26  1  0
  1 27  1  0
  2  3  1  0
  2  4  1  0
  2 28  1  0
  3 29  1  0
  3 30  1  0
  3 31  1  0
  4 23  1  0
  4  5  1  0
  4 32  1  1
  5  6  1  0
  5 33  1  0
  5 34  1  0
  6  7  1  0
  6 35  1  0
  6 36  1  0
  7 19  1  0
  7  8  1  0
  7 37  1  1
  8  9  2  0
  8 23  1  0
  9 10  1  0
  9 38  1  0
 10 11  1  0
 11 20  1  0
 11 12  1  0
 11 39  1  1
 12 13  1  0
 13 20  1  0
 13 14  1  0
 13 40  1  6
 14 15  1  0
 15 22  1  0
 15 16  1  1
 15 17  1  0
 16 41  1  0
 16 42  1  0
 16 43  1  0
 17 18  1  0
 17 44  1  0
 17 45  1  0
 18 19  1  0
 18 46  1  0
 18 47  1  0
 19 20  1  0
 19 48  1  1
 20 21  1  6
 21 22  1  0
 23 24  1  0
 23 49  1  6
 24 50  1  0
M  END
>  <i_m_ct_stereo_status>  (33) 
1

>  <s_m_source_file>  (33) 
/var/tmp/pbs.5076255.sched01/tmp5vb4dkz1/0x5hafel7.sdf

>  <i_m_source_file_index>  (33) 
12

>  <i_lp_mmshare_version>  (33) 
48012

>  <i_f3d_flags>  (33) 
0

>  <s_epik_input>  (33) 
W0NIM11bQ0hdKFtDSDNdKVtDQEBIXShbQ0BASF0xW09IXSlbQ0gyXVtDSDJdW0NAQEhdKEMxPVtDSF1PW0NASF0yW0NAQF0zNDUpW0NASF00W0NIMl1bQ0gyXVtDQEBdKFtDSDNdKShPTzUpT1tDQEhdM08y

>  <s_epik_cmdline>  (33) 
J2VwaWtfcHl0aG9uJywgJy1waHQnLCAnMi4wJywgJy1waCcsICc3LjAnLCAnLXRuJywgJzgnLCAnLW1hJywgJzIwMCcsICctaW1hZScsICc8aW5maWxlLm1hZT4nLCAnLW9tYWUnLCAnPG91dGZpbGUubWFlPic=

>  <r_lp_tautomer_probability>  (33) 
1

>  <r_epik_Ionization_Penalty>  (33) 
1.37022e-07

>  <r_epik_Ionization_Penalty_Charging>  (33) 
0

>  <r_epik_Ionization_Penalty_Neutral>  (33) 
1.37022e-07

>  <r_epik_State_Penalty>  (33) 
-0

>  <r_epik_Charging_Adjusted_Penalty>  (33) 
0

>  <i_epik_Tot_Q>  (33) 
0

>  <i_epik_Tot_abs_Q>  (33) 
0

>  <s_epik_Chemistry_Notes>  (33) 
This compound contains an acetal/aminal-like group ( X-CH(R)-Y where X, Y are N, S, or O) that may be acid/base labile, releasing an aldehyde.

>  <s_lp_Force_Field>  (33) 
OPLS3e

>  <r_lp_Energy>  (33) 
49.4736

>  <b_lp_Chiralities_Consistent>  (33) 
1

>  <s_lp_Variant>  (33) 
8:0-1

>  <s_i_glide_gridfile>  (33) 
pfpi4k_grid

>  <i_i_glide_lignum>  (33) 
12

>  <i_i_glide_rotatable_bonds>  (33) 
2

>  <r_i_docking_score>  (33) 
-2.06355

>  <r_i_glide_ligand_efficiency>  (33) 
-0.0859813

>  <r_i_glide_ligand_efficiency_sa>  (33) 
-0.248013

>  <r_i_glide_ligand_efficiency_ln>  (33) 
-0.493903

>  <r_i_glide_gscore>  (33) 
-2.06355

>  <r_i_glide_lipo>  (33) 
-0.0207306

>  <r_i_glide_hbond>  (33) 
0

>  <r_i_glide_metal>  (33) 
-0

>  <r_i_glide_rewards>  (33) 
-1.10185

>  <r_i_glide_evdw>  (33) 
-18.2681

>  <r_i_glide_ecoul>  (33) 
0.148829

>  <r_i_glide_erotb>  (33) 
0

>  <r_i_glide_esite>  (33) 
-0.0498934

>  <r_i_glide_emodel>  (33) 
-17.0103

>  <r_i_glide_energy>  (33) 
-18.1192

>  <r_i_glide_einternal>  (33) 
6.34435

>  <r_i_glide_intrahb_reward>  (33) 
-0

>  <i_i_glide_confnum>  (33) 
2

>  <i_i_glide_posenum>  (33) 
4

>  <r_i_glide_eff_state_penalty>  (33) 
0

>  <ligand_id>  (33) 
8

>  <original_smiles>  (33) 
CC(C)C1CCC2C(=COC3OC4OC5(C)CCC2C34OO5)C1O

>  <smiles>  (33) 
[H]OC1([H])C2=C([H])OC3([H])OC4([H])OC5(C([H])([H])[H])OOC34C([H])(C([H])([H])C5([H])[H])C2([H])C([H])([H])C([H])([H])C1([H])C([H])(C([H])([H])[H])C([H])([H])[H]

$$$$
9:0:0
     RDKit          3D

 53 57  0  0  1  0  0  0  0  0999 V2000
    8.4238   -2.9517   -0.6353 C   0  0  0  0  0  0  0  0  0  0  0  0
    7.1168   -3.5079   -0.5071 O   0  0  0  0  0  0  0  0  0  0  0  0
    6.5962   -3.6757    0.8124 C   0  0  2  0  0  0  0  0  0  0  0  0
    7.5418   -4.6874    1.6086 C   0  0  0  0  0  0  0  0  0  0  0  0
    6.8729   -5.6014    2.7231 C   0  0  0  0  0  0  0  0  0  0  0  0
    5.4140   -5.8843    2.3553 C   0  0  2  0  0  0  0  0  0  0  0  0
    5.4252   -6.7135    0.9691 C   0  0  0  0  0  0  0  0  0  0  0  0
    4.5661   -6.2233   -0.2493 C   0  0  0  0  0  0  0  0  0  0  0  0
    4.6757   -4.6967   -0.3975 C   0  0  1  0  0  0  0  0  0  0  0  0
    3.7851   -3.3300   -0.3726 C   0  0  2  0  0  0  0  0  0  0  0  0
    2.7550   -3.1075   -1.4873 C   0  0  0  0  0  0  0  0  0  0  0  0
    3.3003   -3.4081   -2.7498 O   0  0  0  0  0  0  0  0  0  0  0  0
    4.3392   -1.9016    0.2266 C   0  0  0  0  0  0  0  0  0  0  0  0
    4.6320   -1.7619    1.8696 C   0  0  0  0  0  0  0  0  0  0  0  0
    5.1457   -2.9781    2.8769 C   0  0  1  0  0  0  0  0  0  0  0  0
    4.5670   -2.7912    4.1518 O   0  0  0  0  0  0  0  0  0  0  0  0
    4.8883   -4.4381    2.2903 C   0  0  1  0  0  0  0  0  0  0  0  0
    5.0372   -4.1664    0.9259 C   0  0  1  0  0  0  0  0  0  0  0  0
    3.4000   -3.9187    0.8422 C   0  0  2  0  0  0  0  0  0  0  0  0
    2.4657   -5.0585    0.8895 O   0  0  0  0  0  0  0  0  0  0  0  0
    2.0729   -5.7190    2.0490 C   0  0  0  0  0  0  0  0  0  0  0  0
    1.0226   -5.4582    2.6285 O   0  0  0  0  0  0  0  0  0  0  0  0
    2.9775   -6.8966    2.5597 C   0  0  0  0  0  0  0  0  0  0  0  0
    4.3840   -6.6405    3.2637 C   0  0  1  0  0  0  0  0  0  0  0  0
    4.9189   -7.8876    3.6579 O   0  0  0  0  0  0  0  0  0  0  0  0
    8.6356   -2.7894   -1.6924 H   0  0  0  0  0  0  0  0  0  0  0  0
    9.1895   -3.6239   -0.2519 H   0  0  0  0  0  0  0  0  0  0  0  0
    8.5195   -1.9911   -0.1257 H   0  0  0  0  0  0  0  0  0  0  0  0
    6.7964   -2.6782    1.1862 H   0  0  0  0  0  0  0  0  0  0  0  0
    8.0048   -5.3560    0.8857 H   0  0  0  0  0  0  0  0  0  0  0  0
    8.4009   -4.1645    2.0296 H   0  0  0  0  0  0  0  0  0  0  0  0
    7.4431   -6.5244    2.8540 H   0  0  0  0  0  0  0  0  0  0  0  0
    6.8923   -5.1076    3.6986 H   0  0  0  0  0  0  0  0  0  0  0  0
    6.4489   -6.7686    0.6069 H   0  0  0  0  0  0  0  0  0  0  0  0
    5.2010   -7.7652    1.1271 H   0  0  0  0  0  0  0  0  0  0  0  0
    5.0094   -6.6441   -1.1325 H   0  0  0  0  0  0  0  0  0  0  0  0
    3.5715   -6.6441   -0.2788 H   0  0  0  0  0  0  0  0  0  0  0  0
    5.3191   -4.4978   -1.2330 H   0  0  0  0  0  0  0  0  0  0  0  0
    1.8702   -3.7258   -1.3303 H   0  0  0  0  0  0  0  0  0  0  0  0
    2.4182   -2.0867   -1.5457 H   0  0  0  0  0  0  0  0  0  0  0  0
    3.3267   -4.3611   -2.7893 H   0  0  0  0  0  0  0  0  0  0  0  0
    5.2454   -1.6107   -0.3136 H   0  0  0  0  0  0  0  0  0  0  0  0
    3.6431   -1.0985   -0.0139 H   0  0  0  0  0  0  0  0  0  0  0  0
    5.3316   -0.9320    1.9986 H   0  0  0  0  0  0  0  0  0  0  0  0
    3.7082   -1.3650    2.2942 H   0  0  0  0  0  0  0  0  0  0  0  0
    6.1890   -2.8146    3.1202 H   0  0  0  0  0  0  0  0  0  0  0  0
    3.6234   -2.8010    4.0849 H   0  0  0  0  0  0  0  0  0  0  0  0
    3.9465   -4.4710    2.8008 H   0  0  0  0  0  0  0  0  0  0  0  0
    2.9185   -3.1935    1.4834 H   0  0  0  0  0  0  0  0  0  0  0  0
    2.3598   -7.4485    3.2706 H   0  0  0  0  0  0  0  0  0  0  0  0
    3.0912   -7.5852    1.7270 H   0  0  0  0  0  0  0  0  0  0  0  0
    4.2299   -6.0937    4.1977 H   0  0  0  0  0  0  0  0  0  0  0  0
    5.0054   -8.4435    2.8961 H   0  0  0  0  0  0  0  0  0  0  0  0
  1  2  1  0
  1 26  1  0
  1 27  1  0
  1 28  1  0
  2  3  1  0
 18  3  1  6
  3  4  1  0
  3 29  1  1
  4  5  1  0
  4 30  1  0
  4 31  1  0
  6  5  1  1
  5 32  1  0
  5 33  1  0
  6 17  1  0
  6 24  1  0
  6  7  1  0
  7  8  1  0
  7 34  1  0
  7 35  1  0
  8  9  1  0
  8 36  1  0
  8 37  1  0
  9 18  1  0
  9 10  1  0
  9 38  1  6
 10 19  1  0
 10 11  1  6
 10 13  1  0
 11 12  1  0
 11 39  1  0
 11 40  1  0
 12 41  1  0
 13 14  1  0
 13 42  1  0
 13 43  1  0
 14 15  1  0
 14 44  1  0
 14 45  1  0
 15 16  1  0
 15 17  1  0
 15 46  1  1
 16 47  1  0
 17 18  1  0
 17 48  1  6
 18 19  1  0
 19 20  1  0
 19 49  1  1
 20 21  1  0
 21 22  2  0
 21 23  1  0
 23 24  1  0
 23 50  1  0
 23 51  1  0
 24 25  1  0
 24 52  1  1
 25 53  1  0
M  END
>  <i_m_ct_stereo_status>  (34) 
1

>  <s_m_source_file>  (34) 
/var/tmp/pbs.5076255.sched01/tmp5vb4dkz1/0x5hafel7.sdf

>  <i_m_source_file_index>  (34) 
13

>  <i_lp_mmshare_version>  (34) 
48012

>  <i_f3d_flags>  (34) 
0

>  <s_epik_input>  (34) 
W0NIM11PW0NASF0oW0NIMl1bQ0gyXTEpQzIoW0NIXTNbQ0BdMTQ1KVtDQEBIXShbQ0gyXVtDSDJdNClbQ0BdKFtDSDJdW09IXSkoW0NIMl1bQ0gyXVtDQEhdM1tPSF0pW0NASF0yT0MoPU8pW0NIMl1bQ0BIXTVbT0hd

>  <s_epik_cmdline>  (34) 
J2VwaWtfcHl0aG9uJywgJy1waHQnLCAnMi4wJywgJy1waCcsICc3LjAnLCAnLXRuJywgJzgnLCAnLW1hJywgJzIwMCcsICctaW1hZScsICc8aW5maWxlLm1hZT4nLCAnLW9tYWUnLCAnPG91dGZpbGUubWFlPic=

>  <r_lp_tautomer_probability>  (34) 
1

>  <r_epik_Ionization_Penalty>  (34) 
1.49678e-06

>  <r_epik_Ionization_Penalty_Charging>  (34) 
0

>  <r_epik_Ionization_Penalty_Neutral>  (34) 
1.49678e-06

>  <r_epik_State_Penalty>  (34) 
-0

>  <r_epik_Charging_Adjusted_Penalty>  (34) 
0

>  <i_epik_Tot_Q>  (34) 
0

>  <i_epik_Tot_abs_Q>  (34) 
0

>  <s_epik_Chemistry_Notes>  (34) 
This compound has an ester and may undergo hydrolysis at high or low pH.

>  <s_lp_Force_Field>  (34) 
OPLS3e

>  <r_lp_Energy>  (34) 
332.076

>  <b_lp_Chiralities_Consistent>  (34) 
1

>  <s_lp_Variant>  (34) 
9:0-1

>  <s_i_glide_gridfile>  (34) 
pfpi4k_grid

>  <i_i_glide_lignum>  (34) 
13

>  <i_i_glide_rotatable_bonds>  (34) 
5

>  <r_i_docking_score>  (34) 
-3.3654

>  <r_i_glide_ligand_efficiency>  (34) 
-0.134616

>  <r_i_glide_ligand_efficiency_sa>  (34) 
-0.39362

>  <r_i_glide_ligand_efficiency_ln>  (34) 
-0.797702

>  <r_i_glide_gscore>  (34) 
-3.3654

>  <r_i_glide_lipo>  (34) 
-0.516654

>  <r_i_glide_hbond>  (34) 
-0.336342

>  <r_i_glide_metal>  (34) 
-0

>  <r_i_glide_rewards>  (34) 
-1.00621

>  <r_i_glide_evdw>  (34) 
-15.399

>  <r_i_glide_ecoul>  (34) 
-5.7731

>  <r_i_glide_erotb>  (34) 
0.153659

>  <r_i_glide_esite>  (34) 
-0.0239411

>  <r_i_glide_emodel>  (34) 
-24.3327

>  <r_i_glide_energy>  (34) 
-21.1721

>  <r_i_glide_einternal>  (34) 
2.3116

>  <r_i_glide_intrahb_reward>  (34) 
-0

>  <i_i_glide_confnum>  (34) 
4

>  <i_i_glide_posenum>  (34) 
34

>  <r_i_glide_eff_state_penalty>  (34) 
0

>  <ligand_id>  (34) 
9

>  <original_smiles>  (34) 
COC1CCC23CCC4C5(CO)CCC(O)C2C14C5OC(=O)CC3O

>  <smiles>  (34) 
[H]OC([H])([H])C12C([H])([H])C([H])([H])C([H])(O[H])C3([H])C45C([H])([H])C([H])([H])C([H])(OC([H])([H])[H])C3(C1([H])OC(=O)C([H])([H])C4([H])O[H])C2([H])C([H])([H])C5([H])[H]

$$$$
9:0:1
     RDKit          3D

 53 57  0  0  1  0  0  0  0  0999 V2000
    6.3335   -2.2699   -1.3144 C   0  0  0  0  0  0  0  0  0  0  0  0
    6.7818   -3.3667   -0.5182 O   0  0  0  0  0  0  0  0  0  0  0  0
    6.2040   -3.5647    0.7955 C   0  0  2  0  0  0  0  0  0  0  0  0
    7.2193   -4.5123    1.5870 C   0  0  0  0  0  0  0  0  0  0  0  0
    6.6480   -5.4895    2.7063 C   0  0  0  0  0  0  0  0  0  0  0  0
    5.2093   -5.8995    2.3489 C   0  0  2  0  0  0  0  0  0  0  0  0
    5.2860   -6.7068    0.9506 C   0  0  0  0  0  0  0  0  0  0  0  0
    4.3927   -6.2329   -0.2631 C   0  0  0  0  0  0  0  0  0  0  0  0
    4.3632   -4.6965   -0.3905 C   0  0  1  0  0  0  0  0  0  0  0  0
    3.3613   -3.3919   -0.3060 C   0  0  2  0  0  0  0  0  0  0  0  0
    2.3168   -3.2784   -1.4007 C   0  0  0  0  0  0  0  0  0  0  0  0
    2.6545   -2.2472   -2.3163 O   0  0  0  0  0  0  0  0  0  0  0  0
    3.7126   -1.9180    0.4006 C   0  0  0  0  0  0  0  0  0  0  0  0
    4.0739   -1.8304    2.0120 C   0  0  0  0  0  0  0  0  0  0  0  0
    4.7304   -3.0259    2.9536 C   0  0  1  0  0  0  0  0  0  0  0  0
    4.1425   -2.8939    4.2351 O   0  0  0  0  0  0  0  0  0  0  0  0
    4.5670   -4.4928    2.3273 C   0  0  1  0  0  0  0  0  0  0  0  0
    4.6911   -4.1819    0.9352 C   0  0  1  0  0  0  0  0  0  0  0  0
    3.0386   -4.0777    0.8773 C   0  0  2  0  0  0  0  0  0  0  0  0
    2.1845   -5.2777    0.9086 O   0  0  0  0  0  0  0  0  0  0  0  0
    1.8716   -5.9893    2.0661 C   0  0  0  0  0  0  0  0  0  0  0  0
    0.7991   -5.8276    2.6548 O   0  0  0  0  0  0  0  0  0  0  0  0
    2.8643   -7.1012    2.5516 C   0  0  0  0  0  0  0  0  0  0  0  0
    4.2546   -6.7456    3.2543 C   0  0  1  0  0  0  0  0  0  0  0  0
    4.8788   -7.9650    3.6115 O   0  0  0  0  0  0  0  0  0  0  0  0
    6.8302   -2.1509   -2.2497 H   0  0  0  0  0  0  0  0  0  0  0  0
    6.4334   -1.3198   -0.7593 H   0  0  0  0  0  0  0  0  0  0  0  0
    5.2772   -2.3710   -1.5799 H   0  0  0  0  0  0  0  0  0  0  0  0
    6.3275   -2.5670    1.2131 H   0  0  0  0  0  0  0  0  0  0  0  0
    7.7639   -5.1226    0.8673 H   0  0  0  0  0  0  0  0  0  0  0  0
    8.0151   -3.9120    2.0097 H   0  0  0  0  0  0  0  0  0  0  0  0
    7.2907   -6.3610    2.8308 H   0  0  0  0  0  0  0  0  0  0  0  0
    6.6214   -5.0141    3.6843 H   0  0  0  0  0  0  0  0  0  0  0  0
    6.3011   -6.6700    0.5691 H   0  0  0  0  0  0  0  0  0  0  0  0
    5.1535   -7.7823    1.0955 H   0  0  0  0  0  0  0  0  0  0  0  0
    4.8346   -6.6551   -1.1511 H   0  0  0  0  0  0  0  0  0  0  0  0
    3.4176   -6.6841   -0.2868 H   0  0  0  0  0  0  0  0  0  0  0  0
    5.0230   -4.4978   -1.2304 H   0  0  0  0  0  0  0  0  0  0  0  0
    2.1828   -4.2076   -1.9438 H   0  0  0  0  0  0  0  0  0  0  0  0
    1.3394   -3.0507   -0.9761 H   0  0  0  0  0  0  0  0  0  0  0  0
    2.1467   -1.4990   -2.0443 H   0  0  0  0  0  0  0  0  0  0  0  0
    4.5056   -1.3776   -0.0584 H   0  0  0  0  0  0  0  0  0  0  0  0
    2.8882   -1.2300    0.1864 H   0  0  0  0  0  0  0  0  0  0  0  0
    4.7426   -0.9724    2.1192 H   0  0  0  0  0  0  0  0  0  0  0  0
    3.1494   -1.4907    2.4903 H   0  0  0  0  0  0  0  0  0  0  0  0
    5.7826   -2.8221    3.1787 H   0  0  0  0  0  0  0  0  0  0  0  0
    4.3142   -2.0159    4.5293 H   0  0  0  0  0  0  0  0  0  0  0  0
    3.6303   -4.6047    2.8469 H   0  0  0  0  0  0  0  0  0  0  0  0
    2.5049   -3.4231    1.5730 H   0  0  0  0  0  0  0  0  0  0  0  0
    2.2940   -7.7095    3.2522 H   0  0  0  0  0  0  0  0  0  0  0  0
    3.0299   -7.7649    1.7028 H   0  0  0  0  0  0  0  0  0  0  0  0
    4.0631   -6.2345    4.2008 H   0  0  0  0  0  0  0  0  0  0  0  0
    4.2911   -8.4709    4.1483 H   0  0  0  0  0  0  0  0  0  0  0  0
  1  2  1  0
  1 26  1  0
  1 27  1  0
  1 28  1  0
  2  3  1  0
 18  3  1  6
  3  4  1  0
  3 29  1  1
  4  5  1  0
  4 30  1  0
  4 31  1  0
  6  5  1  1
  5 32  1  0
  5 33  1  0
  6 17  1  0
  6 24  1  0
  6  7  1  0
  7  8  1  0
  7 34  1  0
  7 35  1  0
  8  9  1  0
  8 36  1  0
  8 37  1  0
  9 18  1  0
  9 10  1  0
  9 38  1  6
 10 19  1  0
 10 11  1  6
 10 13  1  0
 11 12  1  0
 11 39  1  0
 11 40  1  0
 12 41  1  0
 13 14  1  0
 13 42  1  0
 13 43  1  0
 14 15  1  0
 14 44  1  0
 14 45  1  0
 15 16  1  0
 15 17  1  0
 15 46  1  1
 16 47  1  0
 17 18  1  0
 17 48  1  6
 18 19  1  0
 19 20  1  0
 19 49  1  1
 20 21  1  0
 21 22  2  0
 21 23  1  0
 23 24  1  0
 23 50  1  0
 23 51  1  0
 24 25  1  0
 24 52  1  1
 25 53  1  0
M  END
>  <i_m_ct_stereo_status>  (35) 
1

>  <s_m_source_file>  (35) 
/var/tmp/pbs.5076255.sched01/tmp5vb4dkz1/0x5hafel7.sdf

>  <i_m_source_file_index>  (35) 
13

>  <i_lp_mmshare_version>  (35) 
48012

>  <i_f3d_flags>  (35) 
0

>  <s_epik_input>  (35) 
W0NIM11PW0NASF0oW0NIMl1bQ0gyXTEpQzIoW0NIXTNbQ0BdMTQ1KVtDQEBIXShbQ0gyXVtDSDJdNClbQ0BdKFtDSDJdW09IXSkoW0NIMl1bQ0gyXVtDQEhdM1tPSF0pW0NASF0yT0MoPU8pW0NIMl1bQ0BIXTVbT0hd

>  <s_epik_cmdline>  (35) 
J2VwaWtfcHl0aG9uJywgJy1waHQnLCAnMi4wJywgJy1waCcsICc3LjAnLCAnLXRuJywgJzgnLCAnLW1hJywgJzIwMCcsICctaW1hZScsICc8aW5maWxlLm1hZT4nLCAnLW9tYWUnLCAnPG91dGZpbGUubWFlPic=

>  <r_lp_tautomer_probability>  (35) 
1

>  <r_epik_Ionization_Penalty>  (35) 
1.49678e-06

>  <r_epik_Ionization_Penalty_Charging>  (35) 
0

>  <r_epik_Ionization_Penalty_Neutral>  (35) 
1.49678e-06

>  <r_epik_State_Penalty>  (35) 
-0

>  <r_epik_Charging_Adjusted_Penalty>  (35) 
0

>  <i_epik_Tot_Q>  (35) 
0

>  <i_epik_Tot_abs_Q>  (35) 
0

>  <s_epik_Chemistry_Notes>  (35) 
This compound has an ester and may undergo hydrolysis at high or low pH.

>  <s_lp_Force_Field>  (35) 
OPLS3e

>  <r_lp_Energy>  (35) 
332.076

>  <b_lp_Chiralities_Consistent>  (35) 
1

>  <s_lp_Variant>  (35) 
9:0-1

>  <s_i_glide_gridfile>  (35) 
pfpi4k_grid

>  <i_i_glide_lignum>  (35) 
13

>  <i_i_glide_rotatable_bonds>  (35) 
5

>  <r_i_docking_score>  (35) 
-2.82486

>  <r_i_glide_ligand_efficiency>  (35) 
-0.112994

>  <r_i_glide_ligand_efficiency_sa>  (35) 
-0.330398

>  <r_i_glide_ligand_efficiency_ln>  (35) 
-0.669576

>  <r_i_glide_gscore>  (35) 
-2.82486

>  <r_i_glide_lipo>  (35) 
-0.470529

>  <r_i_glide_hbond>  (35) 
-0.175878

>  <r_i_glide_metal>  (35) 
-0

>  <r_i_glide_rewards>  (35) 
-1.00621

>  <r_i_glide_evdw>  (35) 
-14.3437

>  <r_i_glide_ecoul>  (35) 
-3.84842

>  <r_i_glide_erotb>  (35) 
0.153659

>  <r_i_glide_esite>  (35) 
-0.0314501

>  <r_i_glide_emodel>  (35) 
-18.1664

>  <r_i_glide_energy>  (35) 
-18.1921

>  <r_i_glide_einternal>  (35) 
3.10046

>  <r_i_glide_intrahb_reward>  (35) 
-0

>  <i_i_glide_confnum>  (35) 
1

>  <i_i_glide_posenum>  (35) 
29

>  <r_i_glide_eff_state_penalty>  (35) 
0

>  <ligand_id>  (35) 
9

>  <original_smiles>  (35) 
COC1CCC23CCC4C5(CO)CCC(O)C2C14C5OC(=O)CC3O

>  <smiles>  (35) 
[H]OC([H])([H])C12C([H])([H])C([H])([H])C([H])(O[H])C3([H])C45C([H])([H])C([H])([H])C([H])(OC([H])([H])[H])C3(C1([H])OC(=O)C([H])([H])C4([H])O[H])C2([H])C([H])([H])C5([H])[H]

$$$$
9:0:2
     RDKit          3D

 53 57  0  0  1  0  0  0  0  0999 V2000
    4.9699   -3.7317    4.2954 C   0  0  0  0  0  0  0  0  0  0  0  0
    4.7682   -2.5164    3.5620 O   0  0  0  0  0  0  0  0  0  0  0  0
    5.5279   -2.2965    2.3436 C   0  0  2  0  0  0  0  0  0  0  0  0
    5.5046   -0.7236    2.0908 C   0  0  0  0  0  0  0  0  0  0  0  0
    5.5801   -0.2057    0.5997 C   0  0  0  0  0  0  0  0  0  0  0  0
    4.9544   -1.2241   -0.3598 C   0  0  2  0  0  0  0  0  0  0  0  0
    3.4074   -1.3676    0.0583 C   0  0  0  0  0  0  0  0  0  0  0  0
    2.7749   -2.7843    0.3651 C   0  0  0  0  0  0  0  0  0  0  0  0
    3.7813   -3.6322    1.2033 C   0  0  1  0  0  0  0  0  0  0  0  0
    4.7223   -4.9980    1.1926 C   0  0  2  0  0  0  0  0  0  0  0  0
    3.9742   -6.3305    1.1444 C   0  0  0  0  0  0  0  0  0  0  0  0
    3.4973   -6.6717    2.4235 O   0  0  0  0  0  0  0  0  0  0  0  0
    6.2702   -5.1745    1.7655 C   0  0  0  0  0  0  0  0  0  0  0  0
    7.4955   -4.2548    1.1658 C   0  0  0  0  0  0  0  0  0  0  0  0
    7.3626   -2.7550    0.4553 C   0  0  1  0  0  0  0  0  0  0  0  0
    8.3278   -2.6882   -0.5840 O   0  0  0  0  0  0  0  0  0  0  0  0
    5.8819   -2.4091   -0.0322 C   0  0  1  0  0  0  0  0  0  0  0  0
    5.1126   -3.0644    0.9673 C   0  0  1  0  0  0  0  0  0  0  0  0
    5.0780   -4.3836   -0.0278 C   0  0  2  0  0  0  0  0  0  0  0  0
    4.2229   -4.3360   -1.2213 O   0  0  0  0  0  0  0  0  0  0  0  0
    4.5535   -3.7437   -2.4317 C   0  0  0  0  0  0  0  0  0  0  0  0
    4.9599   -4.3169   -3.3895 O   0  0  0  0  0  0  0  0  0  0  0  0
    4.1279   -2.2866   -2.6258 C   0  0  0  0  0  0  0  0  0  0  0  0
    4.9527   -1.1506   -1.9354 C   0  0  1  0  0  0  0  0  0  0  0  0
    4.3756   -0.0185   -2.5258 O   0  0  0  0  0  0  0  0  0  0  0  0
    4.4206   -3.8445    5.2025 H   0  0  0  0  0  0  0  0  0  0  0  0
    6.0246   -3.8890    4.5318 H   0  0  0  0  0  0  0  0  0  0  0  0
    4.6337   -4.5963    3.7219 H   0  0  0  0  0  0  0  0  0  0  0  0
    6.5269   -2.5164    2.6683 H   0  0  0  0  0  0  0  0  0  0  0  0
    4.6062   -0.3121    2.5299 H   0  0  0  0  0  0  0  0  0  0  0  0
    6.2941   -0.2684    2.6692 H   0  0  0  0  0  0  0  0  0  0  0  0
    5.0737    0.7497    0.5063 H   0  0  0  0  0  0  0  0  0  0  0  0
    6.6158   -0.0202    0.3202 H   0  0  0  0  0  0  0  0  0  0  0  0
    3.2071   -0.7715    0.9392 H   0  0  0  0  0  0  0  0  0  0  0  0
    2.7929   -0.8530   -0.6647 H   0  0  0  0  0  0  0  0  0  0  0  0
    1.8684   -2.5956    0.9484 H   0  0  0  0  0  0  0  0  0  0  0  0
    2.3609   -3.2807   -0.5113 H   0  0  0  0  0  0  0  0  0  0  0  0
    3.3779   -3.5997    2.1996 H   0  0  0  0  0  0  0  0  0  0  0  0
    3.1047   -6.2799    0.4773 H   0  0  0  0  0  0  0  0  0  0  0  0
    4.6034   -7.1290    0.7610 H   0  0  0  0  0  0  0  0  0  0  0  0
    4.2318   -6.8443    2.9892 H   0  0  0  0  0  0  0  0  0  0  0  0
    6.4222   -5.0398    2.8051 H   0  0  0  0  0  0  0  0  0  0  0  0
    6.5424   -6.2391    1.7292 H   0  0  0  0  0  0  0  0  0  0  0  0
    8.2229   -4.1526    1.9687 H   0  0  0  0  0  0  0  0  0  0  0  0
    8.0242   -4.9184    0.4675 H   0  0  0  0  0  0  0  0  0  0  0  0
    7.7218   -1.9650    1.1108 H   0  0  0  0  0  0  0  0  0  0  0  0
    8.1971   -3.4152   -1.1746 H   0  0  0  0  0  0  0  0  0  0  0  0
    6.1442   -2.8295   -0.9853 H   0  0  0  0  0  0  0  0  0  0  0  0
    5.9986   -4.8255   -0.4215 H   0  0  0  0  0  0  0  0  0  0  0  0
    4.1820   -2.1217   -3.6996 H   0  0  0  0  0  0  0  0  0  0  0  0
    3.0690   -2.2132   -2.3919 H   0  0  0  0  0  0  0  0  0  0  0  0
    5.9737   -1.1398   -2.3103 H   0  0  0  0  0  0  0  0  0  0  0  0
    3.5024    0.0977   -2.1809 H   0  0  0  0  0  0  0  0  0  0  0  0
  1  2  1  0
  1 26  1  0
  1 27  1  0
  1 28  1  0
  2  3  1  0
 18  3  1  1
  3  4  1  0
  3 29  1  1
  4  5  1  0
  4 30  1  0
  4 31  1  0
  6  5  1  1
  5 32  1  0
  5 33  1  0
  6 17  1  0
  6 24  1  0
  6  7  1  0
  7  8  1  0
  7 34  1  0
  7 35  1  0
  8  9  1  0
  8 36  1  0
  8 37  1  0
  9 18  1  0
  9 10  1  0
  9 38  1  1
 10 19  1  0
 10 11  1  6
 10 13  1  0
 11 12  1  0
 11 39  1  0
 11 40  1  0
 12 41  1  0
 13 14  1  0
 13 42  1  0
 13 43  1  0
 14 15  1  0
 14 44  1  0
 14 45  1  0
 15 16  1  0
 15 17  1  0
 15 46  1  1
 16 47  1  0
 17 18  1  0
 17 48  1  6
 18 19  1  0
 19 20  1  0
 19 49  1  6
 20 21  1  0
 21 22  2  0
 21 23  1  0
 23 24  1  0
 23 50  1  0
 23 51  1  0
 24 25  1  0
 24 52  1  6
 25 53  1  0
M  END
>  <i_m_ct_stereo_status>  (36) 
1

>  <s_m_source_file>  (36) 
/var/tmp/pbs.5076255.sched01/tmp5vb4dkz1/0x5hafel7.sdf

>  <i_m_source_file_index>  (36) 
13

>  <i_lp_mmshare_version>  (36) 
48012

>  <i_f3d_flags>  (36) 
0

>  <s_epik_input>  (36) 
W0NIM11PW0NASF0oW0NIMl1bQ0gyXTEpQzIoW0NIXTNbQ0BdMTQ1KVtDQEBIXShbQ0gyXVtDSDJdNClbQ0BdKFtDSDJdW09IXSkoW0NIMl1bQ0gyXVtDQEhdM1tPSF0pW0NASF0yT0MoPU8pW0NIMl1bQ0BIXTVbT0hd

>  <s_epik_cmdline>  (36) 
J2VwaWtfcHl0aG9uJywgJy1waHQnLCAnMi4wJywgJy1waCcsICc3LjAnLCAnLXRuJywgJzgnLCAnLW1hJywgJzIwMCcsICctaW1hZScsICc8aW5maWxlLm1hZT4nLCAnLW9tYWUnLCAnPG91dGZpbGUubWFlPic=

>  <r_lp_tautomer_probability>  (36) 
1

>  <r_epik_Ionization_Penalty>  (36) 
1.49678e-06

>  <r_epik_Ionization_Penalty_Charging>  (36) 
0

>  <r_epik_Ionization_Penalty_Neutral>  (36) 
1.49678e-06

>  <r_epik_State_Penalty>  (36) 
-0

>  <r_epik_Charging_Adjusted_Penalty>  (36) 
0

>  <i_epik_Tot_Q>  (36) 
0

>  <i_epik_Tot_abs_Q>  (36) 
0

>  <s_epik_Chemistry_Notes>  (36) 
This compound has an ester and may undergo hydrolysis at high or low pH.

>  <s_lp_Force_Field>  (36) 
OPLS3e

>  <r_lp_Energy>  (36) 
332.076

>  <b_lp_Chiralities_Consistent>  (36) 
1

>  <s_lp_Variant>  (36) 
9:0-1

>  <s_i_glide_gridfile>  (36) 
pfpi4k_grid

>  <i_i_glide_lignum>  (36) 
13

>  <i_i_glide_rotatable_bonds>  (36) 
5

>  <r_i_docking_score>  (36) 
-2.3135

>  <r_i_glide_ligand_efficiency>  (36) 
-0.0925401

>  <r_i_glide_ligand_efficiency_sa>  (36) 
-0.270589

>  <r_i_glide_ligand_efficiency_ln>  (36) 
-0.548369

>  <r_i_glide_gscore>  (36) 
-2.3135

>  <r_i_glide_lipo>  (36) 
-0.942295

>  <r_i_glide_hbond>  (36) 
-0.0131007

>  <r_i_glide_metal>  (36) 
-0

>  <r_i_glide_rewards>  (36) 
-1.00621

>  <r_i_glide_evdw>  (36) 
-9.63634

>  <r_i_glide_ecoul>  (36) 
-0.0306849

>  <r_i_glide_erotb>  (36) 
0.153659

>  <r_i_glide_esite>  (36) 
-0.0191322

>  <r_i_glide_emodel>  (36) 
-8.87318

>  <r_i_glide_energy>  (36) 
-9.66703

>  <r_i_glide_einternal>  (36) 
0.657309

>  <r_i_glide_intrahb_reward>  (36) 
-0

>  <i_i_glide_confnum>  (36) 
1

>  <i_i_glide_posenum>  (36) 
32

>  <r_i_glide_eff_state_penalty>  (36) 
0

>  <ligand_id>  (36) 
9

>  <original_smiles>  (36) 
COC1CCC23CCC4C5(CO)CCC(O)C2C14C5OC(=O)CC3O

>  <smiles>  (36) 
[H]OC([H])([H])C12C([H])([H])C([H])([H])C([H])(O[H])C3([H])C45C([H])([H])C([H])([H])C([H])(OC([H])([H])[H])C3(C1([H])OC(=O)C([H])([H])C4([H])O[H])C2([H])C([H])([H])C5([H])[H]

$$$$
11:0:0
     RDKit          3D

 55 59  0  0  1  0  0  0  0  0999 V2000
    4.7992   -4.5748   -0.9548 C   0  0  0  0  0  0  0  0  0  0  0  0
    4.6494   -4.0423    0.4142 N   0  0  2  0  0  0  0  0  0  0  0  0
    4.4615   -2.5577    0.4144 C   0  0  0  0  0  0  0  0  0  0  0  0
    4.3057   -1.9686    1.8578 C   0  0  1  0  0  0  0  0  0  0  0  0
    2.8016   -1.9055    2.2270 C   0  0  0  0  0  0  0  0  0  0  0  0
    2.2272   -2.9778    2.4057 O   0  0  0  0  0  0  0  0  0  0  0  0
    2.1306   -0.7204    2.3032 N   0  0  0  0  0  0  0  0  0  0  0  0
    0.6899   -0.6720    2.5937 C   0  0  0  0  0  0  0  0  0  0  0  0
    0.4104    0.1996    3.8326 C   0  0  0  0  0  0  0  0  0  0  0  0
    1.0408    1.5184    3.6971 N   0  0  0  0  0  0  0  0  0  0  0  0
    0.3127    2.7137    3.6598 C   0  0  0  0  0  0  0  0  0  0  0  0
   -1.0941    2.7519    3.5197 C   0  0  0  0  0  0  0  0  0  0  0  0
   -1.6944    4.0191    3.5168 C   0  0  0  0  0  0  0  0  0  0  0  0
   -0.9861    5.1485    3.6822 N   0  0  0  0  0  0  0  0  0  0  0  0
    0.3352    5.0148    3.7762 C   0  0  0  0  0  0  0  0  0  0  0  0
    1.0096    3.8674    3.8129 N   0  0  0  0  0  0  0  0  0  0  0  0
    2.4542    1.4927    3.3273 C   0  0  0  0  0  0  0  0  0  0  0  0
    2.6648    0.6378    2.0702 C   0  0  0  0  0  0  0  0  0  0  0  0
    5.1782   -2.7013    2.9232 C   0  0  0  0  0  0  0  0  0  0  0  0
    5.1085   -4.1663    2.6178 C   0  0  2  0  0  0  0  0  0  0  0  0
    6.0406   -5.3041    2.3560 C   0  0  1  0  0  0  0  0  0  0  0  0
    5.6025   -6.7387    2.2201 C   0  0  0  0  0  0  0  0  0  0  0  0
    4.4505   -7.2454    2.8540 C   0  0  0  0  0  0  0  0  0  0  0  0
    4.1121   -8.5958    2.6678 C   0  0  0  0  0  0  0  0  0  0  0  0
    4.9456   -9.3958    1.8701 C   0  0  0  0  0  0  0  0  0  0  0  0
    6.0928   -8.8144    1.3027 C   0  0  0  0  0  0  0  0  0  0  0  0
    6.4143   -7.5085    1.4600 N   0  0  0  0  0  0  0  0  0  0  0  0
    5.8342   -4.3004    1.2624 C   0  0  1  0  0  0  0  0  0  0  0  0
    5.6819   -4.1702   -1.4481 H   0  0  0  0  0  0  0  0  0  0  0  0
    3.9334   -4.2925   -1.5548 H   0  0  0  0  0  0  0  0  0  0  0  0
    4.8813   -5.6644   -0.9393 H   0  0  0  0  0  0  0  0  0  0  0  0
    5.3314   -2.0878   -0.0445 H   0  0  0  0  0  0  0  0  0  0  0  0
    3.6264   -2.2631   -0.2180 H   0  0  0  0  0  0  0  0  0  0  0  0
    4.7843   -0.9853    1.8172 H   0  0  0  0  0  0  0  0  0  0  0  0
    0.1723   -0.2594    1.7273 H   0  0  0  0  0  0  0  0  0  0  0  0
    0.2465   -1.6471    2.7876 H   0  0  0  0  0  0  0  0  0  0  0  0
   -0.6607    0.2516    4.0424 H   0  0  0  0  0  0  0  0  0  0  0  0
    0.8540   -0.2720    4.7066 H   0  0  0  0  0  0  0  0  0  0  0  0
   -1.7050    1.8756    3.3787 H   0  0  0  0  0  0  0  0  0  0  0  0
   -2.7623    4.1342    3.4159 H   0  0  0  0  0  0  0  0  0  0  0  0
    0.9107    5.9103    3.9147 H   0  0  0  0  0  0  0  0  0  0  0  0
    2.8684    2.4835    3.1432 H   0  0  0  0  0  0  0  0  0  0  0  0
    3.0052    1.0742    4.1670 H   0  0  0  0  0  0  0  0  0  0  0  0
    3.7255    0.7408    1.8314 H   0  0  0  0  0  0  0  0  0  0  0  0
    2.1395    1.0703    1.2148 H   0  0  0  0  0  0  0  0  0  0  0  0
    6.2107   -2.3543    2.8403 H   0  0  0  0  0  0  0  0  0  0  0  0
    4.8171   -2.5011    3.9351 H   0  0  0  0  0  0  0  0  0  0  0  0
    4.1050   -4.5337    2.7699 H   0  0  0  0  0  0  0  0  0  0  0  0
    6.9859   -5.2827    2.8924 H   0  0  0  0  0  0  0  0  0  0  0  0
    3.8370   -6.6183    3.4845 H   0  0  0  0  0  0  0  0  0  0  0  0
    3.2224   -9.0040    3.1256 H   0  0  0  0  0  0  0  0  0  0  0  0
    4.7092  -10.4365    1.6918 H   0  0  0  0  0  0  0  0  0  0  0  0
    6.7526   -9.4052    0.6864 H   0  0  0  0  0  0  0  0  0  0  0  0
    6.6852   -3.6745    1.0155 H   0  0  0  0  0  0  0  0  0  0  0  0
    3.8310   -4.4441    0.8204 H   0  0  0  0  0  0  0  0  0  0  0  0
  1  2  1  0
  1 29  1  0
  1 30  1  0
  1 31  1  0
  2 28  1  0
  2  3  1  0
  2 55  1  1
  3  4  1  0
  3 32  1  0
  3 33  1  0
  4  5  1  0
  4 19  1  0
  4 34  1  6
  5  6  2  0
  5  7  1  0
  7 18  1  0
  7  8  1  0
  8  9  1  0
  8 35  1  0
  8 36  1  0
  9 10  1  0
  9 37  1  0
  9 38  1  0
 10 11  1  0
 10 17  1  0
 11 16  1  0
 11 12  2  0
 12 13  1  0
 12 39  1  0
 13 14  2  0
 13 40  1  0
 14 15  1  0
 15 16  2  0
 15 41  1  0
 17 18  1  0
 17 42  1  0
 17 43  1  0
 18 44  1  0
 18 45  1  0
 19 20  1  0
 19 46  1  0
 19 47  1  0
 20 28  1  0
 20 21  1  0
 20 48  1  6
 21 22  1  0
 21 28  1  0
 21 49  1  1
 22 27  1  0
 22 23  2  0
 23 24  1  0
 23 50  1  0
 24 25  2  0
 24 51  1  0
 25 26  1  0
 25 52  1  0
 26 27  2  0
 26 53  1  0
 28 54  1  1
M  CHG  1   2   1
M  END
>  <i_m_ct_stereo_status>  (37) 
1

>  <s_m_source_file>  (37) 
/var/tmp/pbs.5076255.sched01/tmp5vb4dkz1/0x5hafel7.sdf

>  <i_m_source_file_index>  (37) 
16

>  <i_lp_mmshare_version>  (37) 
48012

>  <i_f3d_flags>  (37) 
0

>  <s_epik_input>  (37) 
bjFbY0hdW2NIXVtjSF1bY0hdYzFbQ0BIXTJbQ0BIXShbQ0BASF0yMylOKFtDSDNdKVtDSDJdW0NASF0oW0NIMl0zKUMoPU8pTjRbQ0gyXVtDSDJdTihbQ0gyXVtDSDJdNCljNVtjSF1bY0hdbltjSF1uNQ==

>  <s_epik_cmdline>  (37) 
J2VwaWtfcHl0aG9uJywgJy1waHQnLCAnMi4wJywgJy1waCcsICc3LjAnLCAnLXRuJywgJzgnLCAnLW1hJywgJzIwMCcsICctaW1hZScsICc8aW5maWxlLm1hZT4nLCAnLW9tYWUnLCAnPG91dGZpbGUubWFlPic=

>  <r_lp_tautomer_probability>  (37) 
1

>  <r_epik_Ionization_Penalty>  (37) 
0.424176

>  <r_epik_Ionization_Penalty_Charging>  (37) 
0.368183

>  <r_epik_Ionization_Penalty_Neutral>  (37) 
0.0559925

>  <r_epik_State_Penalty>  (37) 
0.422163

>  <r_epik_Charging_Adjusted_Penalty>  (37) 
0.790346

>  <i_epik_Tot_Q>  (37) 
1

>  <i_epik_Tot_abs_Q>  (37) 
1

>  <s_lp_Force_Field>  (37) 
OPLS3e

>  <r_lp_Energy>  (37) 
95.1598

>  <b_lp_Chiralities_Consistent>  (37) 
1

>  <s_lp_Variant>  (37) 
11:0-1

>  <s_i_glide_gridfile>  (37) 
pfpi4k_grid

>  <i_i_glide_lignum>  (37) 
16

>  <i_i_glide_rotatable_bonds>  (37) 
4

>  <r_i_docking_score>  (37) 
-3.09542

>  <r_i_glide_ligand_efficiency>  (37) 
-0.110551

>  <r_i_glide_ligand_efficiency_sa>  (37) 
-0.335697

>  <r_i_glide_ligand_efficiency_ln>  (37) 
-0.714513

>  <r_i_glide_gscore>  (37) 
-3.09542

>  <r_i_glide_lipo>  (37) 
-0.35796

>  <r_i_glide_hbond>  (37) 
-0.135133

>  <r_i_glide_metal>  (37) 
-0

>  <r_i_glide_rewards>  (37) 
-0.821736

>  <r_i_glide_evdw>  (37) 
-23.1414

>  <r_i_glide_ecoul>  (37) 
-6.70071

>  <r_i_glide_erotb>  (37) 
0.538604

>  <r_i_glide_esite>  (37) 
-0.157016

>  <r_i_glide_emodel>  (37) 
-35.5457

>  <r_i_glide_energy>  (37) 
-29.8421

>  <r_i_glide_einternal>  (37) 
1.001

>  <r_i_glide_intrahb_reward>  (37) 
-0

>  <i_i_glide_confnum>  (37) 
2

>  <i_i_glide_posenum>  (37) 
3

>  <r_i_glide_eff_state_penalty>  (37) 
0

>  <ligand_id>  (37) 
11

>  <original_smiles>  (37) 
CN1CC(C(=O)N2CCN(c3ccncn3)CC2)CC2C(c3ccccn3)C21

>  <smiles>  (37) 
[H]c1nc([H])c([H])c(N2C([H])([H])C([H])([H])N(C(=O)C3([H])C([H])([H])C4([H])C([H])(c5nc([H])c([H])c([H])c5[H])C4([H])[N+]([H])(C([H])([H])[H])C3([H])[H])C([H])([H])C2([H])[H])n1

$$$$
11:0:1
     RDKit          3D

 55 59  0  0  1  0  0  0  0  0999 V2000
    5.4853   -0.9360    1.6347 C   0  0  0  0  0  0  0  0  0  0  0  0
    4.1367   -1.4765    1.8894 N   0  0  2  0  0  0  0  0  0  0  0  0
    3.6857   -1.2405    3.2980 C   0  0  0  0  0  0  0  0  0  0  0  0
    2.2498   -1.8073    3.5872 C   0  0  1  0  0  0  0  0  0  0  0  0
    1.2080   -0.6885    3.3196 C   0  0  0  0  0  0  0  0  0  0  0  0
    0.8662   -0.5072    2.1530 O   0  0  0  0  0  0  0  0  0  0  0  0
    0.7374    0.0963    4.3180 N   0  0  0  0  0  0  0  0  0  0  0  0
   -0.1815    1.2205    4.0454 C   0  0  0  0  0  0  0  0  0  0  0  0
   -1.4819    1.0603    4.8625 C   0  0  0  0  0  0  0  0  0  0  0  0
   -1.1918    0.8488    6.2807 N   0  0  0  0  0  0  0  0  0  0  0  0
   -1.5870    1.7736    7.2941 C   0  0  0  0  0  0  0  0  0  0  0  0
   -2.2162    2.9987    7.0114 C   0  0  0  0  0  0  0  0  0  0  0  0
   -2.5932    3.7840    8.1208 C   0  0  0  0  0  0  0  0  0  0  0  0
   -2.3732    3.3856    9.3799 N   0  0  0  0  0  0  0  0  0  0  0  0
   -1.7627    2.2210    9.5451 C   0  0  0  0  0  0  0  0  0  0  0  0
   -1.3811    1.3923    8.5671 N   0  0  0  0  0  0  0  0  0  0  0  0
   -0.2106   -0.1983    6.5690 C   0  0  0  0  0  0  0  0  0  0  0  0
    1.0753    0.0188    5.7517 C   0  0  0  0  0  0  0  0  0  0  0  0
    1.9615   -3.1386    2.8286 C   0  0  0  0  0  0  0  0  0  0  0  0
    2.5381   -3.0059    1.4403 C   0  0  2  0  0  0  0  0  0  0  0  0
    3.4899   -3.7299    0.5460 C   0  0  1  0  0  0  0  0  0  0  0  0
    3.7367   -3.3542   -0.8881 C   0  0  0  0  0  0  0  0  0  0  0  0
    2.6855   -3.0499   -1.7777 C   0  0  0  0  0  0  0  0  0  0  0  0
    2.9924   -2.7144   -3.1043 C   0  0  0  0  0  0  0  0  0  0  0  0
    4.3376   -2.7344   -3.5054 C   0  0  0  0  0  0  0  0  0  0  0  0
    5.3164   -3.1016   -2.5584 C   0  0  0  0  0  0  0  0  0  0  0  0
    5.0320   -3.3862   -1.2706 N   0  0  0  0  0  0  0  0  0  0  0  0
    4.0536   -2.9321    1.6827 C   0  0  1  0  0  0  0  0  0  0  0  0
    6.2283   -1.4221    2.2688 H   0  0  0  0  0  0  0  0  0  0  0  0
    5.5243    0.1355    1.8402 H   0  0  0  0  0  0  0  0  0  0  0  0
    5.7732   -1.0887    0.5937 H   0  0  0  0  0  0  0  0  0  0  0  0
    4.3832   -1.7297    3.9810 H   0  0  0  0  0  0  0  0  0  0  0  0
    3.7463   -0.1828    3.5560 H   0  0  0  0  0  0  0  0  0  0  0  0
    2.2178   -2.1424    4.6215 H   0  0  0  0  0  0  0  0  0  0  0  0
    0.3126    2.1567    4.3005 H   0  0  0  0  0  0  0  0  0  0  0  0
   -0.4555    1.3230    2.9962 H   0  0  0  0  0  0  0  0  0  0  0  0
   -2.1545    1.8958    4.6591 H   0  0  0  0  0  0  0  0  0  0  0  0
   -2.0181    0.1768    4.5112 H   0  0  0  0  0  0  0  0  0  0  0  0
   -2.4096    3.3659    6.0192 H   0  0  0  0  0  0  0  0  0  0  0  0
   -3.0858    4.7352    7.9946 H   0  0  0  0  0  0  0  0  0  0  0  0
   -1.5947    1.8946   10.5534 H   0  0  0  0  0  0  0  0  0  0  0  0
    0.0608   -0.2745    7.6194 H   0  0  0  0  0  0  0  0  0  0  0  0
   -0.6676   -1.1503    6.2981 H   0  0  0  0  0  0  0  0  0  0  0  0
    1.7653   -0.7681    6.0526 H   0  0  0  0  0  0  0  0  0  0  0  0
    1.5679    0.9489    6.0473 H   0  0  0  0  0  0  0  0  0  0  0  0
    2.4453   -3.9708    3.3435 H   0  0  0  0  0  0  0  0  0  0  0  0
    0.8910   -3.3331    2.8016 H   0  0  0  0  0  0  0  0  0  0  0  0
    2.0155   -2.2462    0.8678 H   0  0  0  0  0  0  0  0  0  0  0  0
    3.4839   -4.8149    0.6238 H   0  0  0  0  0  0  0  0  0  0  0  0
    1.6568   -3.0553   -1.4512 H   0  0  0  0  0  0  0  0  0  0  0  0
    2.2125   -2.4446   -3.8052 H   0  0  0  0  0  0  0  0  0  0  0  0
    4.6108   -2.4754   -4.5112 H   0  0  0  0  0  0  0  0  0  0  0  0
    6.3593   -3.1361   -2.8382 H   0  0  0  0  0  0  0  0  0  0  0  0
    4.5291   -3.5079    2.4777 H   0  0  0  0  0  0  0  0  0  0  0  0
    3.4832   -1.0069    1.2813 H   0  0  0  0  0  0  0  0  0  0  0  0
  1  2  1  0
  1 29  1  0
  1 30  1  0
  1 31  1  0
  2 28  1  0
  2  3  1  0
  2 55  1  6
  3  4  1  0
  3 32  1  0
  3 33  1  0
  4  5  1  0
  4 19  1  0
  4 34  1  1
  5  6  2  0
  5  7  1  0
  7 18  1  0
  7  8  1  0
  8  9  1  0
  8 35  1  0
  8 36  1  0
  9 10  1  0
  9 37  1  0
  9 38  1  0
 10 11  1  0
 10 17  1  0
 11 16  1  0
 11 12  2  0
 12 13  1  0
 12 39  1  0
 13 14  2  0
 13 40  1  0
 14 15  1  0
 15 16  2  0
 15 41  1  0
 17 18  1  0
 17 42  1  0
 17 43  1  0
 18 44  1  0
 18 45  1  0
 19 20  1  0
 19 46  1  0
 19 47  1  0
 20 28  1  0
 20 21  1  0
 20 48  1  6
 21 22  1  0
 21 28  1  0
 21 49  1  6
 22 27  1  0
 22 23  2  0
 23 24  1  0
 23 50  1  0
 24 25  2  0
 24 51  1  0
 25 26  1  0
 25 52  1  0
 26 27  2  0
 26 53  1  0
 28 54  1  1
M  CHG  1   2   1
M  END
>  <i_m_ct_stereo_status>  (38) 
1

>  <s_m_source_file>  (38) 
/var/tmp/pbs.5076255.sched01/tmp5vb4dkz1/0x5hafel7.sdf

>  <i_m_source_file_index>  (38) 
16

>  <i_lp_mmshare_version>  (38) 
48012

>  <i_f3d_flags>  (38) 
0

>  <s_epik_input>  (38) 
bjFbY0hdW2NIXVtjSF1bY0hdYzFbQ0BIXTJbQ0BIXShbQ0BASF0yMylOKFtDSDNdKVtDSDJdW0NASF0oW0NIMl0zKUMoPU8pTjRbQ0gyXVtDSDJdTihbQ0gyXVtDSDJdNCljNVtjSF1bY0hdbltjSF1uNQ==

>  <s_epik_cmdline>  (38) 
J2VwaWtfcHl0aG9uJywgJy1waHQnLCAnMi4wJywgJy1waCcsICc3LjAnLCAnLXRuJywgJzgnLCAnLW1hJywgJzIwMCcsICctaW1hZScsICc8aW5maWxlLm1hZT4nLCAnLW9tYWUnLCAnPG91dGZpbGUubWFlPic=

>  <r_lp_tautomer_probability>  (38) 
1

>  <r_epik_Ionization_Penalty>  (38) 
0.424176

>  <r_epik_Ionization_Penalty_Charging>  (38) 
0.368183

>  <r_epik_Ionization_Penalty_Neutral>  (38) 
0.0559925

>  <r_epik_State_Penalty>  (38) 
0.422163

>  <r_epik_Charging_Adjusted_Penalty>  (38) 
0.790346

>  <i_epik_Tot_Q>  (38) 
1

>  <i_epik_Tot_abs_Q>  (38) 
1

>  <s_lp_Force_Field>  (38) 
OPLS3e

>  <r_lp_Energy>  (38) 
95.1598

>  <b_lp_Chiralities_Consistent>  (38) 
1

>  <s_lp_Variant>  (38) 
11:0-1

>  <s_i_glide_gridfile>  (38) 
pfpi4k_grid

>  <i_i_glide_lignum>  (38) 
16

>  <i_i_glide_rotatable_bonds>  (38) 
4

>  <r_i_docking_score>  (38) 
-2.77179

>  <r_i_glide_ligand_efficiency>  (38) 
-0.0989925

>  <r_i_glide_ligand_efficiency_sa>  (38) 
-0.300599

>  <r_i_glide_ligand_efficiency_ln>  (38) 
-0.63981

>  <r_i_glide_gscore>  (38) 
-2.77179

>  <r_i_glide_lipo>  (38) 
-0.785348

>  <r_i_glide_hbond>  (38) 
-0.000512312

>  <r_i_glide_metal>  (38) 
-0

>  <r_i_glide_rewards>  (38) 
-0.821736

>  <r_i_glide_evdw>  (38) 
-29.3089

>  <r_i_glide_ecoul>  (38) 
-0.812768

>  <r_i_glide_erotb>  (38) 
0.538604

>  <r_i_glide_esite>  (38) 
-0.115435

>  <r_i_glide_emodel>  (38) 
-35.289

>  <r_i_glide_energy>  (38) 
-30.1217

>  <r_i_glide_einternal>  (38) 
0.76302

>  <r_i_glide_intrahb_reward>  (38) 
-0

>  <i_i_glide_confnum>  (38) 
3

>  <i_i_glide_posenum>  (38) 
20

>  <r_i_glide_eff_state_penalty>  (38) 
0

>  <ligand_id>  (38) 
11

>  <original_smiles>  (38) 
CN1CC(C(=O)N2CCN(c3ccncn3)CC2)CC2C(c3ccccn3)C21

>  <smiles>  (38) 
[H]c1nc([H])c([H])c(N2C([H])([H])C([H])([H])N(C(=O)C3([H])C([H])([H])C4([H])C([H])(c5nc([H])c([H])c([H])c5[H])C4([H])[N+]([H])(C([H])([H])[H])C3([H])[H])C([H])([H])C2([H])[H])n1

$$$$
11:0:2
     RDKit          3D

 55 59  0  0  1  0  0  0  0  0999 V2000
    3.8297   -7.8763    1.1928 C   0  0  0  0  0  0  0  0  0  0  0  0
    3.4623   -6.6603    1.9543 N   0  0  2  0  0  0  0  0  0  0  0  0
    4.5699   -5.6475    1.9813 C   0  0  0  0  0  0  0  0  0  0  0  0
    4.1878   -4.3373    2.7687 C   0  0  1  0  0  0  0  0  0  0  0  0
    3.5140   -3.3062    1.8293 C   0  0  0  0  0  0  0  0  0  0  0  0
    2.9469   -3.7355    0.8230 O   0  0  0  0  0  0  0  0  0  0  0  0
    3.5981   -1.9797    2.1069 N   0  0  0  0  0  0  0  0  0  0  0  0
    3.0879   -0.9523    1.1779 C   0  0  0  0  0  0  0  0  0  0  0  0
    2.0075   -0.0944    1.8622 C   0  0  0  0  0  0  0  0  0  0  0  0
    2.5080    0.4479    3.1278 N   0  0  0  0  0  0  0  0  0  0  0  0
    2.6246    1.8395    3.3788 C   0  0  0  0  0  0  0  0  0  0  0  0
    2.0594    2.8120    2.5308 C   0  0  0  0  0  0  0  0  0  0  0  0
    2.2368    4.1602    2.8819 C   0  0  0  0  0  0  0  0  0  0  0  0
    2.9078    4.5216    3.9911 N   0  0  0  0  0  0  0  0  0  0  0  0
    3.4029    3.5294    4.7282 C   0  0  0  0  0  0  0  0  0  0  0  0
    3.2978    2.2253    4.4855 N   0  0  0  0  0  0  0  0  0  0  0  0
    3.0699   -0.5429    4.0468 C   0  0  0  0  0  0  0  0  0  0  0  0
    4.1468   -1.3864    3.3409 C   0  0  0  0  0  0  0  0  0  0  0  0
    3.2977   -4.6392    4.0222 C   0  0  0  0  0  0  0  0  0  0  0  0
    2.2766   -5.6741    3.6127 C   0  0  2  0  0  0  0  0  0  0  0  0
    1.7961   -7.0083    4.0885 C   0  0  1  0  0  0  0  0  0  0  0  0
    0.6488   -7.7673    3.4919 C   0  0  0  0  0  0  0  0  0  0  0  0
    0.8334   -9.0785    3.0128 C   0  0  0  0  0  0  0  0  0  0  0  0
   -0.2713   -9.7720    2.4910 C   0  0  0  0  0  0  0  0  0  0  0  0
   -1.5230   -9.1359    2.4857 C   0  0  0  0  0  0  0  0  0  0  0  0
   -1.6176   -7.8453    3.0240 C   0  0  0  0  0  0  0  0  0  0  0  0
   -0.5569   -7.1514    3.5007 N   0  0  0  0  0  0  0  0  0  0  0  0
    3.1267   -6.9322    3.3715 C   0  0  1  0  0  0  0  0  0  0  0  0
    4.6849   -8.3741    1.6538 H   0  0  0  0  0  0  0  0  0  0  0  0
    4.1016   -7.6103    0.1673 H   0  0  0  0  0  0  0  0  0  0  0  0
    2.9904   -8.5752    1.1581 H   0  0  0  0  0  0  0  0  0  0  0  0
    5.4403   -6.0968    2.4601 H   0  0  0  0  0  0  0  0  0  0  0  0
    4.8896   -5.4136    0.9614 H   0  0  0  0  0  0  0  0  0  0  0  0
    5.1430   -3.9176    3.0861 H   0  0  0  0  0  0  0  0  0  0  0  0
    3.9142   -0.3215    0.8532 H   0  0  0  0  0  0  0  0  0  0  0  0
    2.6654   -1.3767    0.2680 H   0  0  0  0  0  0  0  0  0  0  0  0
    1.6620    0.6559    1.1560 H   0  0  0  0  0  0  0  0  0  0  0  0
    1.1348   -0.7139    2.0889 H   0  0  0  0  0  0  0  0  0  0  0  0
    1.4832    2.5890    1.6462 H   0  0  0  0  0  0  0  0  0  0  0  0
    1.8204    4.9526    2.2764 H   0  0  0  0  0  0  0  0  0  0  0  0
    3.9481    3.8190    5.6178 H   0  0  0  0  0  0  0  0  0  0  0  0
    3.4881   -0.1134    4.9557 H   0  0  0  0  0  0  0  0  0  0  0  0
    2.2503   -1.1868    4.3750 H   0  0  0  0  0  0  0  0  0  0  0  0
    4.5052   -2.1132    4.0680 H   0  0  0  0  0  0  0  0  0  0  0  0
    5.0058   -0.7645    3.0859 H   0  0  0  0  0  0  0  0  0  0  0  0
    3.9110   -5.0129    4.8458 H   0  0  0  0  0  0  0  0  0  0  0  0
    2.7807   -3.7478    4.3871 H   0  0  0  0  0  0  0  0  0  0  0  0
    1.5969   -5.2742    2.8538 H   0  0  0  0  0  0  0  0  0  0  0  0
    1.8299   -7.1823    5.1662 H   0  0  0  0  0  0  0  0  0  0  0  0
    1.7992   -9.5608    3.0545 H   0  0  0  0  0  0  0  0  0  0  0  0
   -0.1602  -10.7699    2.0941 H   0  0  0  0  0  0  0  0  0  0  0  0
   -2.3912   -9.6356    2.0874 H   0  0  0  0  0  0  0  0  0  0  0  0
   -2.5715   -7.3438    3.0462 H   0  0  0  0  0  0  0  0  0  0  0  0
    4.0032   -7.1533    3.9757 H   0  0  0  0  0  0  0  0  0  0  0  0
    2.6652   -6.2225    1.4965 H   0  0  0  0  0  0  0  0  0  0  0  0
  1  2  1  0
  1 29  1  0
  1 30  1  0
  1 31  1  0
  2 28  1  0
  2  3  1  0
  2 55  1  6
  3  4  1  0
  3 32  1  0
  3 33  1  0
  4  5  1  0
  4 19  1  0
  4 34  1  1
  5  6  2  0
  5  7  1  0
  7 18  1  0
  7  8  1  0
  8  9  1  0
  8 35  1  0
  8 36  1  0
  9 10  1  0
  9 37  1  0
  9 38  1  0
 10 11  1  0
 10 17  1  0
 11 16  1  0
 11 12  2  0
 12 13  1  0
 12 39  1  0
 13 14  2  0
 13 40  1  0
 14 15  1  0
 15 16  2  0
 15 41  1  0
 17 18  1  0
 17 42  1  0
 17 43  1  0
 18 44  1  0
 18 45  1  0
 19 20  1  0
 19 46  1  0
 19 47  1  0
 20 28  1  0
 20 21  1  0
 20 48  1  6
 21 22  1  0
 21 28  1  0
 21 49  1  1
 22 27  1  0
 22 23  2  0
 23 24  1  0
 23 50  1  0
 24 25  2  0
 24 51  1  0
 25 26  1  0
 25 52  1  0
 26 27  2  0
 26 53  1  0
 28 54  1  1
M  CHG  1   2   1
M  END
>  <i_m_ct_stereo_status>  (39) 
1

>  <s_m_source_file>  (39) 
/var/tmp/pbs.5076255.sched01/tmp5vb4dkz1/0x5hafel7.sdf

>  <i_m_source_file_index>  (39) 
16

>  <i_lp_mmshare_version>  (39) 
48012

>  <i_f3d_flags>  (39) 
0

>  <s_epik_input>  (39) 
bjFbY0hdW2NIXVtjSF1bY0hdYzFbQ0BIXTJbQ0BIXShbQ0BASF0yMylOKFtDSDNdKVtDSDJdW0NASF0oW0NIMl0zKUMoPU8pTjRbQ0gyXVtDSDJdTihbQ0gyXVtDSDJdNCljNVtjSF1bY0hdbltjSF1uNQ==

>  <s_epik_cmdline>  (39) 
J2VwaWtfcHl0aG9uJywgJy1waHQnLCAnMi4wJywgJy1waCcsICc3LjAnLCAnLXRuJywgJzgnLCAnLW1hJywgJzIwMCcsICctaW1hZScsICc8aW5maWxlLm1hZT4nLCAnLW9tYWUnLCAnPG91dGZpbGUubWFlPic=

>  <r_lp_tautomer_probability>  (39) 
1

>  <r_epik_Ionization_Penalty>  (39) 
0.424176

>  <r_epik_Ionization_Penalty_Charging>  (39) 
0.368183

>  <r_epik_Ionization_Penalty_Neutral>  (39) 
0.0559925

>  <r_epik_State_Penalty>  (39) 
0.422163

>  <r_epik_Charging_Adjusted_Penalty>  (39) 
0.790346

>  <i_epik_Tot_Q>  (39) 
1

>  <i_epik_Tot_abs_Q>  (39) 
1

>  <s_lp_Force_Field>  (39) 
OPLS3e

>  <r_lp_Energy>  (39) 
95.1598

>  <b_lp_Chiralities_Consistent>  (39) 
1

>  <s_lp_Variant>  (39) 
11:0-1

>  <s_i_glide_gridfile>  (39) 
pfpi4k_grid

>  <i_i_glide_lignum>  (39) 
16

>  <i_i_glide_rotatable_bonds>  (39) 
4

>  <r_i_docking_score>  (39) 
-2.37601

>  <r_i_glide_ligand_efficiency>  (39) 
-0.0848575

>  <r_i_glide_ligand_efficiency_sa>  (39) 
-0.257677

>  <r_i_glide_ligand_efficiency_ln>  (39) 
-0.548453

>  <r_i_glide_gscore>  (39) 
-2.37601

>  <r_i_glide_lipo>  (39) 
-0.302201

>  <r_i_glide_hbond>  (39) 
-0.00381978

>  <r_i_glide_metal>  (39) 
-0

>  <r_i_glide_rewards>  (39) 
-0.824349

>  <r_i_glide_evdw>  (39) 
-26.8205

>  <r_i_glide_ecoul>  (39) 
-2.85699

>  <r_i_glide_erotb>  (39) 
0.538604

>  <r_i_glide_esite>  (39) 
-0.0146694

>  <r_i_glide_emodel>  (39) 
-34.1906

>  <r_i_glide_energy>  (39) 
-29.6775

>  <r_i_glide_einternal>  (39) 
0.634887

>  <r_i_glide_intrahb_reward>  (39) 
-0

>  <i_i_glide_confnum>  (39) 
3

>  <i_i_glide_posenum>  (39) 
39

>  <r_i_glide_eff_state_penalty>  (39) 
0

>  <ligand_id>  (39) 
11

>  <original_smiles>  (39) 
CN1CC(C(=O)N2CCN(c3ccncn3)CC2)CC2C(c3ccccn3)C21

>  <smiles>  (39) 
[H]c1nc([H])c([H])c(N2C([H])([H])C([H])([H])N(C(=O)C3([H])C([H])([H])C4([H])C([H])(c5nc([H])c([H])c([H])c5[H])C4([H])[N+]([H])(C([H])([H])[H])C3([H])[H])C([H])([H])C2([H])[H])n1

$$$$
11:1:0
     RDKit          3D

 54 58  0  0  1  0  0  0  0  0999 V2000
   -0.8793   -0.8759    4.3765 C   0  0  0  0  0  0  0  0  0  0  0  0
    0.4703   -0.7640    4.9049 N   0  0  0  0  0  0  0  0  0  0  0  0
    1.3510   -1.7787    4.2964 C   0  0  0  0  0  0  0  0  0  0  0  0
    2.7926   -1.9061    4.9298 C   0  0  1  0  0  0  0  0  0  0  0  0
    3.8344   -1.1224    4.0893 C   0  0  0  0  0  0  0  0  0  0  0  0
    4.4018   -0.1488    4.5845 O   0  0  0  0  0  0  0  0  0  0  0  0
    4.0994   -1.5438    2.8219 N   0  0  0  0  0  0  0  0  0  0  0  0
    4.9520   -0.7697    1.8991 C   0  0  0  0  0  0  0  0  0  0  0  0
    4.1513   -0.3924    0.6334 C   0  0  0  0  0  0  0  0  0  0  0  0
    3.5853   -1.5986    0.0445 N   0  0  0  0  0  0  0  0  0  0  0  0
    3.8683   -1.9755   -1.2794 C   0  0  0  0  0  0  0  0  0  0  0  0
    4.0935   -3.3171   -1.6321 C   0  0  0  0  0  0  0  0  0  0  0  0
    4.3900   -3.5687   -2.9837 C   0  0  0  0  0  0  0  0  0  0  0  0
    4.4154   -2.5890   -3.9052 N   0  0  0  0  0  0  0  0  0  0  0  0
    4.1890   -1.3545   -3.4571 C   0  0  0  0  0  0  0  0  0  0  0  0
    3.9574   -0.9948   -2.1993 N   0  0  0  0  0  0  0  0  0  0  0  0
    2.7808   -2.4339    0.9246 C   0  0  0  0  0  0  0  0  0  0  0  0
    3.5874   -2.7799    2.1879 C   0  0  0  0  0  0  0  0  0  0  0  0
    2.8180   -1.5833    6.4694 C   0  0  0  0  0  0  0  0  0  0  0  0
    1.8385   -0.4652    6.7406 C   0  0  2  0  0  0  0  0  0  0  0  0
    0.5563   -0.2617    7.5315 C   0  0  1  0  0  0  0  0  0  0  0  0
   -0.1804    1.0430    7.5781 C   0  0  0  0  0  0  0  0  0  0  0  0
    0.4656    2.2427    7.9338 C   0  0  0  0  0  0  0  0  0  0  0  0
   -0.2890    3.4271    7.9872 C   0  0  0  0  0  0  0  0  0  0  0  0
   -1.6615    3.3685    7.6891 C   0  0  0  0  0  0  0  0  0  0  0  0
   -2.2207    2.1205    7.3633 C   0  0  0  0  0  0  0  0  0  0  0  0
   -1.5081    0.9730    7.3159 N   0  0  0  0  0  0  0  0  0  0  0  0
    0.5223   -1.1111    6.3032 C   0  0  1  0  0  0  0  0  0  0  0  0
   -0.8774   -0.6316    3.3152 H   0  0  0  0  0  0  0  0  0  0  0  0
   -1.5520   -0.1760    4.8707 H   0  0  0  0  0  0  0  0  0  0  0  0
   -1.2778   -1.8820    4.5013 H   0  0  0  0  0  0  0  0  0  0  0  0
    0.8617   -2.7545    4.2930 H   0  0  0  0  0  0  0  0  0  0  0  0
    1.4288   -1.4775    3.2512 H   0  0  0  0  0  0  0  0  0  0  0  0
    3.0930   -2.9477    4.8819 H   0  0  0  0  0  0  0  0  0  0  0  0
    5.3513    0.1422    2.3477 H   0  0  0  0  0  0  0  0  0  0  0  0
    5.8186   -1.3655    1.6226 H   0  0  0  0  0  0  0  0  0  0  0  0
    3.3300    0.2853    0.8940 H   0  0  0  0  0  0  0  0  0  0  0  0
    4.7841    0.1370   -0.0810 H   0  0  0  0  0  0  0  0  0  0  0  0
    4.0548   -4.1241   -0.9127 H   0  0  0  0  0  0  0  0  0  0  0  0
    4.6146   -4.5647   -3.3380 H   0  0  0  0  0  0  0  0  0  0  0  0
    4.2487   -0.5617   -4.1873 H   0  0  0  0  0  0  0  0  0  0  0  0
    1.8968   -1.8494    1.1954 H   0  0  0  0  0  0  0  0  0  0  0  0
    2.4063   -3.3270    0.4234 H   0  0  0  0  0  0  0  0  0  0  0  0
    4.4296   -3.4157    1.9240 H   0  0  0  0  0  0  0  0  0  0  0  0
    2.9499   -3.3961    2.8163 H   0  0  0  0  0  0  0  0  0  0  0  0
    2.5395   -2.4731    7.0404 H   0  0  0  0  0  0  0  0  0  0  0  0
    3.8101   -1.2799    6.8103 H   0  0  0  0  0  0  0  0  0  0  0  0
    2.1683    0.4576    6.2531 H   0  0  0  0  0  0  0  0  0  0  0  0
    0.5237   -0.7477    8.5039 H   0  0  0  0  0  0  0  0  0  0  0  0
    1.5208    2.2510    8.1720 H   0  0  0  0  0  0  0  0  0  0  0  0
    0.1744    4.3651    8.2542 H   0  0  0  0  0  0  0  0  0  0  0  0
   -2.2755    4.2545    7.7129 H   0  0  0  0  0  0  0  0  0  0  0  0
   -3.2706    2.0369    7.1355 H   0  0  0  0  0  0  0  0  0  0  0  0
    0.3332   -2.1599    6.5522 H   0  0  0  0  0  0  0  0  0  0  0  0
  1  2  1  0
  1 29  1  0
  1 30  1  0
  1 31  1  0
  2 28  1  0
  2  3  1  0
  3  4  1  0
  3 32  1  0
  3 33  1  0
  4  5  1  0
  4 19  1  0
  4 34  1  1
  5  6  2  0
  5  7  1  0
  7 18  1  0
  7  8  1  0
  8  9  1  0
  8 35  1  0
  8 36  1  0
  9 10  1  0
  9 37  1  0
  9 38  1  0
 10 11  1  0
 10 17  1  0
 11 16  1  0
 11 12  2  0
 12 13  1  0
 12 39  1  0
 13 14  2  0
 13 40  1  0
 14 15  1  0
 15 16  2  0
 15 41  1  0
 17 18  1  0
 17 42  1  0
 17 43  1  0
 18 44  1  0
 18 45  1  0
 19 20  1  0
 19 46  1  0
 19 47  1  0
 20 28  1  0
 20 21  1  0
 20 48  1  6
 21 22  1  0
 21 28  1  0
 21 49  1  1
 22 27  1  0
 22 23  2  0
 23 24  1  0
 23 50  1  0
 24 25  2  0
 24 51  1  0
 25 26  1  0
 25 52  1  0
 26 27  2  0
 26 53  1  0
 28 54  1  1
M  END
>  <i_m_ct_stereo_status>  (40) 
1

>  <s_m_source_file>  (40) 
/var/tmp/pbs.5076255.sched01/tmp5vb4dkz1/0x5hafel7.sdf

>  <i_m_source_file_index>  (40) 
17

>  <i_lp_mmshare_version>  (40) 
48012

>  <i_f3d_flags>  (40) 
0

>  <s_epik_input>  (40) 
bjFbY0hdW2NIXVtjSF1bY0hdYzFbQ0BIXTJbQ0BIXShbQ0BASF0yMylOKFtDSDNdKVtDSDJdW0NASF0oW0NIMl0zKUMoPU8pTjRbQ0gyXVtDSDJdTihbQ0gyXVtDSDJdNCljNVtjSF1bY0hdbltjSF1uNQ==

>  <s_epik_cmdline>  (40) 
J2VwaWtfcHl0aG9uJywgJy1waHQnLCAnMi4wJywgJy1waCcsICc3LjAnLCAnLXRuJywgJzgnLCAnLW1hJywgJzIwMCcsICctaW1hZScsICc8aW5maWxlLm1hZT4nLCAnLW9tYWUnLCAnPG91dGZpbGUubWFlPic=

>  <r_lp_tautomer_probability>  (40) 
1

>  <r_epik_Ionization_Penalty>  (40) 
0.549571

>  <r_epik_Ionization_Penalty_Charging>  (40) 
0

>  <r_epik_Ionization_Penalty_Neutral>  (40) 
0.549571

>  <r_epik_State_Penalty>  (40) 
0.525587

>  <r_epik_Charging_Adjusted_Penalty>  (40) 
0.525587

>  <i_epik_Tot_Q>  (40) 
0

>  <i_epik_Tot_abs_Q>  (40) 
0

>  <s_lp_Force_Field>  (40) 
OPLS3e

>  <r_lp_Energy>  (40) 
85.3922

>  <b_lp_Chiralities_Consistent>  (40) 
1

>  <s_lp_Variant>  (40) 
11:0-2

>  <s_i_glide_gridfile>  (40) 
pfpi4k_grid

>  <i_i_glide_lignum>  (40) 
17

>  <i_i_glide_rotatable_bonds>  (40) 
4

>  <r_i_docking_score>  (40) 
-3.30043

>  <r_i_glide_ligand_efficiency>  (40) 
-0.117872

>  <r_i_glide_ligand_efficiency_sa>  (40) 
-0.35793

>  <r_i_glide_ligand_efficiency_ln>  (40) 
-0.761836

>  <r_i_glide_gscore>  (40) 
-3.30043

>  <r_i_glide_lipo>  (40) 
-0.27898

>  <r_i_glide_hbond>  (40) 
-0.293939

>  <r_i_glide_metal>  (40) 
-0

>  <r_i_glide_rewards>  (40) 
-1.05052

>  <r_i_glide_evdw>  (40) 
-25.6201

>  <r_i_glide_ecoul>  (40) 
-5.79014

>  <r_i_glide_erotb>  (40) 
0.541176

>  <r_i_glide_esite>  (40) 
-0.0686337

>  <r_i_glide_emodel>  (40) 
-36.5082

>  <r_i_glide_energy>  (40) 
-31.4103

>  <r_i_glide_einternal>  (40) 
3.24477

>  <r_i_glide_intrahb_reward>  (40) 
-0

>  <i_i_glide_confnum>  (40) 
6

>  <i_i_glide_posenum>  (40) 
13

>  <r_i_glide_eff_state_penalty>  (40) 
0

>  <ligand_id>  (40) 
11

>  <original_smiles>  (40) 
CN1CC(C(=O)N2CCN(c3ccncn3)CC2)CC2C(c3ccccn3)C21

>  <smiles>  (40) 
[H]c1nc([H])c([H])c(N2C([H])([H])C([H])([H])N(C(=O)C3([H])C([H])([H])N(C([H])([H])[H])C4([H])C([H])(c5nc([H])c([H])c([H])c5[H])C4([H])C3([H])[H])C([H])([H])C2([H])[H])n1

$$$$
11:1:1
     RDKit          3D

 54 58  0  0  1  0  0  0  0  0999 V2000
    2.8975   -4.5971    0.7466 C   0  0  0  0  0  0  0  0  0  0  0  0
    3.9143   -3.5762    0.9869 N   0  0  0  0  0  0  0  0  0  0  0  0
    3.3267   -2.2417    0.7400 C   0  0  0  0  0  0  0  0  0  0  0  0
    4.3358   -1.0235    0.7593 C   0  0  1  0  0  0  0  0  0  0  0  0
    4.2840   -0.3074    2.1338 C   0  0  0  0  0  0  0  0  0  0  0  0
    5.2259   -0.4482    2.9175 O   0  0  0  0  0  0  0  0  0  0  0  0
    3.2052    0.4642    2.4277 N   0  0  0  0  0  0  0  0  0  0  0  0
    3.0461    1.1476    3.7260 C   0  0  0  0  0  0  0  0  0  0  0  0
    1.7416    0.6822    4.4114 C   0  0  0  0  0  0  0  0  0  0  0  0
    0.5976    0.8452    3.5123 N   0  0  0  0  0  0  0  0  0  0  0  0
   -0.4936    1.7025    3.8393 C   0  0  0  0  0  0  0  0  0  0  0  0
   -1.4204    2.1437    2.8806 C   0  0  0  0  0  0  0  0  0  0  0  0
   -2.4629    2.9737    3.3273 C   0  0  0  0  0  0  0  0  0  0  0  0
   -2.5710    3.3388    4.6192 N   0  0  0  0  0  0  0  0  0  0  0  0
   -1.6432    2.8678    5.4453 C   0  0  0  0  0  0  0  0  0  0  0  0
   -0.6295    2.0681    5.1320 N   0  0  0  0  0  0  0  0  0  0  0  0
    0.7570    0.2554    2.1865 C   0  0  0  0  0  0  0  0  0  0  0  0
    2.0591    0.7386    1.5368 C   0  0  0  0  0  0  0  0  0  0  0  0
    5.7778   -1.3924    0.2701 C   0  0  0  0  0  0  0  0  0  0  0  0
    6.0916   -2.7952    0.7399 C   0  0  2  0  0  0  0  0  0  0  0  0
    6.4197   -4.1304    0.1134 C   0  0  1  0  0  0  0  0  0  0  0  0
    6.7265   -5.3849    0.8812 C   0  0  0  0  0  0  0  0  0  0  0  0
    5.8186   -6.4667    0.8899 C   0  0  0  0  0  0  0  0  0  0  0  0
    6.1052   -7.5925    1.6766 C   0  0  0  0  0  0  0  0  0  0  0  0
    7.3384   -7.6567    2.3408 C   0  0  0  0  0  0  0  0  0  0  0  0
    8.2251   -6.5667    2.2040 C   0  0  0  0  0  0  0  0  0  0  0  0
    7.9218   -5.4415    1.5122 N   0  0  0  0  0  0  0  0  0  0  0  0
    5.0074   -3.6160    0.0278 C   0  0  1  0  0  0  0  0  0  0  0  0
    2.0681   -4.4571    1.4448 H   0  0  0  0  0  0  0  0  0  0  0  0
    3.2626   -5.6010    0.9196 H   0  0  0  0  0  0  0  0  0  0  0  0
    2.5073   -4.5361   -0.2728 H   0  0  0  0  0  0  0  0  0  0  0  0
    2.7665   -2.2422   -0.1992 H   0  0  0  0  0  0  0  0  0  0  0  0
    2.5796   -2.1081    1.5235 H   0  0  0  0  0  0  0  0  0  0  0  0
    4.0124   -0.3029    0.0111 H   0  0  0  0  0  0  0  0  0  0  0  0
    3.8829    0.9714    4.4040 H   0  0  0  0  0  0  0  0  0  0  0  0
    3.0208    2.2271    3.5643 H   0  0  0  0  0  0  0  0  0  0  0  0
    1.8190   -0.3791    4.6564 H   0  0  0  0  0  0  0  0  0  0  0  0
    1.6296    1.2098    5.3592 H   0  0  0  0  0  0  0  0  0  0  0  0
   -1.3699    1.9002    1.8312 H   0  0  0  0  0  0  0  0  0  0  0  0
   -3.2169    3.3474    2.6484 H   0  0  0  0  0  0  0  0  0  0  0  0
   -1.7276    3.1522    6.4804 H   0  0  0  0  0  0  0  0  0  0  0  0
    0.7990   -0.8265    2.3160 H   0  0  0  0  0  0  0  0  0  0  0  0
   -0.0699    0.4286    1.5027 H   0  0  0  0  0  0  0  0  0  0  0  0
    2.0082    1.8071    1.3252 H   0  0  0  0  0  0  0  0  0  0  0  0
    2.0955    0.2484    0.5709 H   0  0  0  0  0  0  0  0  0  0  0  0
    5.8072   -1.3496   -0.8213 H   0  0  0  0  0  0  0  0  0  0  0  0
    6.5261   -0.6977    0.6577 H   0  0  0  0  0  0  0  0  0  0  0  0
    6.1649   -2.8303    1.8272 H   0  0  0  0  0  0  0  0  0  0  0  0
    7.0465   -4.0817   -0.7712 H   0  0  0  0  0  0  0  0  0  0  0  0
    4.9362   -6.4459    0.2776 H   0  0  0  0  0  0  0  0  0  0  0  0
    5.3932   -8.4043    1.7413 H   0  0  0  0  0  0  0  0  0  0  0  0
    7.6138   -8.5261    2.9149 H   0  0  0  0  0  0  0  0  0  0  0  0
    9.1988   -6.6012    2.6683 H   0  0  0  0  0  0  0  0  0  0  0  0
    4.7587   -3.3665   -1.0048 H   0  0  0  0  0  0  0  0  0  0  0  0
  1  2  1  0
  1 29  1  0
  1 30  1  0
  1 31  1  0
  2 28  1  0
  2  3  1  0
  3  4  1  0
  3 32  1  0
  3 33  1  0
  4  5  1  0
  4 19  1  0
  4 34  1  6
  5  6  2  0
  5  7  1  0
  7 18  1  0
  7  8  1  0
  8  9  1  0
  8 35  1  0
  8 36  1  0
  9 10  1  0
  9 37  1  0
  9 38  1  0
 10 11  1  0
 10 17  1  0
 11 16  1  0
 11 12  2  0
 12 13  1  0
 12 39  1  0
 13 14  2  0
 13 40  1  0
 14 15  1  0
 15 16  2  0
 15 41  1  0
 17 18  1  0
 17 42  1  0
 17 43  1  0
 18 44  1  0
 18 45  1  0
 19 20  1  0
 19 46  1  0
 19 47  1  0
 20 28  1  0
 20 21  1  0
 20 48  1  1
 21 22  1  0
 21 28  1  0
 21 49  1  6
 22 27  1  0
 22 23  2  0
 23 24  1  0
 23 50  1  0
 24 25  2  0
 24 51  1  0
 25 26  1  0
 25 52  1  0
 26 27  2  0
 26 53  1  0
 28 54  1  6
M  END
>  <i_m_ct_stereo_status>  (41) 
1

>  <s_m_source_file>  (41) 
/var/tmp/pbs.5076255.sched01/tmp5vb4dkz1/0x5hafel7.sdf

>  <i_m_source_file_index>  (41) 
17

>  <i_lp_mmshare_version>  (41) 
48012

>  <i_f3d_flags>  (41) 
0

>  <s_epik_input>  (41) 
bjFbY0hdW2NIXVtjSF1bY0hdYzFbQ0BIXTJbQ0BIXShbQ0BASF0yMylOKFtDSDNdKVtDSDJdW0NASF0oW0NIMl0zKUMoPU8pTjRbQ0gyXVtDSDJdTihbQ0gyXVtDSDJdNCljNVtjSF1bY0hdbltjSF1uNQ==

>  <s_epik_cmdline>  (41) 
J2VwaWtfcHl0aG9uJywgJy1waHQnLCAnMi4wJywgJy1waCcsICc3LjAnLCAnLXRuJywgJzgnLCAnLW1hJywgJzIwMCcsICctaW1hZScsICc8aW5maWxlLm1hZT4nLCAnLW9tYWUnLCAnPG91dGZpbGUubWFlPic=

>  <r_lp_tautomer_probability>  (41) 
1

>  <r_epik_Ionization_Penalty>  (41) 
0.549571

>  <r_epik_Ionization_Penalty_Charging>  (41) 
0

>  <r_epik_Ionization_Penalty_Neutral>  (41) 
0.549571

>  <r_epik_State_Penalty>  (41) 
0.525587

>  <r_epik_Charging_Adjusted_Penalty>  (41) 
0.525587

>  <i_epik_Tot_Q>  (41) 
0

>  <i_epik_Tot_abs_Q>  (41) 
0

>  <s_lp_Force_Field>  (41) 
OPLS3e

>  <r_lp_Energy>  (41) 
85.3922

>  <b_lp_Chiralities_Consistent>  (41) 
1

>  <s_lp_Variant>  (41) 
11:0-2

>  <s_i_glide_gridfile>  (41) 
pfpi4k_grid

>  <i_i_glide_lignum>  (41) 
17

>  <i_i_glide_rotatable_bonds>  (41) 
4

>  <r_i_docking_score>  (41) 
-3.09754

>  <r_i_glide_ligand_efficiency>  (41) 
-0.110626

>  <r_i_glide_ligand_efficiency_sa>  (41) 
-0.335927

>  <r_i_glide_ligand_efficiency_ln>  (41) 
-0.715003

>  <r_i_glide_gscore>  (41) 
-3.09754

>  <r_i_glide_lipo>  (41) 
-0.556537

>  <r_i_glide_hbond>  (41) 
0

>  <r_i_glide_metal>  (41) 
-0

>  <r_i_glide_rewards>  (41) 
-1.05104

>  <r_i_glide_evdw>  (41) 
-29.7737

>  <r_i_glide_ecoul>  (41) 
-3.49072

>  <r_i_glide_erotb>  (41) 
0.541176

>  <r_i_glide_esite>  (41) 
-0.0188386

>  <r_i_glide_emodel>  (41) 
-38.8585

>  <r_i_glide_energy>  (41) 
-33.2645

>  <r_i_glide_einternal>  (41) 
0.995518

>  <r_i_glide_intrahb_reward>  (41) 
-0

>  <i_i_glide_confnum>  (41) 
6

>  <i_i_glide_posenum>  (41) 
25

>  <r_i_glide_eff_state_penalty>  (41) 
0

>  <ligand_id>  (41) 
11

>  <original_smiles>  (41) 
CN1CC(C(=O)N2CCN(c3ccncn3)CC2)CC2C(c3ccccn3)C21

>  <smiles>  (41) 
[H]c1nc([H])c([H])c(N2C([H])([H])C([H])([H])N(C(=O)C3([H])C([H])([H])N(C([H])([H])[H])C4([H])C([H])(c5nc([H])c([H])c([H])c5[H])C4([H])C3([H])[H])C([H])([H])C2([H])[H])n1

$$$$
11:1:2
     RDKit          3D

 54 58  0  0  1  0  0  0  0  0999 V2000
   -1.2910   -0.2375    4.3183 C   0  0  0  0  0  0  0  0  0  0  0  0
    0.0389   -0.4077    4.8835 N   0  0  0  0  0  0  0  0  0  0  0  0
    0.7793   -1.4812    4.1870 C   0  0  0  0  0  0  0  0  0  0  0  0
    2.1462   -1.9104    4.8569 C   0  0  1  0  0  0  0  0  0  0  0  0
    3.3375   -1.2390    4.1241 C   0  0  0  0  0  0  0  0  0  0  0  0
    3.8900   -0.2691    4.6433 O   0  0  0  0  0  0  0  0  0  0  0  0
    3.7420   -1.7488    2.9281 N   0  0  0  0  0  0  0  0  0  0  0  0
    4.8354   -1.1435    2.1357 C   0  0  0  0  0  0  0  0  0  0  0  0
    4.3241   -0.7518    0.7322 C   0  0  0  0  0  0  0  0  0  0  0  0
    3.6699   -1.8850    0.0927 N   0  0  0  0  0  0  0  0  0  0  0  0
    4.1173   -2.4215   -1.1321 C   0  0  0  0  0  0  0  0  0  0  0  0
    3.2092   -2.9469   -2.0687 C   0  0  0  0  0  0  0  0  0  0  0  0
    3.7504   -3.4564   -3.2618 C   0  0  0  0  0  0  0  0  0  0  0  0
    5.0744   -3.4569   -3.4912 N   0  0  0  0  0  0  0  0  0  0  0  0
    5.8451   -2.9605   -2.5248 C   0  0  0  0  0  0  0  0  0  0  0  0
    5.4447   -2.4164   -1.3756 N   0  0  0  0  0  0  0  0  0  0  0  0
    2.6360   -2.5574    0.8645 C   0  0  0  0  0  0  0  0  0  0  0  0
    3.1749   -2.9386    2.2538 C   0  0  0  0  0  0  0  0  0  0  0  0
    2.1621   -1.7415    6.4192 C   0  0  0  0  0  0  0  0  0  0  0  0
    1.3575   -0.5155    6.7791 C   0  0  2  0  0  0  0  0  0  0  0  0
    0.0976   -0.1891    7.5574 C   0  0  1  0  0  0  0  0  0  0  0  0
   -0.4256    1.2060    7.7368 C   0  0  0  0  0  0  0  0  0  0  0  0
    0.4336    2.2903    8.0001 C   0  0  0  0  0  0  0  0  0  0  0  0
   -0.1262    3.5680    8.1677 C   0  0  0  0  0  0  0  0  0  0  0  0
   -1.5229    3.7150    8.0780 C   0  0  0  0  0  0  0  0  0  0  0  0
   -2.3009    2.5694    7.8352 C   0  0  0  0  0  0  0  0  0  0  0  0
   -1.7730    1.3382    7.6697 N   0  0  0  0  0  0  0  0  0  0  0  0
   -0.0249   -0.8933    6.2422 C   0  0  1  0  0  0  0  0  0  0  0  0
   -1.2214    0.1098    3.2864 H   0  0  0  0  0  0  0  0  0  0  0  0
   -1.8561    0.5093    4.8774 H   0  0  0  0  0  0  0  0  0  0  0  0
   -1.8558   -1.1687    4.3321 H   0  0  0  0  0  0  0  0  0  0  0  0
    0.1423   -2.3588    4.0653 H   0  0  0  0  0  0  0  0  0  0  0  0
    0.9652   -1.1127    3.1741 H   0  0  0  0  0  0  0  0  0  0  0  0
    2.2619   -2.9801    4.7491 H   0  0  0  0  0  0  0  0  0  0  0  0
    5.2666   -0.2597    2.6074 H   0  0  0  0  0  0  0  0  0  0  0  0
    5.6514   -1.8589    2.0384 H   0  0  0  0  0  0  0  0  0  0  0  0
    3.5691    0.0341    0.8328 H   0  0  0  0  0  0  0  0  0  0  0  0
    5.1197   -0.3415    0.1066 H   0  0  0  0  0  0  0  0  0  0  0  0
    2.1410   -2.9354   -1.9006 H   0  0  0  0  0  0  0  0  0  0  0  0
    3.1263   -3.8510   -4.0517 H   0  0  0  0  0  0  0  0  0  0  0  0
    6.9074   -2.9494   -2.7109 H   0  0  0  0  0  0  0  0  0  0  0  0
    1.8060   -1.8606    0.9845 H   0  0  0  0  0  0  0  0  0  0  0  0
    2.2506   -3.4381    0.3519 H   0  0  0  0  0  0  0  0  0  0  0  0
    3.9557   -3.6943    2.1581 H   0  0  0  0  0  0  0  0  0  0  0  0
    2.3527   -3.4245    2.7660 H   0  0  0  0  0  0  0  0  0  0  0  0
    1.7224   -2.6237    6.8881 H   0  0  0  0  0  0  0  0  0  0  0  0
    3.1776   -1.6368    6.8043 H   0  0  0  0  0  0  0  0  0  0  0  0
    1.8488    0.3837    6.4013 H   0  0  0  0  0  0  0  0  0  0  0  0
   -0.0399   -0.7590    8.4735 H   0  0  0  0  0  0  0  0  0  0  0  0
    1.5014    2.1431    8.0755 H   0  0  0  0  0  0  0  0  0  0  0  0
    0.5047    4.4235    8.3583 H   0  0  0  0  0  0  0  0  0  0  0  0
   -1.9897    4.6796    8.1989 H   0  0  0  0  0  0  0  0  0  0  0  0
   -3.3750    2.6394    7.7646 H   0  0  0  0  0  0  0  0  0  0  0  0
   -0.3860   -1.9153    6.3808 H   0  0  0  0  0  0  0  0  0  0  0  0
  1  2  1  0
  1 29  1  0
  1 30  1  0
  1 31  1  0
  2 28  1  0
  2  3  1  0
  3  4  1  0
  3 32  1  0
  3 33  1  0
  4  5  1  0
  4 19  1  0
  4 34  1  1
  5  6  2  0
  5  7  1  0
  7 18  1  0
  7  8  1  0
  8  9  1  0
  8 35  1  0
  8 36  1  0
  9 10  1  0
  9 37  1  0
  9 38  1  0
 10 11  1  0
 10 17  1  0
 11 16  1  0
 11 12  2  0
 12 13  1  0
 12 39  1  0
 13 14  2  0
 13 40  1  0
 14 15  1  0
 15 16  2  0
 15 41  1  0
 17 18  1  0
 17 42  1  0
 17 43  1  0
 18 44  1  0
 18 45  1  0
 19 20  1  0
 19 46  1  0
 19 47  1  0
 20 28  1  0
 20 21  1  0
 20 48  1  6
 21 22  1  0
 21 28  1  0
 21 49  1  1
 22 27  1  0
 22 23  2  0
 23 24  1  0
 23 50  1  0
 24 25  2  0
 24 51  1  0
 25 26  1  0
 25 52  1  0
 26 27  2  0
 26 53  1  0
 28 54  1  1
M  END
>  <i_m_ct_stereo_status>  (42) 
1

>  <s_m_source_file>  (42) 
/var/tmp/pbs.5076255.sched01/tmp5vb4dkz1/0x5hafel7.sdf

>  <i_m_source_file_index>  (42) 
17

>  <i_lp_mmshare_version>  (42) 
48012

>  <i_f3d_flags>  (42) 
0

>  <s_epik_input>  (42) 
bjFbY0hdW2NIXVtjSF1bY0hdYzFbQ0BIXTJbQ0BIXShbQ0BASF0yMylOKFtDSDNdKVtDSDJdW0NASF0oW0NIMl0zKUMoPU8pTjRbQ0gyXVtDSDJdTihbQ0gyXVtDSDJdNCljNVtjSF1bY0hdbltjSF1uNQ==

>  <s_epik_cmdline>  (42) 
J2VwaWtfcHl0aG9uJywgJy1waHQnLCAnMi4wJywgJy1waCcsICc3LjAnLCAnLXRuJywgJzgnLCAnLW1hJywgJzIwMCcsICctaW1hZScsICc8aW5maWxlLm1hZT4nLCAnLW9tYWUnLCAnPG91dGZpbGUubWFlPic=

>  <r_lp_tautomer_probability>  (42) 
1

>  <r_epik_Ionization_Penalty>  (42) 
0.549571

>  <r_epik_Ionization_Penalty_Charging>  (42) 
0

>  <r_epik_Ionization_Penalty_Neutral>  (42) 
0.549571

>  <r_epik_State_Penalty>  (42) 
0.525587

>  <r_epik_Charging_Adjusted_Penalty>  (42) 
0.525587

>  <i_epik_Tot_Q>  (42) 
0

>  <i_epik_Tot_abs_Q>  (42) 
0

>  <s_lp_Force_Field>  (42) 
OPLS3e

>  <r_lp_Energy>  (42) 
85.3922

>  <b_lp_Chiralities_Consistent>  (42) 
1

>  <s_lp_Variant>  (42) 
11:0-2

>  <s_i_glide_gridfile>  (42) 
pfpi4k_grid

>  <i_i_glide_lignum>  (42) 
17

>  <i_i_glide_rotatable_bonds>  (42) 
4

>  <r_i_docking_score>  (42) 
-3.05719

>  <r_i_glide_ligand_efficiency>  (42) 
-0.109185

>  <r_i_glide_ligand_efficiency_sa>  (42) 
-0.331551

>  <r_i_glide_ligand_efficiency_ln>  (42) 
-0.70569

>  <r_i_glide_gscore>  (42) 
-3.05719

>  <r_i_glide_lipo>  (42) 
-0.271406

>  <r_i_glide_hbond>  (42) 
-0.111039

>  <r_i_glide_metal>  (42) 
-0

>  <r_i_glide_rewards>  (42) 
-1.06134

>  <r_i_glide_evdw>  (42) 
-26.9595

>  <r_i_glide_ecoul>  (42) 
-5.04092

>  <r_i_glide_erotb>  (42) 
0.541176

>  <r_i_glide_esite>  (42) 
-0.0504715

>  <r_i_glide_emodel>  (42) 
-37.2084

>  <r_i_glide_energy>  (42) 
-32.0004

>  <r_i_glide_einternal>  (42) 
2.21734

>  <r_i_glide_intrahb_reward>  (42) 
-0

>  <i_i_glide_confnum>  (42) 
6

>  <i_i_glide_posenum>  (42) 
2

>  <r_i_glide_eff_state_penalty>  (42) 
0

>  <ligand_id>  (42) 
11

>  <original_smiles>  (42) 
CN1CC(C(=O)N2CCN(c3ccncn3)CC2)CC2C(c3ccccn3)C21

>  <smiles>  (42) 
[H]c1nc([H])c([H])c(N2C([H])([H])C([H])([H])N(C(=O)C3([H])C([H])([H])N(C([H])([H])[H])C4([H])C([H])(c5nc([H])c([H])c([H])c5[H])C4([H])C3([H])[H])C([H])([H])C2([H])[H])n1

$$$$
11:2:0
     RDKit          3D

 56 60  0  0  1  0  0  0  0  0999 V2000
    4.0815   -8.8504    1.0538 C   0  0  0  0  0  0  0  0  0  0  0  0
    3.8893   -7.5419    1.7246 N   0  0  2  0  0  0  0  0  0  0  0  0
    5.1157   -6.6705    1.6595 C   0  0  0  0  0  0  0  0  0  0  0  0
    4.8870   -5.2583    2.3597 C   0  0  1  0  0  0  0  0  0  0  0  0
    4.3503   -4.2183    1.3476 C   0  0  0  0  0  0  0  0  0  0  0  0
    4.0259   -4.6023    0.2396 O   0  0  0  0  0  0  0  0  0  0  0  0
    4.2895   -2.8897    1.6979 N   0  0  0  0  0  0  0  0  0  0  0  0
    4.6094   -2.3070    3.0047 C   0  0  0  0  0  0  0  0  0  0  0  0
    3.3200   -1.6770    3.5879 C   0  0  0  0  0  0  0  0  0  0  0  0
    2.7733   -0.6801    2.6530 N   0  0  0  0  0  0  0  0  0  0  0  0
    2.7114    0.6749    2.9605 C   0  0  0  0  0  0  0  0  0  0  0  0
    1.9678    1.6042    2.1987 C   0  0  0  0  0  0  0  0  0  0  0  0
    1.9547    2.9395    2.6089 C   0  0  0  0  0  0  0  0  0  0  0  0
    2.6271    3.3166    3.7242 N   0  0  0  0  0  0  0  0  0  0  0  0
    3.3157    2.4076    4.4192 C   0  0  0  0  0  0  0  0  0  0  0  0
    3.3676    1.1197    4.0682 N   0  0  0  0  0  0  0  0  0  0  0  0
    2.5554   -1.1812    1.2830 C   0  0  0  0  0  0  0  0  0  0  0  0
    3.8171   -1.8797    0.7403 C   0  0  0  0  0  0  0  0  0  0  0  0
    3.9958   -5.3922    3.6548 C   0  0  0  0  0  0  0  0  0  0  0  0
    2.8801   -6.3311    3.3117 C   0  0  2  0  0  0  0  0  0  0  0  0
    2.2650   -7.5398    3.9149 C   0  0  1  0  0  0  0  0  0  0  0  0
    1.0241   -8.1989    3.3958 C   0  0  0  0  0  0  0  0  0  0  0  0
    1.0808   -9.5289    2.9628 C   0  0  0  0  0  0  0  0  0  0  0  0
   -0.0942  -10.1354    2.4920 C   0  0  0  0  0  0  0  0  0  0  0  0
   -1.2808   -9.3888    2.4944 C   0  0  0  0  0  0  0  0  0  0  0  0
   -1.2514   -8.0774    2.9882 C   0  0  0  0  0  0  0  0  0  0  0  0
   -0.1154   -7.4658    3.4126 N   0  0  0  0  0  0  0  0  0  0  0  0
    3.5766   -7.6890    3.1686 C   0  0  1  0  0  0  0  0  0  0  0  0
    4.8889   -9.4119    1.5296 H   0  0  0  0  0  0  0  0  0  0  0  0
    4.3247   -8.6909   -0.0012 H   0  0  0  0  0  0  0  0  0  0  0  0
    3.1605   -9.4373    1.1040 H   0  0  0  0  0  0  0  0  0  0  0  0
    5.9424   -7.1766    2.1593 H   0  0  0  0  0  0  0  0  0  0  0  0
    5.4430   -6.5653    0.6232 H   0  0  0  0  0  0  0  0  0  0  0  0
    5.8867   -4.9084    2.6333 H   0  0  0  0  0  0  0  0  0  0  0  0
    5.0404   -2.9991    3.7271 H   0  0  0  0  0  0  0  0  0  0  0  0
    5.3705   -1.5295    2.8651 H   0  0  0  0  0  0  0  0  0  0  0  0
    2.5385   -2.4246    3.7286 H   0  0  0  0  0  0  0  0  0  0  0  0
    3.5052   -1.2619    4.5773 H   0  0  0  0  0  0  0  0  0  0  0  0
    1.3934    1.3061    1.3240 H   0  0  0  0  0  0  0  0  0  0  0  0
    1.4149    3.7231    2.0923 H   0  0  0  0  0  0  0  0  0  0  0  0
    3.8465    2.7488    5.2897 H   0  0  0  0  0  0  0  0  0  0  0  0
    1.7198   -1.8831    1.3082 H   0  0  0  0  0  0  0  0  0  0  0  0
    2.2778   -0.3887    0.5861 H   0  0  0  0  0  0  0  0  0  0  0  0
    4.6143   -1.1540    0.5866 H   0  0  0  0  0  0  0  0  0  0  0  0
    3.5864   -2.2734   -0.2495 H   0  0  0  0  0  0  0  0  0  0  0  0
    4.6027   -5.7866    4.4786 H   0  0  0  0  0  0  0  0  0  0  0  0
    3.5209   -4.4759    3.9935 H   0  0  0  0  0  0  0  0  0  0  0  0
    2.2390   -5.9010    2.5470 H   0  0  0  0  0  0  0  0  0  0  0  0
    2.2930   -7.6120    5.0031 H   0  0  0  0  0  0  0  0  0  0  0  0
    2.0018  -10.0951    3.0057 H   0  0  0  0  0  0  0  0  0  0  0  0
   -0.0719  -11.1492    2.1276 H   0  0  0  0  0  0  0  0  0  0  0  0
   -2.1981   -9.8290    2.1394 H   0  0  0  0  0  0  0  0  0  0  0  0
   -2.1516   -7.4864    3.0233 H   0  0  0  0  0  0  0  0  0  0  0  0
    4.4396   -7.9387    3.7714 H   0  0  0  0  0  0  0  0  0  0  0  0
    3.1482   -7.0510    1.2680 H   0  0  0  0  0  0  0  0  0  0  0  0
    2.6099    4.2958    4.0046 H   0  0  0  0  0  0  0  0  0  0  0  0
  1  2  1  0
  1 29  1  0
  1 30  1  0
  1 31  1  0
  2 28  1  0
  2  3  1  0
  2 55  1  6
  3  4  1  0
  3 32  1  0
  3 33  1  0
  4  5  1  0
  4 19  1  0
  4 34  1  1
  5  6  2  0
  5  7  1  0
  7 18  1  0
  7  8  1  0
  8  9  1  0
  8 35  1  0
  8 36  1  0
  9 10  1  0
  9 37  1  0
  9 38  1  0
 10 11  1  0
 10 17  1  0
 11 16  1  0
 11 12  2  0
 12 13  1  0
 12 39  1  0
 13 14  2  0
 13 40  1  0
 14 15  1  0
 14 56  1  0
 15 16  2  0
 15 41  1  0
 17 18  1  0
 17 42  1  0
 17 43  1  0
 18 44  1  0
 18 45  1  0
 19 20  1  0
 19 46  1  0
 19 47  1  0
 20 28  1  0
 20 21  1  0
 20 48  1  6
 21 22  1  0
 21 28  1  0
 21 49  1  1
 22 27  1  0
 22 23  2  0
 23 24  1  0
 23 50  1  0
 24 25  2  0
 24 51  1  0
 25 26  1  0
 25 52  1  0
 26 27  2  0
 26 53  1  0
 28 54  1  1
M  CHG  2   2   1  14   1
M  END
>  <i_m_ct_stereo_status>  (43) 
1

>  <s_m_source_file>  (43) 
/var/tmp/pbs.5076255.sched01/tmp5vb4dkz1/0x5hafel7.sdf

>  <i_m_source_file_index>  (43) 
18

>  <i_lp_mmshare_version>  (43) 
48012

>  <i_f3d_flags>  (43) 
0

>  <s_epik_input>  (43) 
bjFbY0hdW2NIXVtjSF1bY0hdYzFbQ0BIXTJbQ0BIXShbQ0BASF0yMylOKFtDSDNdKVtDSDJdW0NASF0oW0NIMl0zKUMoPU8pTjRbQ0gyXVtDSDJdTihbQ0gyXVtDSDJdNCljNVtjSF1bY0hdbltjSF1uNQ==

>  <s_epik_cmdline>  (43) 
J2VwaWtfcHl0aG9uJywgJy1waHQnLCAnMi4wJywgJy1waCcsICc3LjAnLCAnLXRuJywgJzgnLCAnLW1hJywgJzIwMCcsICctaW1hZScsICc8aW5maWxlLm1hZT4nLCAnLW9tYWUnLCAnPG91dGZpbGUubWFlPic=

>  <r_lp_tautomer_probability>  (43) 
0.999336

>  <r_epik_Ionization_Penalty>  (43) 
1.80405

>  <r_epik_Ionization_Penalty_Charging>  (43) 
1.80359

>  <r_epik_Ionization_Penalty_Neutral>  (43) 
0.000460693

>  <r_epik_State_Penalty>  (43) 
1.88592

>  <r_epik_Charging_Adjusted_Penalty>  (43) 
3.6895

>  <i_epik_Tot_Q>  (43) 
2

>  <i_epik_Tot_abs_Q>  (43) 
2

>  <s_lp_Force_Field>  (43) 
OPLS3e

>  <r_lp_Energy>  (43) 
102.401

>  <b_lp_Chiralities_Consistent>  (43) 
1

>  <s_lp_Variant>  (43) 
11:0-3

>  <s_i_glide_gridfile>  (43) 
pfpi4k_grid

>  <i_i_glide_lignum>  (43) 
18

>  <i_i_glide_rotatable_bonds>  (43) 
4

>  <r_i_docking_score>  (43) 
-2.72167

>  <r_i_glide_ligand_efficiency>  (43) 
-0.0972025

>  <r_i_glide_ligand_efficiency_sa>  (43) 
-0.295164

>  <r_i_glide_ligand_efficiency_ln>  (43) 
-0.628241

>  <r_i_glide_gscore>  (43) 
-2.72167

>  <r_i_glide_lipo>  (43) 
-0.518339

>  <r_i_glide_hbond>  (43) 
0

>  <r_i_glide_metal>  (43) 
-0

>  <r_i_glide_rewards>  (43) 
-0.857262

>  <r_i_glide_evdw>  (43) 
-23.3976

>  <r_i_glide_ecoul>  (43) 
-4.45912

>  <r_i_glide_erotb>  (43) 
0.53605

>  <r_i_glide_esite>  (43) 
-0.0433723

>  <r_i_glide_emodel>  (43) 
-32.7685

>  <r_i_glide_energy>  (43) 
-27.8567

>  <r_i_glide_einternal>  (43) 
2.101

>  <r_i_glide_intrahb_reward>  (43) 
-0

>  <i_i_glide_confnum>  (43) 
2

>  <i_i_glide_posenum>  (43) 
37

>  <r_i_glide_eff_state_penalty>  (43) 
0

>  <ligand_id>  (43) 
11

>  <original_smiles>  (43) 
CN1CC(C(=O)N2CCN(c3ccncn3)CC2)CC2C(c3ccccn3)C21

>  <smiles>  (43) 
[H]c1nc(C2([H])C3([H])C([H])([H])C([H])(C(=O)N4C([H])([H])C([H])([H])N(c5nc([H])[n+]([H])c([H])c5[H])C([H])([H])C4([H])[H])C([H])([H])[N+]([H])(C([H])([H])[H])C23[H])c([H])c([H])c1[H]

$$$$
11:2:1
     RDKit          3D

 56 60  0  0  1  0  0  0  0  0999 V2000
    2.8012   -6.4644    6.5675 C   0  0  0  0  0  0  0  0  0  0  0  0
    1.9800   -5.3491    6.0473 N   0  0  2  0  0  0  0  0  0  0  0  0
    2.3631   -4.0358    6.6567 C   0  0  0  0  0  0  0  0  0  0  0  0
    1.5086   -2.8218    6.1255 C   0  0  1  0  0  0  0  0  0  0  0  0
    2.1797   -2.2033    4.8736 C   0  0  0  0  0  0  0  0  0  0  0  0
    2.6967   -2.9801    4.0687 O   0  0  0  0  0  0  0  0  0  0  0  0
    2.2335   -0.8550    4.7170 N   0  0  0  0  0  0  0  0  0  0  0  0
    1.5445    0.1402    5.5624 C   0  0  0  0  0  0  0  0  0  0  0  0
    0.6098    1.0112    4.7023 C   0  0  0  0  0  0  0  0  0  0  0  0
    1.3446    1.6029    3.5897 N   0  0  0  0  0  0  0  0  0  0  0  0
    1.4442    3.0088    3.4561 C   0  0  0  0  0  0  0  0  0  0  0  0
    2.5665    3.6302    2.8820 C   0  0  0  0  0  0  0  0  0  0  0  0
    2.5668    5.0322    2.8184 C   0  0  0  0  0  0  0  0  0  0  0  0
    1.5095    5.7419    3.2876 N   0  0  0  0  0  0  0  0  0  0  0  0
    0.4773    5.0863    3.8230 C   0  0  0  0  0  0  0  0  0  0  0  0
    0.4342    3.7589    3.9453 N   0  0  0  0  0  0  0  0  0  0  0  0
    2.0948    0.6665    2.7570 C   0  0  0  0  0  0  0  0  0  0  0  0
    3.0079   -0.2220    3.6288 C   0  0  0  0  0  0  0  0  0  0  0  0
    0.0184   -3.2230    5.8354 C   0  0  0  0  0  0  0  0  0  0  0  0
    0.0272   -4.5891    5.1842 C   0  0  2  0  0  0  0  0  0  0  0  0
   -0.5998   -5.9334    5.4083 C   0  0  1  0  0  0  0  0  0  0  0  0
   -0.4456   -7.1311    4.5119 C   0  0  0  0  0  0  0  0  0  0  0  0
    0.1699   -8.3038    4.9910 C   0  0  0  0  0  0  0  0  0  0  0  0
    0.2964   -9.4095    4.1315 C   0  0  0  0  0  0  0  0  0  0  0  0
   -0.2175   -9.3053    2.8296 C   0  0  0  0  0  0  0  0  0  0  0  0
   -0.8535   -8.1106    2.4506 C   0  0  0  0  0  0  0  0  0  0  0  0
   -0.9672   -7.0357    3.2655 N   0  0  0  0  0  0  0  0  0  0  0  0
    0.5331   -5.5084    6.3108 C   0  0  1  0  0  0  0  0  0  0  0  0
    2.6688   -6.5737    7.6497 H   0  0  0  0  0  0  0  0  0  0  0  0
    3.8628   -6.2881    6.3680 H   0  0  0  0  0  0  0  0  0  0  0  0
    2.5311   -7.4061    6.0857 H   0  0  0  0  0  0  0  0  0  0  0  0
    2.2200   -4.1037    7.7378 H   0  0  0  0  0  0  0  0  0  0  0  0
    3.4309   -3.8528    6.5189 H   0  0  0  0  0  0  0  0  0  0  0  0
    1.5382   -2.1041    6.9385 H   0  0  0  0  0  0  0  0  0  0  0  0
    0.9259   -0.2796    6.3493 H   0  0  0  0  0  0  0  0  0  0  0  0
    2.2961    0.7655    6.0533 H   0  0  0  0  0  0  0  0  0  0  0  0
   -0.1872    0.3952    4.2862 H   0  0  0  0  0  0  0  0  0  0  0  0
    0.1335    1.7561    5.3369 H   0  0  0  0  0  0  0  0  0  0  0  0
    3.4004    3.0669    2.4935 H   0  0  0  0  0  0  0  0  0  0  0  0
    3.3691    5.6107    2.3820 H   0  0  0  0  0  0  0  0  0  0  0  0
   -0.3411    5.6876    4.1877 H   0  0  0  0  0  0  0  0  0  0  0  0
    1.3666    0.0339    2.2444 H   0  0  0  0  0  0  0  0  0  0  0  0
    2.6636    1.1587    1.9673 H   0  0  0  0  0  0  0  0  0  0  0  0
    3.8049    0.3816    4.0638 H   0  0  0  0  0  0  0  0  0  0  0  0
    3.5100   -0.9464    2.9856 H   0  0  0  0  0  0  0  0  0  0  0  0
   -0.5540   -3.2518    6.7654 H   0  0  0  0  0  0  0  0  0  0  0  0
   -0.4719   -2.5006    5.1787 H   0  0  0  0  0  0  0  0  0  0  0  0
    0.4997   -4.5605    4.1999 H   0  0  0  0  0  0  0  0  0  0  0  0
   -1.6034   -5.9165    5.8363 H   0  0  0  0  0  0  0  0  0  0  0  0
    0.5255   -8.3758    6.0065 H   0  0  0  0  0  0  0  0  0  0  0  0
    0.7823  -10.3127    4.4621 H   0  0  0  0  0  0  0  0  0  0  0  0
   -0.1278  -10.1241    2.1322 H   0  0  0  0  0  0  0  0  0  0  0  0
   -1.2573   -8.0055    1.4564 H   0  0  0  0  0  0  0  0  0  0  0  0
    0.2667   -5.3334    7.3524 H   0  0  0  0  0  0  0  0  0  0  0  0
    2.1393   -5.2748    5.0470 H   0  0  0  0  0  0  0  0  0  0  0  0
    1.4880    6.7609    3.1970 H   0  0  0  0  0  0  0  0  0  0  0  0
  1  2  1  0
  1 29  1  0
  1 30  1  0
  1 31  1  0
  2 28  1  0
  2  3  1  0
  2 55  1  6
  3  4  1  0
  3 32  1  0
  3 33  1  0
  4  5  1  0
  4 19  1  0
  4 34  1  1
  5  6  2  0
  5  7  1  0
  7 18  1  0
  7  8  1  0
  8  9  1  0
  8 35  1  0
  8 36  1  0
  9 10  1  0
  9 37  1  0
  9 38  1  0
 10 11  1  0
 10 17  1  0
 11 16  1  0
 11 12  2  0
 12 13  1  0
 12 39  1  0
 13 14  2  0
 13 40  1  0
 14 15  1  0
 14 56  1  0
 15 16  2  0
 15 41  1  0
 17 18  1  0
 17 42  1  0
 17 43  1  0
 18 44  1  0
 18 45  1  0
 19 20  1  0
 19 46  1  0
 19 47  1  0
 20 28  1  0
 20 21  1  0
 20 48  1  6
 21 22  1  0
 21 28  1  0
 21 49  1  1
 22 27  1  0
 22 23  2  0
 23 24  1  0
 23 50  1  0
 24 25  2  0
 24 51  1  0
 25 26  1  0
 25 52  1  0
 26 27  2  0
 26 53  1  0
 28 54  1  1
M  CHG  2   2   1  14   1
M  END
>  <i_m_ct_stereo_status>  (44) 
1

>  <s_m_source_file>  (44) 
/var/tmp/pbs.5076255.sched01/tmp5vb4dkz1/0x5hafel7.sdf

>  <i_m_source_file_index>  (44) 
18

>  <i_lp_mmshare_version>  (44) 
48012

>  <i_f3d_flags>  (44) 
0

>  <s_epik_input>  (44) 
bjFbY0hdW2NIXVtjSF1bY0hdYzFbQ0BIXTJbQ0BIXShbQ0BASF0yMylOKFtDSDNdKVtDSDJdW0NASF0oW0NIMl0zKUMoPU8pTjRbQ0gyXVtDSDJdTihbQ0gyXVtDSDJdNCljNVtjSF1bY0hdbltjSF1uNQ==

>  <s_epik_cmdline>  (44) 
J2VwaWtfcHl0aG9uJywgJy1waHQnLCAnMi4wJywgJy1waCcsICc3LjAnLCAnLXRuJywgJzgnLCAnLW1hJywgJzIwMCcsICctaW1hZScsICc8aW5maWxlLm1hZT4nLCAnLW9tYWUnLCAnPG91dGZpbGUubWFlPic=

>  <r_lp_tautomer_probability>  (44) 
0.999336

>  <r_epik_Ionization_Penalty>  (44) 
1.80405

>  <r_epik_Ionization_Penalty_Charging>  (44) 
1.80359

>  <r_epik_Ionization_Penalty_Neutral>  (44) 
0.000460693

>  <r_epik_State_Penalty>  (44) 
1.88592

>  <r_epik_Charging_Adjusted_Penalty>  (44) 
3.6895

>  <i_epik_Tot_Q>  (44) 
2

>  <i_epik_Tot_abs_Q>  (44) 
2

>  <s_lp_Force_Field>  (44) 
OPLS3e

>  <r_lp_Energy>  (44) 
102.401

>  <b_lp_Chiralities_Consistent>  (44) 
1

>  <s_lp_Variant>  (44) 
11:0-3

>  <s_i_glide_gridfile>  (44) 
pfpi4k_grid

>  <i_i_glide_lignum>  (44) 
18

>  <i_i_glide_rotatable_bonds>  (44) 
4

>  <r_i_docking_score>  (44) 
-2.63498

>  <r_i_glide_ligand_efficiency>  (44) 
-0.0941065

>  <r_i_glide_ligand_efficiency_sa>  (44) 
-0.285763

>  <r_i_glide_ligand_efficiency_ln>  (44) 
-0.608231

>  <r_i_glide_gscore>  (44) 
-2.63498

>  <r_i_glide_lipo>  (44) 
0

>  <r_i_glide_hbond>  (44) 
-0.135023

>  <r_i_glide_metal>  (44) 
-0

>  <r_i_glide_rewards>  (44) 
-0.814864

>  <r_i_glide_evdw>  (44) 
-22.1788

>  <r_i_glide_ecoul>  (44) 
-6.28247

>  <r_i_glide_erotb>  (44) 
0.53605

>  <r_i_glide_esite>  (44) 
-0.169833

>  <r_i_glide_emodel>  (44) 
-34.4082

>  <r_i_glide_energy>  (44) 
-28.4613

>  <r_i_glide_einternal>  (44) 
0.538332

>  <r_i_glide_intrahb_reward>  (44) 
-0

>  <i_i_glide_confnum>  (44) 
2

>  <i_i_glide_posenum>  (44) 
3

>  <r_i_glide_eff_state_penalty>  (44) 
0

>  <ligand_id>  (44) 
11

>  <original_smiles>  (44) 
CN1CC(C(=O)N2CCN(c3ccncn3)CC2)CC2C(c3ccccn3)C21

>  <smiles>  (44) 
[H]c1nc(C2([H])C3([H])C([H])([H])C([H])(C(=O)N4C([H])([H])C([H])([H])N(c5nc([H])[n+]([H])c([H])c5[H])C([H])([H])C4([H])[H])C([H])([H])[N+]([H])(C([H])([H])[H])C23[H])c([H])c([H])c1[H]

$$$$
11:2:2
     RDKit          3D

 56 60  0  0  1  0  0  0  0  0999 V2000
    3.8269   -7.9036    1.2975 C   0  0  0  0  0  0  0  0  0  0  0  0
    3.4505   -6.6747    2.0344 N   0  0  2  0  0  0  0  0  0  0  0  0
    4.5529   -5.6574    2.0561 C   0  0  0  0  0  0  0  0  0  0  0  0
    4.1613   -4.3387    2.8241 C   0  0  1  0  0  0  0  0  0  0  0  0
    3.5012   -3.3204    1.8628 C   0  0  0  0  0  0  0  0  0  0  0  0
    2.9384   -3.7613    0.8583 O   0  0  0  0  0  0  0  0  0  0  0  0
    3.5855   -1.9884    2.1220 N   0  0  0  0  0  0  0  0  0  0  0  0
    4.1501   -1.3774    3.3409 C   0  0  0  0  0  0  0  0  0  0  0  0
    3.0808   -0.5276    4.0511 C   0  0  0  0  0  0  0  0  0  0  0  0
    2.5029    0.4491    3.1281 N   0  0  0  0  0  0  0  0  0  0  0  0
    2.6150    1.8450    3.3612 C   0  0  0  0  0  0  0  0  0  0  0  0
    2.0535    2.8029    2.4970 C   0  0  0  0  0  0  0  0  0  0  0  0
    2.2180    4.1566    2.8199 C   0  0  0  0  0  0  0  0  0  0  0  0
    2.8992    4.5121    3.9344 N   0  0  0  0  0  0  0  0  0  0  0  0
    3.4086    3.5592    4.7232 C   0  0  0  0  0  0  0  0  0  0  0  0
    3.2780    2.2554    4.4629 N   0  0  0  0  0  0  0  0  0  0  0  0
    1.9819   -0.1152    1.8795 C   0  0  0  0  0  0  0  0  0  0  0  0
    3.0563   -0.9760    1.1893 C   0  0  0  0  0  0  0  0  0  0  0  0
    3.2511   -4.6225    4.0701 C   0  0  0  0  0  0  0  0  0  0  0  0
    2.2386   -5.6679    3.6683 C   0  0  2  0  0  0  0  0  0  0  0  0
    1.7662   -7.0057    4.1557 C   0  0  1  0  0  0  0  0  0  0  0  0
    0.6527   -7.8017    3.5462 C   0  0  0  0  0  0  0  0  0  0  0  0
    0.8807   -9.1224    3.1134 C   0  0  0  0  0  0  0  0  0  0  0  0
   -0.1880   -9.8504    2.5646 C   0  0  0  0  0  0  0  0  0  0  0  0
   -1.4474   -9.2360    2.4806 C   0  0  0  0  0  0  0  0  0  0  0  0
   -1.5905   -7.9321    2.9821 C   0  0  0  0  0  0  0  0  0  0  0  0
   -0.5634   -7.2074    3.4874 N   0  0  0  0  0  0  0  0  0  0  0  0
    3.1046   -6.9229    3.4555 C   0  0  1  0  0  0  0  0  0  0  0  0
    4.6886   -8.3846    1.7687 H   0  0  0  0  0  0  0  0  0  0  0  0
    4.0943   -7.6576    0.2657 H   0  0  0  0  0  0  0  0  0  0  0  0
    2.9937   -8.6109    1.2779 H   0  0  0  0  0  0  0  0  0  0  0  0
    5.4223   -6.1000    2.5454 H   0  0  0  0  0  0  0  0  0  0  0  0
    4.8783   -5.4401    1.0349 H   0  0  0  0  0  0  0  0  0  0  0  0
    5.1120   -3.9156    3.1490 H   0  0  0  0  0  0  0  0  0  0  0  0
    4.5212   -2.0939    4.0728 H   0  0  0  0  0  0  0  0  0  0  0  0
    5.0050   -0.7576    3.0633 H   0  0  0  0  0  0  0  0  0  0  0  0
    2.2713   -1.1715    4.4012 H   0  0  0  0  0  0  0  0  0  0  0  0
    3.5157   -0.0877    4.9481 H   0  0  0  0  0  0  0  0  0  0  0  0
    1.4822    2.5665    1.6110 H   0  0  0  0  0  0  0  0  0  0  0  0
    1.8172    4.9562    2.2141 H   0  0  0  0  0  0  0  0  0  0  0  0
    3.9469    3.8876    5.6030 H   0  0  0  0  0  0  0  0  0  0  0  0
    1.1186   -0.7358    2.1302 H   0  0  0  0  0  0  0  0  0  0  0  0
    1.6194    0.6201    1.1672 H   0  0  0  0  0  0  0  0  0  0  0  0
    3.8748   -0.3463    0.8397 H   0  0  0  0  0  0  0  0  0  0  0  0
    2.6196   -1.4147    0.2911 H   0  0  0  0  0  0  0  0  0  0  0  0
    3.8543   -4.9752    4.9106 H   0  0  0  0  0  0  0  0  0  0  0  0
    2.7313   -3.7223    4.4104 H   0  0  0  0  0  0  0  0  0  0  0  0
    1.5626   -5.2879    2.8975 H   0  0  0  0  0  0  0  0  0  0  0  0
    1.7879   -7.1650    5.2356 H   0  0  0  0  0  0  0  0  0  0  0  0
    1.8505   -9.5865    3.2067 H   0  0  0  0  0  0  0  0  0  0  0  0
   -0.0434  -10.8549    2.2027 H   0  0  0  0  0  0  0  0  0  0  0  0
   -2.2891   -9.7666    2.0711 H   0  0  0  0  0  0  0  0  0  0  0  0
   -2.5541   -7.4519    2.9492 H   0  0  0  0  0  0  0  0  0  0  0  0
    3.9767   -7.1270    4.0736 H   0  0  0  0  0  0  0  0  0  0  0  0
    2.6552   -6.2491    1.5624 H   0  0  0  0  0  0  0  0  0  0  0  0
    3.0139    5.5028    4.1547 H   0  0  0  0  0  0  0  0  0  0  0  0
  1  2  1  0
  1 29  1  0
  1 30  1  0
  1 31  1  0
  2 28  1  0
  2  3  1  0
  2 55  1  6
  3  4  1  0
  3 32  1  0
  3 33  1  0
  4  5  1  0
  4 19  1  0
  4 34  1  1
  5  6  2  0
  5  7  1  0
  7 18  1  0
  7  8  1  0
  8  9  1  0
  8 35  1  0
  8 36  1  0
  9 10  1  0
  9 37  1  0
  9 38  1  0
 10 11  1  0
 10 17  1  0
 11 16  1  0
 11 12  2  0
 12 13  1  0
 12 39  1  0
 13 14  2  0
 13 40  1  0
 14 15  1  0
 14 56  1  0
 15 16  2  0
 15 41  1  0
 17 18  1  0
 17 42  1  0
 17 43  1  0
 18 44  1  0
 18 45  1  0
 19 20  1  0
 19 46  1  0
 19 47  1  0
 20 28  1  0
 20 21  1  0
 20 48  1  6
 21 22  1  0
 21 28  1  0
 21 49  1  1
 22 27  1  0
 22 23  2  0
 23 24  1  0
 23 50  1  0
 24 25  2  0
 24 51  1  0
 25 26  1  0
 25 52  1  0
 26 27  2  0
 26 53  1  0
 28 54  1  1
M  CHG  2   2   1  14   1
M  END
>  <i_m_ct_stereo_status>  (45) 
1

>  <s_m_source_file>  (45) 
/var/tmp/pbs.5076255.sched01/tmp5vb4dkz1/0x5hafel7.sdf

>  <i_m_source_file_index>  (45) 
18

>  <i_lp_mmshare_version>  (45) 
48012

>  <i_f3d_flags>  (45) 
0

>  <s_epik_input>  (45) 
bjFbY0hdW2NIXVtjSF1bY0hdYzFbQ0BIXTJbQ0BIXShbQ0BASF0yMylOKFtDSDNdKVtDSDJdW0NASF0oW0NIMl0zKUMoPU8pTjRbQ0gyXVtDSDJdTihbQ0gyXVtDSDJdNCljNVtjSF1bY0hdbltjSF1uNQ==

>  <s_epik_cmdline>  (45) 
J2VwaWtfcHl0aG9uJywgJy1waHQnLCAnMi4wJywgJy1waCcsICc3LjAnLCAnLXRuJywgJzgnLCAnLW1hJywgJzIwMCcsICctaW1hZScsICc8aW5maWxlLm1hZT4nLCAnLW9tYWUnLCAnPG91dGZpbGUubWFlPic=

>  <r_lp_tautomer_probability>  (45) 
0.999336

>  <r_epik_Ionization_Penalty>  (45) 
1.80405

>  <r_epik_Ionization_Penalty_Charging>  (45) 
1.80359

>  <r_epik_Ionization_Penalty_Neutral>  (45) 
0.000460693

>  <r_epik_State_Penalty>  (45) 
1.88592

>  <r_epik_Charging_Adjusted_Penalty>  (45) 
3.6895

>  <i_epik_Tot_Q>  (45) 
2

>  <i_epik_Tot_abs_Q>  (45) 
2

>  <s_lp_Force_Field>  (45) 
OPLS3e

>  <r_lp_Energy>  (45) 
102.401

>  <b_lp_Chiralities_Consistent>  (45) 
1

>  <s_lp_Variant>  (45) 
11:0-3

>  <s_i_glide_gridfile>  (45) 
pfpi4k_grid

>  <i_i_glide_lignum>  (45) 
18

>  <i_i_glide_rotatable_bonds>  (45) 
4

>  <r_i_docking_score>  (45) 
-2.54637

>  <r_i_glide_ligand_efficiency>  (45) 
-0.0909419

>  <r_i_glide_ligand_efficiency_sa>  (45) 
-0.276153

>  <r_i_glide_ligand_efficiency_ln>  (45) 
-0.587778

>  <r_i_glide_gscore>  (45) 
-2.54637

>  <r_i_glide_lipo>  (45) 
-0.293792

>  <r_i_glide_hbond>  (45) 
0

>  <r_i_glide_metal>  (45) 
-0

>  <r_i_glide_rewards>  (45) 
-0.817657

>  <r_i_glide_evdw>  (45) 
-24.9293

>  <r_i_glide_ecoul>  (45) 
-4.73049

>  <r_i_glide_erotb>  (45) 
0.53605

>  <r_i_glide_esite>  (45) 
-0.0149372

>  <r_i_glide_emodel>  (45) 
-35.5499

>  <r_i_glide_energy>  (45) 
-29.6598

>  <r_i_glide_einternal>  (45) 
0.34

>  <r_i_glide_intrahb_reward>  (45) 
-0

>  <i_i_glide_confnum>  (45) 
2

>  <i_i_glide_posenum>  (45) 
20

>  <r_i_glide_eff_state_penalty>  (45) 
0

>  <ligand_id>  (45) 
11

>  <original_smiles>  (45) 
CN1CC(C(=O)N2CCN(c3ccncn3)CC2)CC2C(c3ccccn3)C21

>  <smiles>  (45) 
[H]c1nc(C2([H])C3([H])C([H])([H])C([H])(C(=O)N4C([H])([H])C([H])([H])N(c5nc([H])[n+]([H])c([H])c5[H])C([H])([H])C4([H])[H])C([H])([H])[N+]([H])(C([H])([H])[H])C23[H])c([H])c([H])c1[H]

$$$$
11:3:0
     RDKit          3D

 55 59  0  0  1  0  0  0  0  0999 V2000
   -1.7709   -0.5910    4.9479 C   0  0  0  0  0  0  0  0  0  0  0  0
   -0.3862   -1.0405    4.9659 N   0  0  0  0  0  0  0  0  0  0  0  0
   -0.3171   -2.4987    5.1555 C   0  0  0  0  0  0  0  0  0  0  0  0
    1.1103   -3.0782    5.4699 C   0  0  1  0  0  0  0  0  0  0  0  0
    1.7215   -3.7737    4.2139 C   0  0  0  0  0  0  0  0  0  0  0  0
    1.9890   -3.0890    3.2254 O   0  0  0  0  0  0  0  0  0  0  0  0
    1.9177   -5.1292    4.2225 N   0  0  0  0  0  0  0  0  0  0  0  0
    2.4517   -5.8524    3.0419 C   0  0  0  0  0  0  0  0  0  0  0  0
    1.4689   -6.9583    2.5886 C   0  0  0  0  0  0  0  0  0  0  0  0
    1.0827   -7.8205    3.7040 N   0  0  0  0  0  0  0  0  0  0  0  0
    1.3748   -9.1976    3.7268 C   0  0  0  0  0  0  0  0  0  0  0  0
    0.6792  -10.0780    4.5746 C   0  0  0  0  0  0  0  0  0  0  0  0
    1.0171  -11.4360    4.5053 C   0  0  0  0  0  0  0  0  0  0  0  0
    1.9864  -11.8550    3.6571 N   0  0  0  0  0  0  0  0  0  0  0  0
    2.6223  -10.9675    2.8872 C   0  0  0  0  0  0  0  0  0  0  0  0
    2.3419   -9.6582    2.9028 N   0  0  0  0  0  0  0  0  0  0  0  0
    0.6333   -7.1276    4.9050 C   0  0  0  0  0  0  0  0  0  0  0  0
    1.6617   -6.0714    5.3394 C   0  0  0  0  0  0  0  0  0  0  0  0
    2.0941   -2.0878    6.1734 C   0  0  0  0  0  0  0  0  0  0  0  0
    1.7889   -0.6970    5.6856 C   0  0  2  0  0  0  0  0  0  0  0  0
    1.2878    0.6119    6.2606 C   0  0  1  0  0  0  0  0  0  0  0  0
    1.1299    1.8622    5.4485 C   0  0  0  0  0  0  0  0  0  0  0  0
    2.0366    2.2022    4.4269 C   0  0  0  0  0  0  0  0  0  0  0  0
    1.8258    3.3874    3.6973 C   0  0  0  0  0  0  0  0  0  0  0  0
    0.7257    4.1954    4.0332 C   0  0  0  0  0  0  0  0  0  0  0  0
   -0.1141    3.7811    5.0807 C   0  0  0  0  0  0  0  0  0  0  0  0
    0.0782    2.6435    5.7846 N   0  0  0  0  0  0  0  0  0  0  0  0
    0.3340   -0.5288    6.1123 C   0  0  1  0  0  0  0  0  0  0  0  0
   -2.2874   -1.0233    4.0898 H   0  0  0  0  0  0  0  0  0  0  0  0
   -1.8104    0.4948    4.8493 H   0  0  0  0  0  0  0  0  0  0  0  0
   -2.3136   -0.8786    5.8502 H   0  0  0  0  0  0  0  0  0  0  0  0
   -0.9889   -2.8120    5.9580 H   0  0  0  0  0  0  0  0  0  0  0  0
   -0.7048   -2.9625    4.2505 H   0  0  0  0  0  0  0  0  0  0  0  0
    0.9047   -3.7725    6.2770 H   0  0  0  0  0  0  0  0  0  0  0  0
    2.6612   -5.1998    2.1895 H   0  0  0  0  0  0  0  0  0  0  0  0
    3.4111   -6.3046    3.3023 H   0  0  0  0  0  0  0  0  0  0  0  0
    0.5518   -6.4952    2.2327 H   0  0  0  0  0  0  0  0  0  0  0  0
    1.8737   -7.5212    1.7475 H   0  0  0  0  0  0  0  0  0  0  0  0
   -0.1300   -9.7697    5.2207 H   0  0  0  0  0  0  0  0  0  0  0  0
    0.5291  -12.2047    5.0838 H   0  0  0  0  0  0  0  0  0  0  0  0
    3.3879  -11.3560    2.2291 H   0  0  0  0  0  0  0  0  0  0  0  0
   -0.3193   -6.6511    4.6681 H   0  0  0  0  0  0  0  0  0  0  0  0
    0.4498   -7.7967    5.7453 H   0  0  0  0  0  0  0  0  0  0  0  0
    2.6076   -6.5342    5.6332 H   0  0  0  0  0  0  0  0  0  0  0  0
    1.2468   -5.6810    6.2674 H   0  0  0  0  0  0  0  0  0  0  0  0
    1.9319   -2.1277    7.2508 H   0  0  0  0  0  0  0  0  0  0  0  0
    3.1448   -2.3382    5.9851 H   0  0  0  0  0  0  0  0  0  0  0  0
    2.0365   -0.6090    4.6337 H   0  0  0  0  0  0  0  0  0  0  0  0
    1.6750    0.8514    7.2474 H   0  0  0  0  0  0  0  0  0  0  0  0
    2.8729    1.5643    4.1915 H   0  0  0  0  0  0  0  0  0  0  0  0
    2.4877    3.6635    2.8907 H   0  0  0  0  0  0  0  0  0  0  0  0
    0.5312    5.1029    3.4784 H   0  0  0  0  0  0  0  0  0  0  0  0
   -0.9717    4.3795    5.3530 H   0  0  0  0  0  0  0  0  0  0  0  0
    0.0326   -0.8918    7.0937 H   0  0  0  0  0  0  0  0  0  0  0  0
    2.1918  -12.8510    3.5911 H   0  0  0  0  0  0  0  0  0  0  0  0
  1  2  1  0
  1 29  1  0
  1 30  1  0
  1 31  1  0
  2 28  1  0
  2  3  1  0
  3  4  1  0
  3 32  1  0
  3 33  1  0
  4  5  1  0
  4 19  1  0
  4 34  1  1
  5  6  2  0
  5  7  1  0
  7 18  1  0
  7  8  1  0
  8  9  1  0
  8 35  1  0
  8 36  1  0
  9 10  1  0
  9 37  1  0
  9 38  1  0
 10 11  1  0
 10 17  1  0
 11 16  1  0
 11 12  2  0
 12 13  1  0
 12 39  1  0
 13 14  2  0
 13 40  1  0
 14 15  1  0
 14 55  1  0
 15 16  2  0
 15 41  1  0
 17 18  1  0
 17 42  1  0
 17 43  1  0
 18 44  1  0
 18 45  1  0
 19 20  1  0
 19 46  1  0
 19 47  1  0
 20 28  1  0
 20 21  1  0
 20 48  1  6
 21 22  1  0
 21 28  1  0
 21 49  1  1
 22 27  1  0
 22 23  2  0
 23 24  1  0
 23 50  1  0
 24 25  2  0
 24 51  1  0
 25 26  1  0
 25 52  1  0
 26 27  2  0
 26 53  1  0
 28 54  1  1
M  CHG  1  14   1
M  END
>  <i_m_ct_stereo_status>  (46) 
1

>  <s_m_source_file>  (46) 
/var/tmp/pbs.5076255.sched01/tmp5vb4dkz1/0x5hafel7.sdf

>  <i_m_source_file_index>  (46) 
19

>  <i_lp_mmshare_version>  (46) 
48012

>  <i_f3d_flags>  (46) 
0

>  <s_epik_input>  (46) 
bjFbY0hdW2NIXVtjSF1bY0hdYzFbQ0BIXTJbQ0BIXShbQ0BASF0yMylOKFtDSDNdKVtDSDJdW0NASF0oW0NIMl0zKUMoPU8pTjRbQ0gyXVtDSDJdTihbQ0gyXVtDSDJdNCljNVtjSF1bY0hdbltjSF1uNQ==

>  <s_epik_cmdline>  (46) 
J2VwaWtfcHl0aG9uJywgJy1waHQnLCAnMi4wJywgJy1waCcsICc3LjAnLCAnLXRuJywgJzgnLCAnLW1hJywgJzIwMCcsICctaW1hZScsICc8aW5maWxlLm1hZT4nLCAnLW9tYWUnLCAnPG91dGZpbGUubWFlPic=

>  <r_epik_Ionization_Penalty>  (46) 
1.89481

>  <r_epik_Ionization_Penalty_Charging>  (46) 
1.40397

>  <r_epik_Ionization_Penalty_Neutral>  (46) 
0.490838

>  <r_epik_State_Penalty>  (46) 
1.97089

>  <r_epik_Charging_Adjusted_Penalty>  (46) 
3.37486

>  <i_epik_Tot_Q>  (46) 
1

>  <i_epik_Tot_abs_Q>  (46) 
1

>  <s_lp_Force_Field>  (46) 
OPLS3e

>  <r_lp_Energy>  (46) 
90.9898

>  <b_lp_Chiralities_Consistent>  (46) 
1

>  <s_lp_Variant>  (46) 
11:0-4

>  <s_i_glide_gridfile>  (46) 
pfpi4k_grid

>  <i_i_glide_lignum>  (46) 
19

>  <i_i_glide_rotatable_bonds>  (46) 
4

>  <r_i_docking_score>  (46) 
-2.09637

>  <r_i_glide_ligand_efficiency>  (46) 
-0.0748702

>  <r_i_glide_ligand_efficiency_sa>  (46) 
-0.22735

>  <r_i_glide_ligand_efficiency_ln>  (46) 
-0.483903

>  <r_i_glide_gscore>  (46) 
-2.09637

>  <r_i_glide_lipo>  (46) 
-0.0385431

>  <r_i_glide_hbond>  (46) 
0

>  <r_i_glide_metal>  (46) 
-0

>  <r_i_glide_rewards>  (46) 
-0.830936

>  <r_i_glide_evdw>  (46) 
-20.2187

>  <r_i_glide_ecoul>  (46) 
-4.65868

>  <r_i_glide_erotb>  (46) 
0.538604

>  <r_i_glide_esite>  (46) 
-0.0557525

>  <r_i_glide_emodel>  (46) 
-28.543

>  <r_i_glide_energy>  (46) 
-24.8774

>  <r_i_glide_einternal>  (46) 
1.64145

>  <r_i_glide_intrahb_reward>  (46) 
-0

>  <i_i_glide_confnum>  (46) 
1

>  <i_i_glide_posenum>  (46) 
8

>  <r_i_glide_eff_state_penalty>  (46) 
0

>  <ligand_id>  (46) 
11

>  <original_smiles>  (46) 
CN1CC(C(=O)N2CCN(c3ccncn3)CC2)CC2C(c3ccccn3)C21

>  <smiles>  (46) 
[H]c1nc(C2([H])C3([H])N(C([H])([H])[H])C([H])([H])C([H])(C(=O)N4C([H])([H])C([H])([H])N(c5nc([H])[n+]([H])c([H])c5[H])C([H])([H])C4([H])[H])C([H])([H])C23[H])c([H])c([H])c1[H]

$$$$
11:3:1
     RDKit          3D

 55 59  0  0  1  0  0  0  0  0999 V2000
   -1.9119   -0.7778    4.8960 C   0  0  0  0  0  0  0  0  0  0  0  0
   -0.4754   -0.6320    4.7226 N   0  0  0  0  0  0  0  0  0  0  0  0
    0.2149   -1.9087    4.9827 C   0  0  0  0  0  0  0  0  0  0  0  0
    1.7947   -1.8157    5.0853 C   0  0  1  0  0  0  0  0  0  0  0  0
    2.4536   -2.2909    3.7653 C   0  0  0  0  0  0  0  0  0  0  0  0
    2.9471   -1.4524    3.0087 O   0  0  0  0  0  0  0  0  0  0  0  0
    2.4711   -3.6234    3.4798 N   0  0  0  0  0  0  0  0  0  0  0  0
    1.9439   -4.7123    4.3352 C   0  0  0  0  0  0  0  0  0  0  0  0
    3.0600   -5.7296    4.6572 C   0  0  0  0  0  0  0  0  0  0  0  0
    3.6751   -6.2190    3.4231 N   0  0  0  0  0  0  0  0  0  0  0  0
    3.6338   -7.5852    3.0594 C   0  0  0  0  0  0  0  0  0  0  0  0
    4.3405   -8.0880    1.9504 C   0  0  0  0  0  0  0  0  0  0  0  0
    4.2321   -9.4611    1.6882 C   0  0  0  0  0  0  0  0  0  0  0  0
    3.4839  -10.2588    2.4816 N   0  0  0  0  0  0  0  0  0  0  0  0
    2.8276   -9.7305    3.5166 C   0  0  0  0  0  0  0  0  0  0  0  0
    2.8858   -8.4274    3.8121 N   0  0  0  0  0  0  0  0  0  0  0  0
    4.1606   -5.1701    2.5248 C   0  0  0  0  0  0  0  0  0  0  0  0
    3.0441   -4.1473    2.2269 C   0  0  0  0  0  0  0  0  0  0  0  0
    2.3234   -0.4307    5.5972 C   0  0  0  0  0  0  0  0  0  0  0  0
    1.4129    0.6597    5.0756 C   0  0  2  0  0  0  0  0  0  0  0  0
    0.4827    1.7108    5.6539 C   0  0  1  0  0  0  0  0  0  0  0  0
   -0.2698    2.7118    4.8185 C   0  0  0  0  0  0  0  0  0  0  0  0
    0.3011    3.9483    4.4490 C   0  0  0  0  0  0  0  0  0  0  0  0
   -0.4710    4.8412    3.6785 C   0  0  0  0  0  0  0  0  0  0  0  0
   -1.7812    4.4695    3.3041 C   0  0  0  0  0  0  0  0  0  0  0  0
   -2.2631    3.2264    3.7442 C   0  0  0  0  0  0  0  0  0  0  0  0
   -1.5442    2.3884    4.5096 N   0  0  0  0  0  0  0  0  0  0  0  0
    0.0849    0.2633    5.7112 C   0  0  1  0  0  0  0  0  0  0  0  0
   -2.2787   -1.4544    4.1394 H   0  0  0  0  0  0  0  0  0  0  0  0
   -2.4482    0.1542    4.7460 H   0  0  0  0  0  0  0  0  0  0  0  0
   -2.1783   -1.1595    5.8792 H   0  0  0  0  0  0  0  0  0  0  0  0
   -0.1830   -2.3631    5.8975 H   0  0  0  0  0  0  0  0  0  0  0  0
   -0.0739   -2.5776    4.1695 H   0  0  0  0  0  0  0  0  0  0  0  0
    2.1267   -2.5031    5.8607 H   0  0  0  0  0  0  0  0  0  0  0  0
    1.5127   -4.3950    5.2827 H   0  0  0  0  0  0  0  0  0  0  0  0
    1.1250   -5.2081    3.8103 H   0  0  0  0  0  0  0  0  0  0  0  0
    3.8397   -5.2482    5.2491 H   0  0  0  0  0  0  0  0  0  0  0  0
    2.6580   -6.5204    5.2922 H   0  0  0  0  0  0  0  0  0  0  0  0
    4.9757   -7.4856    1.3209 H   0  0  0  0  0  0  0  0  0  0  0  0
    4.7428   -9.9526    0.8674 H   0  0  0  0  0  0  0  0  0  0  0  0
    2.2344  -10.4027    4.1215 H   0  0  0  0  0  0  0  0  0  0  0  0
    4.9967   -4.6702    3.0134 H   0  0  0  0  0  0  0  0  0  0  0  0
    4.5385   -5.5380    1.5747 H   0  0  0  0  0  0  0  0  0  0  0  0
    2.2488   -4.6210    1.6477 H   0  0  0  0  0  0  0  0  0  0  0  0
    3.4524   -3.3664    1.5816 H   0  0  0  0  0  0  0  0  0  0  0  0
    2.3245   -0.4189    6.6894 H   0  0  0  0  0  0  0  0  0  0  0  0
    3.3477   -0.2441    5.2696 H   0  0  0  0  0  0  0  0  0  0  0  0
    1.4823    0.7387    3.9924 H   0  0  0  0  0  0  0  0  0  0  0  0
    0.8392    2.1864    6.5636 H   0  0  0  0  0  0  0  0  0  0  0  0
    1.3085    4.2046    4.7405 H   0  0  0  0  0  0  0  0  0  0  0  0
   -0.0628    5.7901    3.3582 H   0  0  0  0  0  0  0  0  0  0  0  0
   -2.3888    5.0942    2.6685 H   0  0  0  0  0  0  0  0  0  0  0  0
   -3.2512    2.8909    3.4741 H   0  0  0  0  0  0  0  0  0  0  0  0
    0.0746   -0.0836    6.7453 H   0  0  0  0  0  0  0  0  0  0  0  0
    3.4239  -11.2564    2.2380 H   0  0  0  0  0  0  0  0  0  0  0  0
  1  2  1  0
  1 29  1  0
  1 30  1  0
  1 31  1  0
  2 28  1  0
  2  3  1  0
  3  4  1  0
  3 32  1  0
  3 33  1  0
  4  5  1  0
  4 19  1  0
  4 34  1  1
  5  6  2  0
  5  7  1  0
  7 18  1  0
  7  8  1  0
  8  9  1  0
  8 35  1  0
  8 36  1  0
  9 10  1  0
  9 37  1  0
  9 38  1  0
 10 11  1  0
 10 17  1  0
 11 16  1  0
 11 12  2  0
 12 13  1  0
 12 39  1  0
 13 14  2  0
 13 40  1  0
 14 15  1  0
 14 55  1  0
 15 16  2  0
 15 41  1  0
 17 18  1  0
 17 42  1  0
 17 43  1  0
 18 44  1  0
 18 45  1  0
 19 20  1  0
 19 46  1  0
 19 47  1  0
 20 28  1  0
 20 21  1  0
 20 48  1  6
 21 22  1  0
 21 28  1  0
 21 49  1  1
 22 27  1  0
 22 23  2  0
 23 24  1  0
 23 50  1  0
 24 25  2  0
 24 51  1  0
 25 26  1  0
 25 52  1  0
 26 27  2  0
 26 53  1  0
 28 54  1  1
M  CHG  1  14   1
M  END
>  <i_m_ct_stereo_status>  (47) 
1

>  <s_m_source_file>  (47) 
/var/tmp/pbs.5076255.sched01/tmp5vb4dkz1/0x5hafel7.sdf

>  <i_m_source_file_index>  (47) 
19

>  <i_lp_mmshare_version>  (47) 
48012

>  <i_f3d_flags>  (47) 
0

>  <s_epik_input>  (47) 
bjFbY0hdW2NIXVtjSF1bY0hdYzFbQ0BIXTJbQ0BIXShbQ0BASF0yMylOKFtDSDNdKVtDSDJdW0NASF0oW0NIMl0zKUMoPU8pTjRbQ0gyXVtDSDJdTihbQ0gyXVtDSDJdNCljNVtjSF1bY0hdbltjSF1uNQ==

>  <s_epik_cmdline>  (47) 
J2VwaWtfcHl0aG9uJywgJy1waHQnLCAnMi4wJywgJy1waCcsICc3LjAnLCAnLXRuJywgJzgnLCAnLW1hJywgJzIwMCcsICctaW1hZScsICc8aW5maWxlLm1hZT4nLCAnLW9tYWUnLCAnPG91dGZpbGUubWFlPic=

>  <r_epik_Ionization_Penalty>  (47) 
1.89481

>  <r_epik_Ionization_Penalty_Charging>  (47) 
1.40397

>  <r_epik_Ionization_Penalty_Neutral>  (47) 
0.490838

>  <r_epik_State_Penalty>  (47) 
1.97089

>  <r_epik_Charging_Adjusted_Penalty>  (47) 
3.37486

>  <i_epik_Tot_Q>  (47) 
1

>  <i_epik_Tot_abs_Q>  (47) 
1

>  <s_lp_Force_Field>  (47) 
OPLS3e

>  <r_lp_Energy>  (47) 
90.9898

>  <b_lp_Chiralities_Consistent>  (47) 
1

>  <s_lp_Variant>  (47) 
11:0-4

>  <s_i_glide_gridfile>  (47) 
pfpi4k_grid

>  <i_i_glide_lignum>  (47) 
19

>  <i_i_glide_rotatable_bonds>  (47) 
4

>  <r_i_docking_score>  (47) 
-1.68178

>  <r_i_glide_ligand_efficiency>  (47) 
-0.0600634

>  <r_i_glide_ligand_efficiency_sa>  (47) 
-0.182388

>  <r_i_glide_ligand_efficiency_ln>  (47) 
-0.388203

>  <r_i_glide_gscore>  (47) 
-1.68178

>  <r_i_glide_lipo>  (47) 
-0.000215823

>  <r_i_glide_hbond>  (47) 
-0.0549237

>  <r_i_glide_metal>  (47) 
-0

>  <r_i_glide_rewards>  (47) 
-0.82416

>  <r_i_glide_evdw>  (47) 
-19.3084

>  <r_i_glide_ecoul>  (47) 
-2.01355

>  <r_i_glide_erotb>  (47) 
0.538604

>  <r_i_glide_esite>  (47) 
-0.0736309

>  <r_i_glide_emodel>  (47) 
-23.5713

>  <r_i_glide_energy>  (47) 
-21.3219

>  <r_i_glide_einternal>  (47) 
2.28851

>  <r_i_glide_intrahb_reward>  (47) 
-0

>  <i_i_glide_confnum>  (47) 
1

>  <i_i_glide_posenum>  (47) 
10

>  <r_i_glide_eff_state_penalty>  (47) 
0

>  <ligand_id>  (47) 
11

>  <original_smiles>  (47) 
CN1CC(C(=O)N2CCN(c3ccncn3)CC2)CC2C(c3ccccn3)C21

>  <smiles>  (47) 
[H]c1nc(C2([H])C3([H])N(C([H])([H])[H])C([H])([H])C([H])(C(=O)N4C([H])([H])C([H])([H])N(c5nc([H])[n+]([H])c([H])c5[H])C([H])([H])C4([H])[H])C([H])([H])C23[H])c([H])c([H])c1[H]

$$$$
11:3:2
     RDKit          3D

 55 59  0  0  1  0  0  0  0  0999 V2000
   -1.6706   -0.2278    4.9751 C   0  0  0  0  0  0  0  0  0  0  0  0
   -0.2312   -0.3823    4.8141 N   0  0  0  0  0  0  0  0  0  0  0  0
    0.1777   -1.7875    4.9967 C   0  0  0  0  0  0  0  0  0  0  0  0
    1.7360   -2.0322    5.1053 C   0  0  1  0  0  0  0  0  0  0  0  0
    2.3023   -2.5565    3.7609 C   0  0  0  0  0  0  0  0  0  0  0  0
    2.7458   -1.7427    2.9517 O   0  0  0  0  0  0  0  0  0  0  0  0
    2.3003   -3.8975    3.5086 N   0  0  0  0  0  0  0  0  0  0  0  0
    1.7639   -4.9706    4.3830 C   0  0  0  0  0  0  0  0  0  0  0  0
    2.8787   -5.9822    4.7169 C   0  0  0  0  0  0  0  0  0  0  0  0
    3.4841   -6.5022    3.4986 N   0  0  0  0  0  0  0  0  0  0  0  0
    3.4085   -7.8651    3.1570 C   0  0  0  0  0  0  0  0  0  0  0  0
    4.3816   -8.4719    2.3416 C   0  0  0  0  0  0  0  0  0  0  0  0
    4.2511   -9.8420    2.0868 C   0  0  0  0  0  0  0  0  0  0  0  0
    3.2104  -10.5430    2.6036 N   0  0  0  0  0  0  0  0  0  0  0  0
    2.3151   -9.9116    3.3737 C   0  0  0  0  0  0  0  0  0  0  0  0
    2.3945   -8.6102    3.6569 N   0  0  0  0  0  0  0  0  0  0  0  0
    3.9454   -5.4959    2.5403 C   0  0  0  0  0  0  0  0  0  0  0  0
    2.8310   -4.4608    2.2517 C   0  0  0  0  0  0  0  0  0  0  0  0
    2.5393   -0.8236    5.6982 C   0  0  0  0  0  0  0  0  0  0  0  0
    1.8796    0.4543    5.2725 C   0  0  2  0  0  0  0  0  0  0  0  0
    1.1746    1.6267    5.9279 C   0  0  1  0  0  0  0  0  0  0  0  0
    0.6598    2.8058    5.1617 C   0  0  0  0  0  0  0  0  0  0  0  0
    1.5062    3.6056    4.3663 C   0  0  0  0  0  0  0  0  0  0  0  0
    0.9515    4.7067    3.6833 C   0  0  0  0  0  0  0  0  0  0  0  0
   -0.4215    4.9668    3.8355 C   0  0  0  0  0  0  0  0  0  0  0  0
   -1.1763    4.1240    4.6700 C   0  0  0  0  0  0  0  0  0  0  0  0
   -0.6507    3.0833    5.3448 N   0  0  0  0  0  0  0  0  0  0  0  0
    0.4854    0.2990    5.8712 C   0  0  1  0  0  0  0  0  0  0  0  0
   -2.1971   -0.7607    4.1863 H   0  0  0  0  0  0  0  0  0  0  0  0
   -1.9613    0.8214    4.9052 H   0  0  0  0  0  0  0  0  0  0  0  0
   -2.0138   -0.6073    5.9372 H   0  0  0  0  0  0  0  0  0  0  0  0
   -0.3156   -2.2112    5.8778 H   0  0  0  0  0  0  0  0  0  0  0  0
   -0.2206   -2.3338    4.1431 H   0  0  0  0  0  0  0  0  0  0  0  0
    1.8999   -2.7775    5.8837 H   0  0  0  0  0  0  0  0  0  0  0  0
    1.3260   -4.6536    5.3319 H   0  0  0  0  0  0  0  0  0  0  0  0
    0.9495   -5.4748    3.8633 H   0  0  0  0  0  0  0  0  0  0  0  0
    3.6698   -5.4867    5.2819 H   0  0  0  0  0  0  0  0  0  0  0  0
    2.5035   -6.7768    5.3637 H   0  0  0  0  0  0  0  0  0  0  0  0
    5.2242   -7.9067    1.9568 H   0  0  0  0  0  0  0  0  0  0  0  0
    4.9513  -10.4096    1.4944 H   0  0  0  0  0  0  0  0  0  0  0  0
    1.4938  -10.5052    3.7649 H   0  0  0  0  0  0  0  0  0  0  0  0
    4.8062   -4.9865    2.9796 H   0  0  0  0  0  0  0  0  0  0  0  0
    4.2858   -5.9459    1.6027 H   0  0  0  0  0  0  0  0  0  0  0  0
    2.0172   -4.9399    1.7088 H   0  0  0  0  0  0  0  0  0  0  0  0
    3.2297   -3.7067    1.5699 H   0  0  0  0  0  0  0  0  0  0  0  0
    2.5269   -0.8909    6.7918 H   0  0  0  0  0  0  0  0  0  0  0  0
    3.5805   -0.8306    5.3670 H   0  0  0  0  0  0  0  0  0  0  0  0
    1.9760    0.5999    4.1980 H   0  0  0  0  0  0  0  0  0  0  0  0
    1.6022    1.9666    6.8685 H   0  0  0  0  0  0  0  0  0  0  0  0
    2.5575    3.3799    4.2704 H   0  0  0  0  0  0  0  0  0  0  0  0
    1.5539    5.3335    3.0470 H   0  0  0  0  0  0  0  0  0  0  0  0
   -0.8657    5.7823    3.2863 H   0  0  0  0  0  0  0  0  0  0  0  0
   -2.2337    4.2825    4.8018 H   0  0  0  0  0  0  0  0  0  0  0  0
    0.3896   -0.1128    6.8777 H   0  0  0  0  0  0  0  0  0  0  0  0
    3.1316  -11.5339    2.3683 H   0  0  0  0  0  0  0  0  0  0  0  0
  1  2  1  0
  1 29  1  0
  1 30  1  0
  1 31  1  0
  2 28  1  0
  2  3  1  0
  3  4  1  0
  3 32  1  0
  3 33  1  0
  4  5  1  0
  4 19  1  0
  4 34  1  1
  5  6  2  0
  5  7  1  0
  7 18  1  0
  7  8  1  0
  8  9  1  0
  8 35  1  0
  8 36  1  0
  9 10  1  0
  9 37  1  0
  9 38  1  0
 10 11  1  0
 10 17  1  0
 11 16  1  0
 11 12  2  0
 12 13  1  0
 12 39  1  0
 13 14  2  0
 13 40  1  0
 14 15  1  0
 14 55  1  0
 15 16  2  0
 15 41  1  0
 17 18  1  0
 17 42  1  0
 17 43  1  0
 18 44  1  0
 18 45  1  0
 19 20  1  0
 19 46  1  0
 19 47  1  0
 20 28  1  0
 20 21  1  0
 20 48  1  6
 21 22  1  0
 21 28  1  0
 21 49  1  1
 22 27  1  0
 22 23  2  0
 23 24  1  0
 23 50  1  0
 24 25  2  0
 24 51  1  0
 25 26  1  0
 25 52  1  0
 26 27  2  0
 26 53  1  0
 28 54  1  1
M  CHG  1  14   1
M  END
>  <i_m_ct_stereo_status>  (48) 
1

>  <s_m_source_file>  (48) 
/var/tmp/pbs.5076255.sched01/tmp5vb4dkz1/0x5hafel7.sdf

>  <i_m_source_file_index>  (48) 
19

>  <i_lp_mmshare_version>  (48) 
48012

>  <i_f3d_flags>  (48) 
0

>  <s_epik_input>  (48) 
bjFbY0hdW2NIXVtjSF1bY0hdYzFbQ0BIXTJbQ0BIXShbQ0BASF0yMylOKFtDSDNdKVtDSDJdW0NASF0oW0NIMl0zKUMoPU8pTjRbQ0gyXVtDSDJdTihbQ0gyXVtDSDJdNCljNVtjSF1bY0hdbltjSF1uNQ==

>  <s_epik_cmdline>  (48) 
J2VwaWtfcHl0aG9uJywgJy1waHQnLCAnMi4wJywgJy1waCcsICc3LjAnLCAnLXRuJywgJzgnLCAnLW1hJywgJzIwMCcsICctaW1hZScsICc8aW5maWxlLm1hZT4nLCAnLW9tYWUnLCAnPG91dGZpbGUubWFlPic=

>  <r_epik_Ionization_Penalty>  (48) 
1.89481

>  <r_epik_Ionization_Penalty_Charging>  (48) 
1.40397

>  <r_epik_Ionization_Penalty_Neutral>  (48) 
0.490838

>  <r_epik_State_Penalty>  (48) 
1.97089

>  <r_epik_Charging_Adjusted_Penalty>  (48) 
3.37486

>  <i_epik_Tot_Q>  (48) 
1

>  <i_epik_Tot_abs_Q>  (48) 
1

>  <s_lp_Force_Field>  (48) 
OPLS3e

>  <r_lp_Energy>  (48) 
90.9898

>  <b_lp_Chiralities_Consistent>  (48) 
1

>  <s_lp_Variant>  (48) 
11:0-4

>  <s_i_glide_gridfile>  (48) 
pfpi4k_grid

>  <i_i_glide_lignum>  (48) 
19

>  <i_i_glide_rotatable_bonds>  (48) 
4

>  <r_i_docking_score>  (48) 
-1.50496

>  <r_i_glide_ligand_efficiency>  (48) 
-0.0537485

>  <r_i_glide_ligand_efficiency_sa>  (48) 
-0.163212

>  <r_i_glide_ligand_efficiency_ln>  (48) 
-0.347389

>  <r_i_glide_gscore>  (48) 
-1.50496

>  <r_i_glide_lipo>  (48) 
0

>  <r_i_glide_hbond>  (48) 
-0.0144278

>  <r_i_glide_metal>  (48) 
-0

>  <r_i_glide_rewards>  (48) 
-0.824314

>  <r_i_glide_evdw>  (48) 
-17.7621

>  <r_i_glide_ecoul>  (48) 
-1.6883

>  <r_i_glide_erotb>  (48) 
0.538604

>  <r_i_glide_esite>  (48) 
-0.0634693

>  <r_i_glide_emodel>  (48) 
-21.8669

>  <r_i_glide_energy>  (48) 
-19.4504

>  <r_i_glide_einternal>  (48) 
1.26907

>  <r_i_glide_intrahb_reward>  (48) 
-0

>  <i_i_glide_confnum>  (48) 
1

>  <i_i_glide_posenum>  (48) 
1

>  <r_i_glide_eff_state_penalty>  (48) 
0

>  <ligand_id>  (48) 
11

>  <original_smiles>  (48) 
CN1CC(C(=O)N2CCN(c3ccncn3)CC2)CC2C(c3ccccn3)C21

>  <smiles>  (48) 
[H]c1nc(C2([H])C3([H])N(C([H])([H])[H])C([H])([H])C([H])(C(=O)N4C([H])([H])C([H])([H])N(c5nc([H])[n+]([H])c([H])c5[H])C([H])([H])C4([H])[H])C([H])([H])C23[H])c([H])c([H])c1[H]

$$$$
11:4:0
     RDKit          3D

 55 59  0  0  1  0  0  0  0  0999 V2000
    3.3249   -0.2675    1.5047 C   0  0  0  0  0  0  0  0  0  0  0  0
    3.3830   -1.7251    1.5160 N   0  0  0  0  0  0  0  0  0  0  0  0
    3.4448   -2.2321    2.9030 C   0  0  0  0  0  0  0  0  0  0  0  0
    3.7581   -3.7718    3.0538 C   0  0  1  0  0  0  0  0  0  0  0  0
    2.4471   -4.5577    3.3304 C   0  0  0  0  0  0  0  0  0  0  0  0
    1.8045   -5.0048    2.3746 O   0  0  0  0  0  0  0  0  0  0  0  0
    2.0080   -4.6931    4.6161 N   0  0  0  0  0  0  0  0  0  0  0  0
    0.6974   -5.2712    4.9573 C   0  0  0  0  0  0  0  0  0  0  0  0
   -0.1328   -4.2609    5.7836 C   0  0  0  0  0  0  0  0  0  0  0  0
    0.6318   -3.7887    6.9386 N   0  0  0  0  0  0  0  0  0  0  0  0
    0.1752   -3.9979    8.2568 C   0  0  0  0  0  0  0  0  0  0  0  0
    1.0577   -4.1428    9.3457 C   0  0  0  0  0  0  0  0  0  0  0  0
    0.4768   -4.3469   10.6150 C   0  0  0  0  0  0  0  0  0  0  0  0
   -0.8567   -4.4159   10.7860 N   0  0  0  0  0  0  0  0  0  0  0  0
   -1.6027   -4.2612    9.6904 C   0  0  0  0  0  0  0  0  0  0  0  0
   -1.1625   -4.0462    8.4412 N   0  0  0  0  0  0  0  0  0  0  0  0
    1.9663   -3.2834    6.6436 C   0  0  0  0  0  0  0  0  0  0  0  0
    2.7671   -4.3082    5.8214 C   0  0  0  0  0  0  0  0  0  0  0  0
    4.6173   -4.3631    1.8805 C   0  0  0  0  0  0  0  0  0  0  0  0
    4.2400   -3.6613    0.6002 C   0  0  2  0  0  0  0  0  0  0  0  0
    4.9200   -2.7718   -0.4217 C   0  0  1  0  0  0  0  0  0  0  0  0
    4.2266   -2.2563   -1.6468 C   0  0  0  0  0  0  0  0  0  0  0  0
    3.3978   -3.0504   -2.4618 C   0  0  0  0  0  0  0  0  0  0  0  0
    2.7898   -2.4966   -3.6003 C   0  0  0  0  0  0  0  0  0  0  0  0
    3.0467   -1.1459   -3.9169 C   0  0  0  0  0  0  0  0  0  0  0  0
    3.8835   -0.3946   -3.0803 C   0  0  0  0  0  0  0  0  0  0  0  0
    4.4361   -0.9678   -1.9912 N   0  0  0  0  0  0  0  0  0  0  0  0
    4.6098   -2.2154    0.9308 C   0  0  1  0  0  0  0  0  0  0  0  0
    2.4045    0.0820    1.9721 H   0  0  0  0  0  0  0  0  0  0  0  0
    3.3316    0.1098    0.4821 H   0  0  0  0  0  0  0  0  0  0  0  0
    4.1681    0.1796    2.0338 H   0  0  0  0  0  0  0  0  0  0  0  0
    4.1883   -1.6652    3.4682 H   0  0  0  0  0  0  0  0  0  0  0  0
    2.4885   -1.9960    3.3649 H   0  0  0  0  0  0  0  0  0  0  0  0
    4.4105   -3.8902    3.9022 H   0  0  0  0  0  0  0  0  0  0  0  0
    0.1218   -5.5667    4.0797 H   0  0  0  0  0  0  0  0  0  0  0  0
    0.8485   -6.1849    5.5289 H   0  0  0  0  0  0  0  0  0  0  0  0
   -0.3728   -3.3926    5.1626 H   0  0  0  0  0  0  0  0  0  0  0  0
   -1.0800   -4.7180    6.0793 H   0  0  0  0  0  0  0  0  0  0  0  0
    2.1284   -4.1198    9.2522 H   0  0  0  0  0  0  0  0  0  0  0  0
    1.0791   -4.4639   11.5055 H   0  0  0  0  0  0  0  0  0  0  0  0
   -2.6758   -4.3004    9.8162 H   0  0  0  0  0  0  0  0  0  0  0  0
    1.8455   -2.3737    6.0569 H   0  0  0  0  0  0  0  0  0  0  0  0
    2.5116   -2.9875    7.5396 H   0  0  0  0  0  0  0  0  0  0  0  0
    2.9500   -5.1998    6.4223 H   0  0  0  0  0  0  0  0  0  0  0  0
    3.7347   -3.8610    5.6445 H   0  0  0  0  0  0  0  0  0  0  0  0
    5.6766   -4.1995    2.0984 H   0  0  0  0  0  0  0  0  0  0  0  0
    4.4690   -5.4424    1.7717 H   0  0  0  0  0  0  0  0  0  0  0  0
    3.2174   -3.9050    0.3178 H   0  0  0  0  0  0  0  0  0  0  0  0
    5.9536   -3.0275   -0.6547 H   0  0  0  0  0  0  0  0  0  0  0  0
    3.2196   -4.0854   -2.1950 H   0  0  0  0  0  0  0  0  0  0  0  0
    2.1188   -3.0809   -4.2109 H   0  0  0  0  0  0  0  0  0  0  0  0
    2.5576   -0.6788   -4.7626 H   0  0  0  0  0  0  0  0  0  0  0  0
    4.0847    0.6587   -3.2143 H   0  0  0  0  0  0  0  0  0  0  0  0
    5.5259   -2.0067    1.4839 H   0  0  0  0  0  0  0  0  0  0  0  0
    5.0062   -0.3929   -1.3711 H   0  0  0  0  0  0  0  0  0  0  0  0
  1  2  1  0
  1 29  1  0
  1 30  1  0
  1 31  1  0
  2 28  1  0
  2  3  1  0
  3  4  1  0
  3 32  1  0
  3 33  1  0
  4  5  1  0
  4 19  1  0
  4 34  1  1
  5  6  2  0
  5  7  1  0
  7 18  1  0
  7  8  1  0
  8  9  1  0
  8 35  1  0
  8 36  1  0
  9 10  1  0
  9 37  1  0
  9 38  1  0
 10 11  1  0
 10 17  1  0
 11 16  1  0
 11 12  2  0
 12 13  1  0
 12 39  1  0
 13 14  2  0
 13 40  1  0
 14 15  1  0
 15 16  2  0
 15 41  1  0
 17 18  1  0
 17 42  1  0
 17 43  1  0
 18 44  1  0
 18 45  1  0
 19 20  1  0
 19 46  1  0
 19 47  1  0
 20 28  1  0
 20 21  1  0
 20 48  1  6
 21 22  1  0
 21 28  1  0
 21 49  1  6
 22 27  1  0
 22 23  2  0
 23 24  1  0
 23 50  1  0
 24 25  2  0
 24 51  1  0
 25 26  1  0
 25 52  1  0
 26 27  2  0
 26 53  1  0
 27 55  1  0
 28 54  1  1
M  CHG  1  27   1
M  END
>  <i_m_ct_stereo_status>  (49) 
1

>  <s_m_source_file>  (49) 
/var/tmp/pbs.5076255.sched01/tmp5vb4dkz1/0x5hafel7.sdf

>  <i_m_source_file_index>  (49) 
20

>  <i_lp_mmshare_version>  (49) 
48012

>  <i_f3d_flags>  (49) 
0

>  <s_epik_input>  (49) 
bjFbY0hdW2NIXVtjSF1bY0hdYzFbQ0BIXTJbQ0BIXShbQ0BASF0yMylOKFtDSDNdKVtDSDJdW0NASF0oW0NIMl0zKUMoPU8pTjRbQ0gyXVtDSDJdTihbQ0gyXVtDSDJdNCljNVtjSF1bY0hdbltjSF1uNQ==

>  <s_epik_cmdline>  (49) 
J2VwaWtfcHl0aG9uJywgJy1waHQnLCAnMi4wJywgJy1waCcsICc3LjAnLCAnLXRuJywgJzgnLCAnLW1hJywgJzIwMCcsICctaW1hZScsICc8aW5maWxlLm1hZT4nLCAnLW9tYWUnLCAnPG91dGZpbGUubWFlPic=

>  <r_epik_Ionization_Penalty>  (49) 
1.84361

>  <r_epik_Ionization_Penalty_Charging>  (49) 
1.70388

>  <r_epik_Ionization_Penalty_Neutral>  (49) 
0.139734

>  <r_epik_State_Penalty>  (49) 
2.30708

>  <r_epik_Charging_Adjusted_Penalty>  (49) 
4.01096

>  <i_epik_Tot_Q>  (49) 
1

>  <i_epik_Tot_abs_Q>  (49) 
1

>  <s_lp_Force_Field>  (49) 
OPLS3e

>  <r_lp_Energy>  (49) 
91.3745

>  <b_lp_Chiralities_Consistent>  (49) 
1

>  <s_lp_Variant>  (49) 
11:0-5

>  <s_i_glide_gridfile>  (49) 
pfpi4k_grid

>  <i_i_glide_lignum>  (49) 
20

>  <i_i_glide_rotatable_bonds>  (49) 
4

>  <r_i_docking_score>  (49) 
-3.09972

>  <r_i_glide_ligand_efficiency>  (49) 
-0.110704

>  <r_i_glide_ligand_efficiency_sa>  (49) 
-0.336163

>  <r_i_glide_ligand_efficiency_ln>  (49) 
-0.715506

>  <r_i_glide_gscore>  (49) 
-3.09972

>  <r_i_glide_lipo>  (49) 
-0.638799

>  <r_i_glide_hbond>  (49) 
-0.0185126

>  <r_i_glide_metal>  (49) 
-0

>  <r_i_glide_rewards>  (49) 
-0.821736

>  <r_i_glide_evdw>  (49) 
-23.7686

>  <r_i_glide_ecoul>  (49) 
-5.90752

>  <r_i_glide_erotb>  (49) 
0.538604

>  <r_i_glide_esite>  (49) 
-0.0847188

>  <r_i_glide_emodel>  (49) 
-37.3254

>  <r_i_glide_energy>  (49) 
-29.6761

>  <r_i_glide_einternal>  (49) 
1.0295

>  <r_i_glide_intrahb_reward>  (49) 
-0

>  <i_i_glide_confnum>  (49) 
6

>  <i_i_glide_posenum>  (49) 
23

>  <r_i_glide_eff_state_penalty>  (49) 
0

>  <ligand_id>  (49) 
11

>  <original_smiles>  (49) 
CN1CC(C(=O)N2CCN(c3ccncn3)CC2)CC2C(c3ccccn3)C21

>  <smiles>  (49) 
[H]c1nc([H])c([H])c(N2C([H])([H])C([H])([H])N(C(=O)C3([H])C([H])([H])N(C([H])([H])[H])C4([H])C([H])(c5c([H])c([H])c([H])c([H])[n+]5[H])C4([H])C3([H])[H])C([H])([H])C2([H])[H])n1

$$$$
11:4:1
     RDKit          3D

 55 59  0  0  1  0  0  0  0  0999 V2000
    3.5334   -0.5850    1.3581 C   0  0  0  0  0  0  0  0  0  0  0  0
    3.7453   -2.0223    1.2555 N   0  0  0  0  0  0  0  0  0  0  0  0
    3.9291   -2.6101    2.5979 C   0  0  0  0  0  0  0  0  0  0  0  0
    4.3836   -4.1238    2.6250 C   0  0  1  0  0  0  0  0  0  0  0  0
    3.1606   -5.0471    2.8571 C   0  0  0  0  0  0  0  0  0  0  0  0
    2.7424   -5.7400    1.9261 O   0  0  0  0  0  0  0  0  0  0  0  0
    2.5751   -5.0588    4.0861 N   0  0  0  0  0  0  0  0  0  0  0  0
    1.3554   -5.8346    4.3764 C   0  0  0  0  0  0  0  0  0  0  0  0
    0.2299   -4.8928    4.8572 C   0  0  0  0  0  0  0  0  0  0  0  0
    0.6852   -4.0661    5.9759 N   0  0  0  0  0  0  0  0  0  0  0  0
    0.0588   -4.1254    7.2382 C   0  0  0  0  0  0  0  0  0  0  0  0
    0.7058   -3.7270    8.4283 C   0  0  0  0  0  0  0  0  0  0  0  0
   -0.0319   -3.8290    9.6190 C   0  0  0  0  0  0  0  0  0  0  0  0
   -1.3051   -4.2577    9.6276 N   0  0  0  0  0  0  0  0  0  0  0  0
   -1.8168   -4.6388    8.4559 C   0  0  0  0  0  0  0  0  0  0  0  0
   -1.2176   -4.5669    7.2721 N   0  0  0  0  0  0  0  0  0  0  0  0
    1.9336   -3.3422    5.7461 C   0  0  0  0  0  0  0  0  0  0  0  0
    3.0335   -4.3078    5.2756 C   0  0  0  0  0  0  0  0  0  0  0  0
    5.2828   -4.5257    1.4011 C   0  0  0  0  0  0  0  0  0  0  0  0
    4.7852   -3.7874    0.1820 C   0  0  2  0  0  0  0  0  0  0  0  0
    5.3163   -2.7547   -0.7934 C   0  0  1  0  0  0  0  0  0  0  0  0
    4.5186   -2.2320   -1.9506 C   0  0  0  0  0  0  0  0  0  0  0  0
    3.8242   -3.0600   -2.8554 C   0  0  0  0  0  0  0  0  0  0  0  0
    3.0997   -2.4843   -3.9155 C   0  0  0  0  0  0  0  0  0  0  0  0
    3.1078   -1.0872   -4.0706 C   0  0  0  0  0  0  0  0  0  0  0  0
    3.8271   -0.2997   -3.1505 C   0  0  0  0  0  0  0  0  0  0  0  0
    4.5023   -0.8944   -2.1434 N   0  0  0  0  0  0  0  0  0  0  0  0
    4.9973   -2.3319    0.6052 C   0  0  1  0  0  0  0  0  0  0  0  0
    2.5996   -0.3732    1.8795 H   0  0  0  0  0  0  0  0  0  0  0  0
    3.4589   -0.1405    0.3677 H   0  0  0  0  0  0  0  0  0  0  0  0
    4.3429   -0.0885    1.8937 H   0  0  0  0  0  0  0  0  0  0  0  0
    4.6260   -2.0066    3.1831 H   0  0  0  0  0  0  0  0  0  0  0  0
    2.9621   -2.5042    3.0938 H   0  0  0  0  0  0  0  0  0  0  0  0
    5.0461   -4.2684    3.4735 H   0  0  0  0  0  0  0  0  0  0  0  0
    0.9955   -6.4030    3.5169 H   0  0  0  0  0  0  0  0  0  0  0  0
    1.5717   -6.5733    5.1477 H   0  0  0  0  0  0  0  0  0  0  0  0
   -0.0526   -4.2067    4.0566 H   0  0  0  0  0  0  0  0  0  0  0  0
   -0.6551   -5.4854    5.0943 H   0  0  0  0  0  0  0  0  0  0  0  0
    1.7277   -3.3859    8.4680 H   0  0  0  0  0  0  0  0  0  0  0  0
    0.3960   -3.5477   10.5724 H   0  0  0  0  0  0  0  0  0  0  0  0
   -2.8385   -4.9828    8.4625 H   0  0  0  0  0  0  0  0  0  0  0  0
    1.7378   -2.6000    4.9690 H   0  0  0  0  0  0  0  0  0  0  0  0
    2.2725   -2.7702    6.6074 H   0  0  0  0  0  0  0  0  0  0  0  0
    3.2876   -5.0120    6.0665 H   0  0  0  0  0  0  0  0  0  0  0  0
    3.9232   -3.7029    5.1308 H   0  0  0  0  0  0  0  0  0  0  0  0
    6.3231   -4.2590    1.6039 H   0  0  0  0  0  0  0  0  0  0  0  0
    5.2544   -5.6007    1.2124 H   0  0  0  0  0  0  0  0  0  0  0  0
    3.7800   -4.1249   -0.0832 H   0  0  0  0  0  0  0  0  0  0  0  0
    6.3601   -2.8735   -1.0776 H   0  0  0  0  0  0  0  0  0  0  0  0
    3.8351   -4.1331   -2.7278 H   0  0  0  0  0  0  0  0  0  0  0  0
    2.5364   -3.1060   -4.5972 H   0  0  0  0  0  0  0  0  0  0  0  0
    2.5453   -0.6196   -4.8657 H   0  0  0  0  0  0  0  0  0  0  0  0
    3.8628    0.7790   -3.1830 H   0  0  0  0  0  0  0  0  0  0  0  0
    5.9080   -2.0620    1.1472 H   0  0  0  0  0  0  0  0  0  0  0  0
    4.9986   -0.3009   -1.4771 H   0  0  0  0  0  0  0  0  0  0  0  0
  1  2  1  0
  1 29  1  0
  1 30  1  0
  1 31  1  0
  2 28  1  0
  2  3  1  0
  3  4  1  0
  3 32  1  0
  3 33  1  0
  4  5  1  0
  4 19  1  0
  4 34  1  1
  5  6  2  0
  5  7  1  0
  7 18  1  0
  7  8  1  0
  8  9  1  0
  8 35  1  0
  8 36  1  0
  9 10  1  0
  9 37  1  0
  9 38  1  0
 10 11  1  0
 10 17  1  0
 11 16  1  0
 11 12  2  0
 12 13  1  0
 12 39  1  0
 13 14  2  0
 13 40  1  0
 14 15  1  0
 15 16  2  0
 15 41  1  0
 17 18  1  0
 17 42  1  0
 17 43  1  0
 18 44  1  0
 18 45  1  0
 19 20  1  0
 19 46  1  0
 19 47  1  0
 20 28  1  0
 20 21  1  0
 20 48  1  6
 21 22  1  0
 21 28  1  0
 21 49  1  6
 22 27  1  0
 22 23  2  0
 23 24  1  0
 23 50  1  0
 24 25  2  0
 24 51  1  0
 25 26  1  0
 25 52  1  0
 26 27  2  0
 26 53  1  0
 27 55  1  0
 28 54  1  1
M  CHG  1  27   1
M  END
>  <i_m_ct_stereo_status>  (50) 
1

>  <s_m_source_file>  (50) 
/var/tmp/pbs.5076255.sched01/tmp5vb4dkz1/0x5hafel7.sdf

>  <i_m_source_file_index>  (50) 
20

>  <i_lp_mmshare_version>  (50) 
48012

>  <i_f3d_flags>  (50) 
0

>  <s_epik_input>  (50) 
bjFbY0hdW2NIXVtjSF1bY0hdYzFbQ0BIXTJbQ0BIXShbQ0BASF0yMylOKFtDSDNdKVtDSDJdW0NASF0oW0NIMl0zKUMoPU8pTjRbQ0gyXVtDSDJdTihbQ0gyXVtDSDJdNCljNVtjSF1bY0hdbltjSF1uNQ==

>  <s_epik_cmdline>  (50) 
J2VwaWtfcHl0aG9uJywgJy1waHQnLCAnMi4wJywgJy1waCcsICc3LjAnLCAnLXRuJywgJzgnLCAnLW1hJywgJzIwMCcsICctaW1hZScsICc8aW5maWxlLm1hZT4nLCAnLW9tYWUnLCAnPG91dGZpbGUubWFlPic=

>  <r_epik_Ionization_Penalty>  (50) 
1.84361

>  <r_epik_Ionization_Penalty_Charging>  (50) 
1.70388

>  <r_epik_Ionization_Penalty_Neutral>  (50) 
0.139734

>  <r_epik_State_Penalty>  (50) 
2.30708

>  <r_epik_Charging_Adjusted_Penalty>  (50) 
4.01096

>  <i_epik_Tot_Q>  (50) 
1

>  <i_epik_Tot_abs_Q>  (50) 
1

>  <s_lp_Force_Field>  (50) 
OPLS3e

>  <r_lp_Energy>  (50) 
91.3745

>  <b_lp_Chiralities_Consistent>  (50) 
1

>  <s_lp_Variant>  (50) 
11:0-5

>  <s_i_glide_gridfile>  (50) 
pfpi4k_grid

>  <i_i_glide_lignum>  (50) 
20

>  <i_i_glide_rotatable_bonds>  (50) 
4

>  <r_i_docking_score>  (50) 
-2.97396

>  <r_i_glide_ligand_efficiency>  (50) 
-0.106213

>  <r_i_glide_ligand_efficiency_sa>  (50) 
-0.322525

>  <r_i_glide_ligand_efficiency_ln>  (50) 
-0.686477

>  <r_i_glide_gscore>  (50) 
-2.97396

>  <r_i_glide_lipo>  (50) 
-0.503595

>  <r_i_glide_hbond>  (50) 
0

>  <r_i_glide_metal>  (50) 
-0

>  <r_i_glide_rewards>  (50) 
-0.821736

>  <r_i_glide_evdw>  (50) 
-25.527

>  <r_i_glide_ecoul>  (50) 
-5.61634

>  <r_i_glide_erotb>  (50) 
0.538604

>  <r_i_glide_esite>  (50) 
-0.0684277

>  <r_i_glide_emodel>  (50) 
-38.4627

>  <r_i_glide_energy>  (50) 
-31.1434

>  <r_i_glide_einternal>  (50) 
1.14986

>  <r_i_glide_intrahb_reward>  (50) 
-0

>  <i_i_glide_confnum>  (50) 
6

>  <i_i_glide_posenum>  (50) 
5

>  <r_i_glide_eff_state_penalty>  (50) 
0

>  <ligand_id>  (50) 
11

>  <original_smiles>  (50) 
CN1CC(C(=O)N2CCN(c3ccncn3)CC2)CC2C(c3ccccn3)C21

>  <smiles>  (50) 
[H]c1nc([H])c([H])c(N2C([H])([H])C([H])([H])N(C(=O)C3([H])C([H])([H])N(C([H])([H])[H])C4([H])C([H])(c5c([H])c([H])c([H])c([H])[n+]5[H])C4([H])C3([H])[H])C([H])([H])C2([H])[H])n1

$$$$
11:4:2
     RDKit          3D

 55 59  0  0  1  0  0  0  0  0999 V2000
    1.3963   -6.6243    1.6523 C   0  0  0  0  0  0  0  0  0  0  0  0
    1.6054   -6.1802    3.0262 N   0  0  0  0  0  0  0  0  0  0  0  0
    1.6592   -4.7024    3.0987 C   0  0  0  0  0  0  0  0  0  0  0  0
    2.1509   -4.0877    4.4669 C   0  0  1  0  0  0  0  0  0  0  0  0
    0.9254   -3.5934    5.2912 C   0  0  0  0  0  0  0  0  0  0  0  0
    0.2103   -4.4200    5.8630 O   0  0  0  0  0  0  0  0  0  0  0  0
    0.6321   -2.2590    5.3156 N   0  0  0  0  0  0  0  0  0  0  0  0
   -0.5830   -1.7234    5.9594 C   0  0  0  0  0  0  0  0  0  0  0  0
   -1.4206   -0.9179    4.9379 C   0  0  0  0  0  0  0  0  0  0  0  0
   -0.5971    0.0852    4.2660 N   0  0  0  0  0  0  0  0  0  0  0  0
   -0.8729    1.4677    4.3588 C   0  0  0  0  0  0  0  0  0  0  0  0
   -0.2443    2.4118    3.5229 C   0  0  0  0  0  0  0  0  0  0  0  0
   -0.6140    3.7582    3.6809 C   0  0  0  0  0  0  0  0  0  0  0  0
   -1.5337    4.1456    4.5920 N   0  0  0  0  0  0  0  0  0  0  0  0
   -2.0488    3.1739    5.3483 C   0  0  0  0  0  0  0  0  0  0  0  0
   -1.7677    1.8689    5.2935 N   0  0  0  0  0  0  0  0  0  0  0  0
    0.6444   -0.4167    3.6831 C   0  0  0  0  0  0  0  0  0  0  0  0
    1.4604   -1.1913    4.7336 C   0  0  0  0  0  0  0  0  0  0  0  0
    3.1130   -5.0219    5.2770 C   0  0  0  0  0  0  0  0  0  0  0  0
    2.7152   -6.4561    5.0341 C   0  0  2  0  0  0  0  0  0  0  0  0
    3.3338   -7.6951    4.4172 C   0  0  1  0  0  0  0  0  0  0  0  0
    2.6392   -9.0251    4.3692 C   0  0  0  0  0  0  0  0  0  0  0  0
    1.6106   -9.3953    5.2656 C   0  0  0  0  0  0  0  0  0  0  0  0
    1.0052  -10.6548    5.1387 C   0  0  0  0  0  0  0  0  0  0  0  0
    1.4424  -11.5289    4.1275 C   0  0  0  0  0  0  0  0  0  0  0  0
    2.4879  -11.1301    3.2751 C   0  0  0  0  0  0  0  0  0  0  0  0
    3.0376   -9.9048    3.4199 N   0  0  0  0  0  0  0  0  0  0  0  0
    2.9059   -6.5799    3.5203 C   0  0  1  0  0  0  0  0  0  0  0  0
    0.4247   -6.2880    1.2932 H   0  0  0  0  0  0  0  0  0  0  0  0
    1.4066   -7.7153    1.5968 H   0  0  0  0  0  0  0  0  0  0  0  0
    2.1626   -6.2408    0.9746 H   0  0  0  0  0  0  0  0  0  0  0  0
    2.3066   -4.3196    2.3043 H   0  0  0  0  0  0  0  0  0  0  0  0
    0.6633   -4.3343    2.8725 H   0  0  0  0  0  0  0  0  0  0  0  0
    2.7896   -3.2762    4.2100 H   0  0  0  0  0  0  0  0  0  0  0  0
   -1.2124   -2.4998    6.3962 H   0  0  0  0  0  0  0  0  0  0  0  0
   -0.2884   -1.0759    6.7855 H   0  0  0  0  0  0  0  0  0  0  0  0
   -1.7846   -1.5872    4.1624 H   0  0  0  0  0  0  0  0  0  0  0  0
   -2.3114   -0.4984    5.4128 H   0  0  0  0  0  0  0  0  0  0  0  0
    0.4596    2.1609    2.7507 H   0  0  0  0  0  0  0  0  0  0  0  0
   -0.1770    4.5375    3.0718 H   0  0  0  0  0  0  0  0  0  0  0  0
   -2.7800    3.4754    6.0854 H   0  0  0  0  0  0  0  0  0  0  0  0
    0.3799   -1.0754    2.8572 H   0  0  0  0  0  0  0  0  0  0  0  0
    1.2699    0.3680    3.2638 H   0  0  0  0  0  0  0  0  0  0  0  0
    1.7700   -0.5101    5.5321 H   0  0  0  0  0  0  0  0  0  0  0  0
    2.3622   -1.4875    4.2331 H   0  0  0  0  0  0  0  0  0  0  0  0
    4.1375   -4.8633    4.9332 H   0  0  0  0  0  0  0  0  0  0  0  0
    3.0879   -4.8076    6.3497 H   0  0  0  0  0  0  0  0  0  0  0  0
    1.7353   -6.6435    5.4647 H   0  0  0  0  0  0  0  0  0  0  0  0
    4.3988   -7.8297    4.6063 H   0  0  0  0  0  0  0  0  0  0  0  0
    1.2795   -8.7280    6.0477 H   0  0  0  0  0  0  0  0  0  0  0  0
    0.2160  -10.9575    5.8115 H   0  0  0  0  0  0  0  0  0  0  0  0
    0.9929  -12.5043    4.0266 H   0  0  0  0  0  0  0  0  0  0  0  0
    2.8914  -11.7465    2.4852 H   0  0  0  0  0  0  0  0  0  0  0  0
    3.7689   -6.1068    3.0518 H   0  0  0  0  0  0  0  0  0  0  0  0
    3.7895   -9.6396    2.7844 H   0  0  0  0  0  0  0  0  0  0  0  0
  1  2  1  0
  1 29  1  0
  1 30  1  0
  1 31  1  0
  2 28  1  0
  2  3  1  0
  3  4  1  0
  3 32  1  0
  3 33  1  0
  4  5  1  0
  4 19  1  0
  4 34  1  6
  5  6  2  0
  5  7  1  0
  7 18  1  0
  7  8  1  0
  8  9  1  0
  8 35  1  0
  8 36  1  0
  9 10  1  0
  9 37  1  0
  9 38  1  0
 10 11  1  0
 10 17  1  0
 11 16  1  0
 11 12  2  0
 12 13  1  0
 12 39  1  0
 13 14  2  0
 13 40  1  0
 14 15  1  0
 15 16  2  0
 15 41  1  0
 17 18  1  0
 17 42  1  0
 17 43  1  0
 18 44  1  0
 18 45  1  0
 19 20  1  0
 19 46  1  0
 19 47  1  0
 20 28  1  0
 20 21  1  0
 20 48  1  6
 21 22  1  0
 21 28  1  0
 21 49  1  1
 22 27  1  0
 22 23  2  0
 23 24  1  0
 23 50  1  0
 24 25  2  0
 24 51  1  0
 25 26  1  0
 25 52  1  0
 26 27  2  0
 26 53  1  0
 27 55  1  0
 28 54  1  6
M  CHG  1  27   1
M  END
>  <i_m_ct_stereo_status>  (51) 
1

>  <s_m_source_file>  (51) 
/var/tmp/pbs.5076255.sched01/tmp5vb4dkz1/0x5hafel7.sdf

>  <i_m_source_file_index>  (51) 
20

>  <i_lp_mmshare_version>  (51) 
48012

>  <i_f3d_flags>  (51) 
0

>  <s_epik_input>  (51) 
bjFbY0hdW2NIXVtjSF1bY0hdYzFbQ0BIXTJbQ0BIXShbQ0BASF0yMylOKFtDSDNdKVtDSDJdW0NASF0oW0NIMl0zKUMoPU8pTjRbQ0gyXVtDSDJdTihbQ0gyXVtDSDJdNCljNVtjSF1bY0hdbltjSF1uNQ==

>  <s_epik_cmdline>  (51) 
J2VwaWtfcHl0aG9uJywgJy1waHQnLCAnMi4wJywgJy1waCcsICc3LjAnLCAnLXRuJywgJzgnLCAnLW1hJywgJzIwMCcsICctaW1hZScsICc8aW5maWxlLm1hZT4nLCAnLW9tYWUnLCAnPG91dGZpbGUubWFlPic=

>  <r_epik_Ionization_Penalty>  (51) 
1.84361

>  <r_epik_Ionization_Penalty_Charging>  (51) 
1.70388

>  <r_epik_Ionization_Penalty_Neutral>  (51) 
0.139734

>  <r_epik_State_Penalty>  (51) 
2.30708

>  <r_epik_Charging_Adjusted_Penalty>  (51) 
4.01096

>  <i_epik_Tot_Q>  (51) 
1

>  <i_epik_Tot_abs_Q>  (51) 
1

>  <s_lp_Force_Field>  (51) 
OPLS3e

>  <r_lp_Energy>  (51) 
91.3745

>  <b_lp_Chiralities_Consistent>  (51) 
1

>  <s_lp_Variant>  (51) 
11:0-5

>  <s_i_glide_gridfile>  (51) 
pfpi4k_grid

>  <i_i_glide_lignum>  (51) 
20

>  <i_i_glide_rotatable_bonds>  (51) 
4

>  <r_i_docking_score>  (51) 
-2.67769

>  <r_i_glide_ligand_efficiency>  (51) 
-0.0956319

>  <r_i_glide_ligand_efficiency_sa>  (51) 
-0.290395

>  <r_i_glide_ligand_efficiency_ln>  (51) 
-0.61809

>  <r_i_glide_gscore>  (51) 
-2.67769

>  <r_i_glide_lipo>  (51) 
-0.0870735

>  <r_i_glide_hbond>  (51) 
0

>  <r_i_glide_metal>  (51) 
-0

>  <r_i_glide_rewards>  (51) 
-0.821736

>  <r_i_glide_evdw>  (51) 
-24.0657

>  <r_i_glide_ecoul>  (51) 
-7.07699

>  <r_i_glide_erotb>  (51) 
0.538604

>  <r_i_glide_esite>  (51) 
-0.0426519

>  <r_i_glide_emodel>  (51) 
-37.3002

>  <r_i_glide_energy>  (51) 
-31.1427

>  <r_i_glide_einternal>  (51) 
1.27313

>  <r_i_glide_intrahb_reward>  (51) 
-0

>  <i_i_glide_confnum>  (51) 
6

>  <i_i_glide_posenum>  (51) 
29

>  <r_i_glide_eff_state_penalty>  (51) 
0

>  <ligand_id>  (51) 
11

>  <original_smiles>  (51) 
CN1CC(C(=O)N2CCN(c3ccncn3)CC2)CC2C(c3ccccn3)C21

>  <smiles>  (51) 
[H]c1nc([H])c([H])c(N2C([H])([H])C([H])([H])N(C(=O)C3([H])C([H])([H])N(C([H])([H])[H])C4([H])C([H])(c5c([H])c([H])c([H])c([H])[n+]5[H])C4([H])C3([H])[H])C([H])([H])C2([H])[H])n1

$$$$
12:0:0
     RDKit          3D

 45 51  0  0  1  0  0  0  0  0999 V2000
    6.1945   -7.3624    1.4817 C   0  0  0  0  0  0  0  0  0  0  0  0
    5.7756   -6.4347    0.4767 O   0  0  0  0  0  0  0  0  0  0  0  0
    5.8384   -5.0510    0.8020 C   0  0  2  0  0  0  0  0  0  0  0  0
    7.1376   -4.5956    1.2492 C   0  0  0  0  0  0  0  0  0  0  0  0
    6.8648   -3.3410    1.0541 C   0  0  0  0  0  0  0  0  0  0  0  0
    5.4073   -3.1671    0.4004 C   0  0  1  0  0  0  0  0  0  0  0  0
    4.2210   -4.0257   -0.5765 C   0  0  1  0  0  0  0  0  0  0  0  0
    2.7302   -4.3573   -0.1593 C   0  0  0  0  0  0  0  0  0  0  0  0
    2.5718   -5.3884    0.9248 C   0  0  0  0  0  0  0  0  0  0  0  0
    1.4352   -6.2277    0.8593 C   0  0  0  0  0  0  0  0  0  0  0  0
    1.1547   -7.1467    1.8764 C   0  0  0  0  0  0  0  0  0  0  0  0
    2.0241   -7.2333    2.9741 C   0  0  0  0  0  0  0  0  0  0  0  0
    1.7711   -8.1349    3.9654 O   0  0  0  0  0  0  0  0  0  0  0  0
    3.1565   -6.3984    3.0435 C   0  0  0  0  0  0  0  0  0  0  0  0
    3.4607   -5.4519    2.0306 C   0  0  0  0  0  0  0  0  0  0  0  0
    4.7699   -4.6084    2.0911 C   0  0  1  0  0  0  0  0  0  0  0  0
    5.4386   -4.8498    3.3228 O   0  0  0  0  0  0  0  0  0  0  0  0
    4.5015   -3.0760    2.0401 O   0  0  0  0  0  0  0  0  0  0  0  0
    4.6797   -2.0176    0.9012 C   0  0  2  0  0  0  0  0  0  0  0  0
    3.4556   -1.6532    0.0999 C   0  0  0  0  0  0  0  0  0  0  0  0
    3.5585   -2.0891   -1.1733 C   0  0  0  0  0  0  0  0  0  0  0  0
    4.8206   -2.9459   -1.5111 C   0  0  2  0  0  0  0  0  0  0  0  0
    5.7090   -1.5564   -1.3709 C   0  0  0  0  0  0  0  0  0  0  0  0
    5.6849   -1.0349    0.1760 C   0  0  0  0  0  0  0  0  0  0  0  0
    5.8317   -3.9880   -0.6214 C   0  0  2  0  0  0  0  0  0  0  0  0
    6.0310   -8.3780    1.1167 H   0  0  0  0  0  0  0  0  0  0  0  0
    5.6214   -7.2615    2.3980 H   0  0  0  0  0  0  0  0  0  0  0  0
    7.2528   -7.2589    1.7235 H   0  0  0  0  0  0  0  0  0  0  0  0
    8.0098   -5.1234    1.6129 H   0  0  0  0  0  0  0  0  0  0  0  0
    7.5851   -2.5625    1.2650 H   0  0  0  0  0  0  0  0  0  0  0  0
    4.2512   -5.0377   -1.1275 H   0  0  0  0  0  0  0  0  0  0  0  0
    2.1216   -3.5574    0.2374 H   0  0  0  0  0  0  0  0  0  0  0  0
    2.1792   -4.6636   -1.0493 H   0  0  0  0  0  0  0  0  0  0  0  0
    0.7573   -6.1572    0.0226 H   0  0  0  0  0  0  0  0  0  0  0  0
    0.2812   -7.7791    1.8097 H   0  0  0  0  0  0  0  0  0  0  0  0
    1.0542   -8.7221    3.7755 H   0  0  0  0  0  0  0  0  0  0  0  0
    3.8087   -6.5242    3.8984 H   0  0  0  0  0  0  0  0  0  0  0  0
    6.3124   -4.4984    3.2284 H   0  0  0  0  0  0  0  0  0  0  0  0
    2.6467   -1.0663    0.5046 H   0  0  0  0  0  0  0  0  0  0  0  0
    2.8139   -1.8874   -1.9328 H   0  0  0  0  0  0  0  0  0  0  0  0
    6.7353   -1.7469   -1.6737 H   0  0  0  0  0  0  0  0  0  0  0  0
    5.3560   -0.7652   -2.0379 H   0  0  0  0  0  0  0  0  0  0  0  0
    5.2545   -0.0311    0.2066 H   0  0  0  0  0  0  0  0  0  0  0  0
    6.6649   -0.8803    0.6227 H   0  0  0  0  0  0  0  0  0  0  0  0
    6.8008   -3.8727   -1.1099 H   0  0  0  0  0  0  0  0  0  0  0  0
  1  2  1  0
  1 26  1  0
  1 27  1  0
  1 28  1  0
  3  2  1  6
  3 16  1  0
  3 25  1  0
  3  4  1  0
  4  5  2  0
  4 29  1  0
  6  5  1  1
  5 30  1  0
  6 19  1  0
  6 25  1  0
  6  7  1  0
  7 22  1  0
  7  8  1  0
  7 31  1  6
  8  9  1  0
  8 32  1  0
  8 33  1  0
  9 15  2  0
  9 10  1  0
 10 11  2  0
 10 34  1  0
 11 12  1  0
 11 35  1  0
 12 13  1  0
 12 14  2  0
 13 36  1  0
 14 15  1  0
 14 37  1  0
 15 16  1  0
 16 17  1  1
 16 18  1  0
 17 38  1  0
 19 18  1  1
 19 24  1  0
 19 20  1  0
 20 21  2  0
 20 39  1  0
 21 22  1  0
 21 40  1  0
 22 23  1  1
 22 25  1  0
 23 24  1  0
 23 41  1  0
 23 42  1  0
 24 43  1  0
 24 44  1  0
 25 45  1  6
M  END
>  <i_m_ct_stereo_status>  (52) 
1

>  <s_m_source_file>  (52) 
/var/tmp/pbs.5076255.sched01/tmp5vb4dkz1/0x5hafel7.sdf

>  <i_m_source_file_index>  (52) 
21

>  <i_lp_mmshare_version>  (52) 
48012

>  <i_f3d_flags>  (52) 
2

>  <s_epik_input>  (52) 
QzEyM1tDQEBdNDVPW0NAXTYoW09IXSlbQ0BdKE9bQ0gzXSkoW0NIXT1bQ0hdMSlbQ0BIXTNDKFtDSF09W0NIXTQpKFtDSDJdW0NIMl01KVtDQEBIXTJbQ0gyXWM3YzZbY0hdYyhbT0hdKVtjSF1bY0hdNw==

>  <s_epik_cmdline>  (52) 
J2VwaWtfcHl0aG9uJywgJy1waHQnLCAnMi4wJywgJy1waCcsICc3LjAnLCAnLXRuJywgJzgnLCAnLW1hJywgJzIwMCcsICctaW1hZScsICc8aW5maWxlLm1hZT4nLCAnLW9tYWUnLCAnPG91dGZpbGUubWFlPic=

>  <r_lp_tautomer_probability>  (52) 
1

>  <r_epik_Ionization_Penalty>  (52) 
0.000573808

>  <r_epik_Ionization_Penalty_Charging>  (52) 
0

>  <r_epik_Ionization_Penalty_Neutral>  (52) 
0.000573808

>  <r_epik_State_Penalty>  (52) 
0.000315278

>  <r_epik_Charging_Adjusted_Penalty>  (52) 
0.000315278

>  <i_epik_Tot_Q>  (52) 
0

>  <i_epik_Tot_abs_Q>  (52) 
0

>  <s_lp_Force_Field>  (52) 
OPLS3e

>  <r_lp_Energy>  (52) 
599.694

>  <b_lp_Chiralities_Consistent>  (52) 
0

>  <s_lp_Variant>  (52) 
12:0-1

>  <s_i_glide_gridfile>  (52) 
pfpi4k_grid

>  <i_i_glide_lignum>  (52) 
21

>  <i_i_glide_rotatable_bonds>  (52) 
3

>  <r_i_docking_score>  (52) 
-2.72319

>  <r_i_glide_ligand_efficiency>  (52) 
-0.108928

>  <r_i_glide_ligand_efficiency_sa>  (52) 
-0.318507

>  <r_i_glide_ligand_efficiency_ln>  (52) 
-0.645479

>  <r_i_glide_gscore>  (52) 
-2.72319

>  <r_i_glide_lipo>  (52) 
-0.535379

>  <r_i_glide_hbond>  (52) 
0

>  <r_i_glide_metal>  (52) 
-0

>  <r_i_glide_rewards>  (52) 
-1.14075

>  <r_i_glide_evdw>  (52) 
-19.8019

>  <r_i_glide_ecoul>  (52) 
-0.379834

>  <r_i_glide_erotb>  (52) 
0

>  <r_i_glide_esite>  (52) 
0

>  <r_i_glide_emodel>  (52) 
-23.112

>  <r_i_glide_energy>  (52) 
-20.1817

>  <r_i_glide_einternal>  (52) 
1.63411

>  <r_i_glide_intrahb_reward>  (52) 
-0

>  <i_i_glide_confnum>  (52) 
1

>  <i_i_glide_posenum>  (52) 
18

>  <r_i_glide_eff_state_penalty>  (52) 
0

>  <ligand_id>  (52) 
12

>  <original_smiles>  (52) 
COC12C=CC34C5Cc6ccc(O)cc6C1(O)OC31C=CC5(CC1)C24

>  <smiles>  (52) 
[H]Oc1c([H])c([H])c2c(c1[H])C1(O[H])OC34C([H])=C([H])C5(C([H])([H])C3([H])[H])C([H])(C2([H])[H])C42C([H])=C([H])C1(OC([H])([H])[H])C52[H]

$$$$
12:0:1
     RDKit          3D

 45 51  0  0  1  0  0  0  0  0999 V2000
    6.1988   -7.5086    1.9198 C   0  0  0  0  0  0  0  0  0  0  0  0
    5.7846   -6.6745    0.8368 O   0  0  0  0  0  0  0  0  0  0  0  0
    5.8453   -5.2646    1.0567 C   0  0  2  0  0  0  0  0  0  0  0  0
    7.1566   -4.7827    1.4455 C   0  0  0  0  0  0  0  0  0  0  0  0
    6.8736   -3.5425    1.1542 C   0  0  0  0  0  0  0  0  0  0  0  0
    5.4004   -3.4226    0.5160 C   0  0  1  0  0  0  0  0  0  0  0  0
    4.2004   -4.3589   -0.3653 C   0  0  1  0  0  0  0  0  0  0  0  0
    2.7180   -4.6495    0.1147 C   0  0  0  0  0  0  0  0  0  0  0  0
    2.5751   -5.5746    1.2908 C   0  0  0  0  0  0  0  0  0  0  0  0
    1.4305   -6.4044    1.3104 C   0  0  0  0  0  0  0  0  0  0  0  0
    1.1690   -7.2340    2.4070 C   0  0  0  0  0  0  0  0  0  0  0  0
    2.0540   -7.2337    3.4941 C   0  0  0  0  0  0  0  0  0  0  0  0
    1.8165   -8.0425    4.5638 O   0  0  0  0  0  0  0  0  0  0  0  0
    3.1942   -6.4057    3.4771 C   0  0  0  0  0  0  0  0  0  0  0  0
    3.4850   -5.5532    2.3742 C   0  0  0  0  0  0  0  0  0  0  0  0
    4.7985   -4.7190    2.3343 C   0  0  1  0  0  0  0  0  0  0  0  0
    5.4925   -4.8615    3.5605 O   0  0  0  0  0  0  0  0  0  0  0  0
    4.5286   -3.1917    2.1628 O   0  0  0  0  0  0  0  0  0  0  0  0
    4.6862   -2.2343    0.9318 C   0  0  2  0  0  0  0  0  0  0  0  0
    3.4458   -1.9314    0.1217 C   0  0  0  0  0  0  0  0  0  0  0  0
    3.5266   -2.4743   -1.1149 C   0  0  0  0  0  0  0  0  0  0  0  0
    4.7847   -3.3595   -1.3991 C   0  0  2  0  0  0  0  0  0  0  0  0
    5.6822   -1.9704   -1.3926 C   0  0  0  0  0  0  0  0  0  0  0  0
    5.6792   -1.3188    0.1051 C   0  0  0  0  0  0  0  0  0  0  0  0
    5.8135   -4.3196   -0.4405 C   0  0  2  0  0  0  0  0  0  0  0  0
    6.0253   -8.5559    1.6697 H   0  0  0  0  0  0  0  0  0  0  0  0
    5.6437   -7.3125    2.8334 H   0  0  0  0  0  0  0  0  0  0  0  0
    7.2588   -7.3898    2.1479 H   0  0  0  0  0  0  0  0  0  0  0  0
    8.0228   -5.2770    1.8540 H   0  0  0  0  0  0  0  0  0  0  0  0
    7.5933   -2.7499    1.2777 H   0  0  0  0  0  0  0  0  0  0  0  0
    4.2202   -5.4119   -0.8297 H   0  0  0  0  0  0  0  0  0  0  0  0
    2.1117   -3.8142    0.4381 H   0  0  0  0  0  0  0  0  0  0  0  0
    2.1537   -5.0618   -0.7214 H   0  0  0  0  0  0  0  0  0  0  0  0
    0.7397   -6.4055    0.4833 H   0  0  0  0  0  0  0  0  0  0  0  0
    0.2946   -7.8675    2.4085 H   0  0  0  0  0  0  0  0  0  0  0  0
    1.1003   -8.6456    4.4361 H   0  0  0  0  0  0  0  0  0  0  0  0
    3.8557   -6.4677    4.3258 H   0  0  0  0  0  0  0  0  0  0  0  0
    4.8857   -4.6519    4.2501 H   0  0  0  0  0  0  0  0  0  0  0  0
    2.6450   -1.3075    0.4854 H   0  0  0  0  0  0  0  0  0  0  0  0
    2.7713   -2.3358   -1.8768 H   0  0  0  0  0  0  0  0  0  0  0  0
    6.7117   -2.1676   -1.6976 H   0  0  0  0  0  0  0  0  0  0  0  0
    5.3210   -1.2410   -2.1228 H   0  0  0  0  0  0  0  0  0  0  0  0
    5.2574   -0.3109    0.0495 H   0  0  0  0  0  0  0  0  0  0  0  0
    6.6678   -1.1281    0.5182 H   0  0  0  0  0  0  0  0  0  0  0  0
    6.7814   -4.2500   -0.9454 H   0  0  0  0  0  0  0  0  0  0  0  0
  1  2  1  0
  1 26  1  0
  1 27  1  0
  1 28  1  0
  3  2  1  6
  3 16  1  0
  3 25  1  0
  3  4  1  0
  4  5  2  0
  4 29  1  0
  6  5  1  1
  5 30  1  0
  6 19  1  0
  6 25  1  0
  6  7  1  0
  7 22  1  0
  7  8  1  0
  7 31  1  6
  8  9  1  0
  8 32  1  0
  8 33  1  0
  9 15  2  0
  9 10  1  0
 10 11  2  0
 10 34  1  0
 11 12  1  0
 11 35  1  0
 12 13  1  0
 12 14  2  0
 13 36  1  0
 14 15  1  0
 14 37  1  0
 15 16  1  0
 16 17  1  1
 16 18  1  0
 17 38  1  0
 19 18  1  1
 19 24  1  0
 19 20  1  0
 20 21  2  0
 20 39  1  0
 21 22  1  0
 21 40  1  0
 22 23  1  1
 22 25  1  0
 23 24  1  0
 23 41  1  0
 23 42  1  0
 24 43  1  0
 24 44  1  0
 25 45  1  6
M  END
>  <i_m_ct_stereo_status>  (53) 
1

>  <s_m_source_file>  (53) 
/var/tmp/pbs.5076255.sched01/tmp5vb4dkz1/0x5hafel7.sdf

>  <i_m_source_file_index>  (53) 
21

>  <i_lp_mmshare_version>  (53) 
48012

>  <i_f3d_flags>  (53) 
2

>  <s_epik_input>  (53) 
QzEyM1tDQEBdNDVPW0NAXTYoW09IXSlbQ0BdKE9bQ0gzXSkoW0NIXT1bQ0hdMSlbQ0BIXTNDKFtDSF09W0NIXTQpKFtDSDJdW0NIMl01KVtDQEBIXTJbQ0gyXWM3YzZbY0hdYyhbT0hdKVtjSF1bY0hdNw==

>  <s_epik_cmdline>  (53) 
J2VwaWtfcHl0aG9uJywgJy1waHQnLCAnMi4wJywgJy1waCcsICc3LjAnLCAnLXRuJywgJzgnLCAnLW1hJywgJzIwMCcsICctaW1hZScsICc8aW5maWxlLm1hZT4nLCAnLW9tYWUnLCAnPG91dGZpbGUubWFlPic=

>  <r_lp_tautomer_probability>  (53) 
1

>  <r_epik_Ionization_Penalty>  (53) 
0.000573808

>  <r_epik_Ionization_Penalty_Charging>  (53) 
0

>  <r_epik_Ionization_Penalty_Neutral>  (53) 
0.000573808

>  <r_epik_State_Penalty>  (53) 
0.000315278

>  <r_epik_Charging_Adjusted_Penalty>  (53) 
0.000315278

>  <i_epik_Tot_Q>  (53) 
0

>  <i_epik_Tot_abs_Q>  (53) 
0

>  <s_lp_Force_Field>  (53) 
OPLS3e

>  <r_lp_Energy>  (53) 
599.694

>  <b_lp_Chiralities_Consistent>  (53) 
0

>  <s_lp_Variant>  (53) 
12:0-1

>  <s_i_glide_gridfile>  (53) 
pfpi4k_grid

>  <i_i_glide_lignum>  (53) 
21

>  <i_i_glide_rotatable_bonds>  (53) 
3

>  <r_i_docking_score>  (53) 
-2.67707

>  <r_i_glide_ligand_efficiency>  (53) 
-0.107083

>  <r_i_glide_ligand_efficiency_sa>  (53) 
-0.313112

>  <r_i_glide_ligand_efficiency_ln>  (53) 
-0.634545

>  <r_i_glide_gscore>  (53) 
-2.67707

>  <r_i_glide_lipo>  (53) 
-0.484616

>  <r_i_glide_hbond>  (53) 
0

>  <r_i_glide_metal>  (53) 
-0

>  <r_i_glide_rewards>  (53) 
-1.13313

>  <r_i_glide_evdw>  (53) 
-19.0131

>  <r_i_glide_ecoul>  (53) 
-0.724431

>  <r_i_glide_erotb>  (53) 
0

>  <r_i_glide_esite>  (53) 
0

>  <r_i_glide_emodel>  (53) 
-22.5029

>  <r_i_glide_energy>  (53) 
-19.7376

>  <r_i_glide_einternal>  (53) 
2.10229

>  <r_i_glide_intrahb_reward>  (53) 
-0

>  <i_i_glide_confnum>  (53) 
2

>  <i_i_glide_posenum>  (53) 
4

>  <r_i_glide_eff_state_penalty>  (53) 
0

>  <ligand_id>  (53) 
12

>  <original_smiles>  (53) 
COC12C=CC34C5Cc6ccc(O)cc6C1(O)OC31C=CC5(CC1)C24

>  <smiles>  (53) 
[H]Oc1c([H])c([H])c2c(c1[H])C1(O[H])OC34C([H])=C([H])C5(C([H])([H])C3([H])[H])C([H])(C2([H])[H])C42C([H])=C([H])C1(OC([H])([H])[H])C52[H]

$$$$
12:0:2
     RDKit          3D

 45 51  0  0  1  0  0  0  0  0999 V2000
    5.8071   -5.0744    4.4327 C   0  0  0  0  0  0  0  0  0  0  0  0
    4.4538   -4.8710    4.0734 O   0  0  0  0  0  0  0  0  0  0  0  0
    4.1714   -3.7426    3.2502 C   0  0  2  0  0  0  0  0  0  0  0  0
    4.4485   -2.4532    3.8469 C   0  0  0  0  0  0  0  0  0  0  0  0
    4.3792   -1.8059    2.7188 C   0  0  0  0  0  0  0  0  0  0  0  0
    4.1251   -2.8168    1.4932 C   0  0  1  0  0  0  0  0  0  0  0  0
    4.3266   -4.5083    1.0317 C   0  0  1  0  0  0  0  0  0  0  0  0
    3.1721   -5.5184    0.6226 C   0  0  0  0  0  0  0  0  0  0  0  0
    2.2431   -5.9308    1.7316 C   0  0  0  0  0  0  0  0  0  0  0  0
    1.7061   -7.2376    1.6725 C   0  0  0  0  0  0  0  0  0  0  0  0
    0.7551   -7.6798    2.6014 C   0  0  0  0  0  0  0  0  0  0  0  0
    0.3330   -6.8046    3.6147 C   0  0  0  0  0  0  0  0  0  0  0  0
   -0.6018   -7.2232    4.5175 O   0  0  0  0  0  0  0  0  0  0  0  0
    0.8793   -5.5060    3.6869 C   0  0  0  0  0  0  0  0  0  0  0  0
    1.8387   -5.0324    2.7525 C   0  0  0  0  0  0  0  0  0  0  0  0
    2.4782   -3.6250    2.8993 C   0  0  1  0  0  0  0  0  0  0  0  0
    1.8379   -2.9446    3.9789 O   0  0  0  0  0  0  0  0  0  0  0  0
    2.2667   -2.7442    1.6306 O   0  0  0  0  0  0  0  0  0  0  0  0
    3.2294   -2.2943    0.4782 C   0  0  2  0  0  0  0  0  0  0  0  0
    3.1983   -3.0949   -0.8036 C   0  0  0  0  0  0  0  0  0  0  0  0
    4.3397   -3.7932   -0.9692 C   0  0  0  0  0  0  0  0  0  0  0  0
    5.3711   -3.7204    0.2021 C   0  0  2  0  0  0  0  0  0  0  0  0
    5.6646   -2.1535   -0.2363 C   0  0  0  0  0  0  0  0  0  0  0  0
    4.3334   -1.2543    0.0297 C   0  0  0  0  0  0  0  0  0  0  0  0
    5.2593   -3.4985    1.8827 C   0  0  2  0  0  0  0  0  0  0  0  0
    5.8554   -5.9593    5.0663 H   0  0  0  0  0  0  0  0  0  0  0  0
    6.2127   -4.2355    4.9981 H   0  0  0  0  0  0  0  0  0  0  0  0
    6.4285   -5.2573    3.5565 H   0  0  0  0  0  0  0  0  0  0  0  0
    4.6451   -2.1623    4.8697 H   0  0  0  0  0  0  0  0  0  0  0  0
    4.5472   -0.7387    2.6587 H   0  0  0  0  0  0  0  0  0  0  0  0
    4.8818   -5.3927    1.5237 H   0  0  0  0  0  0  0  0  0  0  0  0
    2.4620   -5.2124   -0.1362 H   0  0  0  0  0  0  0  0  0  0  0  0
    3.6252   -6.4142    0.1945 H   0  0  0  0  0  0  0  0  0  0  0  0
    2.0127   -7.9268    0.9057 H   0  0  0  0  0  0  0  0  0  0  0  0
    0.3597   -8.6846    2.5248 H   0  0  0  0  0  0  0  0  0  0  0  0
   -0.7862   -8.1519    4.4542 H   0  0  0  0  0  0  0  0  0  0  0  0
    0.5253   -4.8741    4.4964 H   0  0  0  0  0  0  0  0  0  0  0  0
    2.3101   -2.1375    4.1121 H   0  0  0  0  0  0  0  0  0  0  0  0
    2.3796   -3.0294   -1.4992 H   0  0  0  0  0  0  0  0  0  0  0  0
    4.5604   -4.3913   -1.8476 H   0  0  0  0  0  0  0  0  0  0  0  0
    6.4932   -1.7383    0.3339 H   0  0  0  0  0  0  0  0  0  0  0  0
    5.9814   -2.0720   -1.2769 H   0  0  0  0  0  0  0  0  0  0  0  0
    4.0166   -0.8116   -0.9153 H   0  0  0  0  0  0  0  0  0  0  0  0
    4.4956   -0.3784    0.6530 H   0  0  0  0  0  0  0  0  0  0  0  0
    6.1846   -2.9932    2.1369 H   0  0  0  0  0  0  0  0  0  0  0  0
  1  2  1  0
  1 26  1  0
  1 27  1  0
  1 28  1  0
  3  2  1  1
  3 16  1  0
  3 25  1  0
  3  4  1  0
  4  5  2  0
  4 29  1  0
  6  5  1  1
  5 30  1  0
  6 19  1  0
  6 25  1  0
  6  7  1  0
  7 22  1  0
  7  8  1  0
  7 31  1  1
  8  9  1  0
  8 32  1  0
  8 33  1  0
  9 15  2  0
  9 10  1  0
 10 11  2  0
 10 34  1  0
 11 12  1  0
 11 35  1  0
 12 13  1  0
 12 14  2  0
 13 36  1  0
 14 15  1  0
 14 37  1  0
 15 16  1  0
 16 17  1  1
 16 18  1  0
 17 38  1  0
 19 18  1  1
 19 24  1  0
 19 20  1  0
 20 21  2  0
 20 39  1  0
 21 22  1  0
 21 40  1  0
 22 23  1  1
 22 25  1  0
 23 24  1  0
 23 41  1  0
 23 42  1  0
 24 43  1  0
 24 44  1  0
 25 45  1  1
M  END
>  <i_m_ct_stereo_status>  (54) 
1

>  <s_m_source_file>  (54) 
/var/tmp/pbs.5076255.sched01/tmp5vb4dkz1/0x5hafel7.sdf

>  <i_m_source_file_index>  (54) 
21

>  <i_lp_mmshare_version>  (54) 
48012

>  <i_f3d_flags>  (54) 
2

>  <s_epik_input>  (54) 
QzEyM1tDQEBdNDVPW0NAXTYoW09IXSlbQ0BdKE9bQ0gzXSkoW0NIXT1bQ0hdMSlbQ0BIXTNDKFtDSF09W0NIXTQpKFtDSDJdW0NIMl01KVtDQEBIXTJbQ0gyXWM3YzZbY0hdYyhbT0hdKVtjSF1bY0hdNw==

>  <s_epik_cmdline>  (54) 
J2VwaWtfcHl0aG9uJywgJy1waHQnLCAnMi4wJywgJy1waCcsICc3LjAnLCAnLXRuJywgJzgnLCAnLW1hJywgJzIwMCcsICctaW1hZScsICc8aW5maWxlLm1hZT4nLCAnLW9tYWUnLCAnPG91dGZpbGUubWFlPic=

>  <r_lp_tautomer_probability>  (54) 
1

>  <r_epik_Ionization_Penalty>  (54) 
0.000573808

>  <r_epik_Ionization_Penalty_Charging>  (54) 
0

>  <r_epik_Ionization_Penalty_Neutral>  (54) 
0.000573808

>  <r_epik_State_Penalty>  (54) 
0.000315278

>  <r_epik_Charging_Adjusted_Penalty>  (54) 
0.000315278

>  <i_epik_Tot_Q>  (54) 
0

>  <i_epik_Tot_abs_Q>  (54) 
0

>  <s_lp_Force_Field>  (54) 
OPLS3e

>  <r_lp_Energy>  (54) 
599.694

>  <b_lp_Chiralities_Consistent>  (54) 
0

>  <s_lp_Variant>  (54) 
12:0-1

>  <s_i_glide_gridfile>  (54) 
pfpi4k_grid

>  <i_i_glide_lignum>  (54) 
21

>  <i_i_glide_rotatable_bonds>  (54) 
3

>  <r_i_docking_score>  (54) 
-2.38904

>  <r_i_glide_ligand_efficiency>  (54) 
-0.0955617

>  <r_i_glide_ligand_efficiency_sa>  (54) 
-0.279424

>  <r_i_glide_ligand_efficiency_ln>  (54) 
-0.566275

>  <r_i_glide_gscore>  (54) 
-2.38904

>  <r_i_glide_lipo>  (54) 
-0.168996

>  <r_i_glide_hbond>  (54) 
0

>  <r_i_glide_metal>  (54) 
-0

>  <r_i_glide_rewards>  (54) 
-1.11558

>  <r_i_glide_evdw>  (54) 
-19.9873

>  <r_i_glide_ecoul>  (54) 
-0.689451

>  <r_i_glide_erotb>  (54) 
0

>  <r_i_glide_esite>  (54) 
-0.00167879

>  <r_i_glide_emodel>  (54) 
-24.1652

>  <r_i_glide_energy>  (54) 
-20.6768

>  <r_i_glide_einternal>  (54) 
0.0652956

>  <r_i_glide_intrahb_reward>  (54) 
-0

>  <i_i_glide_confnum>  (54) 
1

>  <i_i_glide_posenum>  (54) 
38

>  <r_i_glide_eff_state_penalty>  (54) 
0

>  <ligand_id>  (54) 
12

>  <original_smiles>  (54) 
COC12C=CC34C5Cc6ccc(O)cc6C1(O)OC31C=CC5(CC1)C24

>  <smiles>  (54) 
[H]Oc1c([H])c([H])c2c(c1[H])C1(O[H])OC34C([H])=C([H])C5(C([H])([H])C3([H])[H])C([H])(C2([H])[H])C42C([H])=C([H])C1(OC([H])([H])[H])C52[H]

$$$$
13:0:0
     RDKit          3D

 57 62  0  0  1  0  0  0  0  0999 V2000
    4.6330   -0.5873   -1.6700 C   0  0  0  0  0  0  0  0  0  0  0  0
    4.3638   -1.5875   -0.8421 C   0  0  0  0  0  0  0  0  0  0  0  0
    3.4599   -1.3623    0.3824 C   0  0  0  0  0  0  0  0  0  0  0  0
    3.0248   -0.2852    0.8316 O   0  0  0  0  0  0  0  0  0  0  0  0
    3.5340   -2.5829    1.2480 C   0  0  1  0  0  0  0  0  0  0  0  0
    2.9080   -2.9674    2.6468 C   0  0  1  0  0  0  0  0  0  0  0  0
    1.4971   -3.0579    2.7774 O   0  0  0  0  0  0  0  0  0  0  0  0
    3.6523   -4.2678    3.1566 C   0  0  1  0  0  0  0  0  0  0  0  0
    3.0839   -5.5760    2.6117 C   0  0  2  0  0  0  0  0  0  0  0  0
    3.4620   -6.8529    3.3916 C   0  0  1  0  0  0  0  0  0  0  0  0
    2.2901   -7.5680    3.6868 O   0  0  0  0  0  0  0  0  0  0  0  0
    4.3383   -7.5563    2.5561 O   0  0  0  0  0  0  0  0  0  0  0  0
    4.0264   -7.2817    1.2053 C   0  0  0  0  0  0  0  0  0  0  0  0
    3.7788   -5.7757    1.2570 C   0  0  1  0  0  0  0  0  0  0  0  0
    2.8850   -5.2378    0.1916 C   0  0  1  0  0  0  0  0  0  0  0  0
    1.5634   -5.8184    0.2370 O   0  0  0  0  0  0  0  0  0  0  0  0
    2.8065   -3.6777    0.1586 C   0  0  2  0  0  0  0  0  0  0  0  0
    2.5866   -3.4580   -1.3990 C   0  0  0  0  0  0  0  0  0  0  0  0
    3.9280   -3.5134   -2.1738 C   0  0  0  0  0  0  0  0  0  0  0  0
    4.9830   -2.9943   -1.2101 C   0  0  2  0  0  0  0  0  0  0  0  0
    5.5972   -4.1746   -0.2089 C   0  0  1  0  0  0  0  0  0  0  0  0
    6.9792   -3.9461   -0.0945 O   0  0  0  0  0  0  0  0  0  0  0  0
    5.1078   -4.9662    1.1694 C   0  0  1  0  0  0  0  0  0  0  0  0
    5.1035   -4.3582    2.6034 C   0  0  2  0  0  0  0  0  0  0  0  0
    5.8898   -5.1620    3.4565 O   0  0  0  0  0  0  0  0  0  0  0  0
    5.7538   -3.0440    2.6739 C   0  0  0  0  0  0  0  0  0  0  0  0
    5.0318   -2.0277    1.8427 C   0  0  1  0  0  0  0  0  0  0  0  0
    6.1866   -1.1820    1.1285 C   0  0  0  0  0  0  0  0  0  0  0  0
    4.8216   -0.9318    2.7481 O   0  0  0  0  0  0  0  0  0  0  0  0
    5.2578   -0.6970   -2.5612 H   0  0  0  0  0  0  0  0  0  0  0  0
    4.2192    0.3533   -1.4542 H   0  0  0  0  0  0  0  0  0  0  0  0
    3.0547   -2.2024    3.4047 H   0  0  0  0  0  0  0  0  0  0  0  0
    1.1551   -2.2456    2.4480 H   0  0  0  0  0  0  0  0  0  0  0  0
    3.6354   -4.2732    4.2353 H   0  0  0  0  0  0  0  0  0  0  0  0
    2.0019   -5.5007    2.5443 H   0  0  0  0  0  0  0  0  0  0  0  0
    3.9503   -6.6301    4.3201 H   0  0  0  0  0  0  0  0  0  0  0  0
    2.5305   -8.2932    4.2210 H   0  0  0  0  0  0  0  0  0  0  0  0
    4.8261   -7.5730    0.5226 H   0  0  0  0  0  0  0  0  0  0  0  0
    3.1108   -7.8157    0.9413 H   0  0  0  0  0  0  0  0  0  0  0  0
    3.3224   -5.6022   -0.6995 H   0  0  0  0  0  0  0  0  0  0  0  0
    1.6497   -6.7510    0.2617 H   0  0  0  0  0  0  0  0  0  0  0  0
    1.8001   -3.4689    0.4991 H   0  0  0  0  0  0  0  0  0  0  0  0
    1.8824   -4.2004   -1.8035 H   0  0  0  0  0  0  0  0  0  0  0  0
    2.0846   -2.5197   -1.5953 H   0  0  0  0  0  0  0  0  0  0  0  0
    4.2760   -4.4988   -2.4923 H   0  0  0  0  0  0  0  0  0  0  0  0
    3.8215   -2.8742   -3.0574 H   0  0  0  0  0  0  0  0  0  0  0  0
    5.8093   -2.7710   -1.8773 H   0  0  0  0  0  0  0  0  0  0  0  0
    5.6089   -5.0224   -0.8906 H   0  0  0  0  0  0  0  0  0  0  0  0
    7.3854   -4.7201    0.2448 H   0  0  0  0  0  0  0  0  0  0  0  0
    5.8967   -5.7058    1.2038 H   0  0  0  0  0  0  0  0  0  0  0  0
    5.5605   -6.0335    3.3651 H   0  0  0  0  0  0  0  0  0  0  0  0
    5.7962   -2.6993    3.7179 H   0  0  0  0  0  0  0  0  0  0  0  0
    6.7504   -3.1704    2.2544 H   0  0  0  0  0  0  0  0  0  0  0  0
    6.7003   -1.6278    0.2711 H   0  0  0  0  0  0  0  0  0  0  0  0
    6.9955   -0.9992    1.8401 H   0  0  0  0  0  0  0  0  0  0  0  0
    5.8890   -0.1864    0.7799 H   0  0  0  0  0  0  0  0  0  0  0  0
    4.3591   -0.2641    2.2688 H   0  0  0  0  0  0  0  0  0  0  0  0
  1  2  2  0
  1 30  1  0
  1 31  1  0
  2 20  1  0
  2  3  1  0
  3  4  2  0
  5  3  1  6
  5 17  1  0
  5 27  1  0
  5  6  1  0
  6  7  1  0
  6  8  1  0
  6 32  1  1
  7 33  1  0
  8 24  1  0
  8  9  1  0
  8 34  1  1
  9 14  1  0
  9 10  1  0
  9 35  1  6
 10 11  1  0
 10 12  1  0
 10 36  1  1
 11 37  1  0
 12 13  1  0
 14 13  1  6
 13 38  1  0
 13 39  1  0
 14 23  1  0
 14 15  1  0
 15 16  1  0
 15 17  1  0
 15 40  1  6
 16 41  1  0
 17 18  1  0
 17 42  1  1
 18 19  1  0
 18 43  1  0
 18 44  1  0
 19 20  1  0
 19 45  1  0
 19 46  1  0
 20 21  1  0
 20 47  1  6
 21 22  1  0
 21 23  1  0
 21 48  1  6
 22 49  1  0
 23 24  1  0
 23 50  1  1
 24 25  1  1
 24 26  1  0
 25 51  1  0
 26 27  1  0
 26 52  1  0
 26 53  1  0
 27 28  1  0
 27 29  1  1
 28 54  1  0
 28 55  1  0
 28 56  1  0
 29 57  1  0
M  END
>  <i_m_ct_stereo_status>  (55) 
1

>  <s_m_source_file>  (55) 
/var/tmp/pbs.5076255.sched01/tmp5vb4dkz1/0x5hafel7.sdf

>  <i_m_source_file_index>  (55) 
22

>  <i_lp_mmshare_version>  (55) 
48012

>  <i_f3d_flags>  (55) 
0

>  <s_epik_input>  (55) 
Tz1DMUMoPVtDSDJdKVtDQEhdKFtDSDJdW0NIMl0yKVtDQEBIXShbT0hdKVtDQEhdM1tDQEBdKFtPSF0pKFtDSDJdW0NAXTQoW0NIM10pW09IXSlbQ0BASF0oW0NAQEhdNVtPSF0pW0NASF0oW0NAQEhdKFtPSF0pT1tDSDJdNilbQ0BAXTM2W0NAQEhdKFtPSF0pW0NASF0yW0NAXTE0NQ==

>  <s_epik_cmdline>  (55) 
J2VwaWtfcHl0aG9uJywgJy1waHQnLCAnMi4wJywgJy1waCcsICc3LjAnLCAnLXRuJywgJzgnLCAnLW1hJywgJzIwMCcsICctaW1hZScsICc8aW5maWxlLm1hZT4nLCAnLW9tYWUnLCAnPG91dGZpbGUubWFlPic=

>  <r_lp_tautomer_probability>  (55) 
1

>  <r_epik_Ionization_Penalty>  (55) 
3.97661e-07

>  <r_epik_Ionization_Penalty_Charging>  (55) 
0

>  <r_epik_Ionization_Penalty_Neutral>  (55) 
3.97661e-07

>  <r_epik_State_Penalty>  (55) 
-0

>  <r_epik_Charging_Adjusted_Penalty>  (55) 
0

>  <i_epik_Tot_Q>  (55) 
0

>  <i_epik_Tot_abs_Q>  (55) 
0

>  <s_epik_Chemistry_Notes>  (55) 
This compound contains an acetal/aminal-like group ( X-CH(R)-Y where X, Y are N, S, or O) that may be acid/base labile, releasing an aldehyde.

>  <s_lp_Force_Field>  (55) 
OPLS3e

>  <r_lp_Energy>  (55) 
234.989

>  <b_lp_Chiralities_Consistent>  (55) 
1

>  <s_lp_Variant>  (55) 
13:0-1

>  <s_i_glide_gridfile>  (55) 
pfpi4k_grid

>  <i_i_glide_lignum>  (55) 
22

>  <i_i_glide_rotatable_bonds>  (55) 
6

>  <r_i_docking_score>  (55) 
-3.05055

>  <r_i_glide_ligand_efficiency>  (55) 
-0.105191

>  <r_i_glide_ligand_efficiency_sa>  (55) 
-0.323181

>  <r_i_glide_ligand_efficiency_ln>  (55) 
-0.698499

>  <r_i_glide_gscore>  (55) 
-3.05055

>  <r_i_glide_lipo>  (55) 
-0.583702

>  <r_i_glide_hbond>  (55) 
-0.130548

>  <r_i_glide_metal>  (55) 
-0

>  <r_i_glide_rewards>  (55) 
-1.12426

>  <r_i_glide_evdw>  (55) 
-11.5763

>  <r_i_glide_ecoul>  (55) 
-3.7382

>  <r_i_glide_erotb>  (55) 
0

>  <r_i_glide_esite>  (55) 
-0.0724987

>  <r_i_glide_emodel>  (55) 
-19.3351

>  <r_i_glide_energy>  (55) 
-15.3145

>  <r_i_glide_einternal>  (55) 
1.44397

>  <r_i_glide_intrahb_reward>  (55) 
-0.5

>  <i_i_glide_confnum>  (55) 
2

>  <i_i_glide_posenum>  (55) 
11

>  <r_i_glide_eff_state_penalty>  (55) 
0

>  <ligand_id>  (55) 
13

>  <original_smiles>  (55) 
C=C1C(=O)C23C(O)C4C5C(O)OCC56C(O)C2CCC1C(O)C6C4(O)CC3(C)O

>  <smiles>  (55) 
[H]OC1([H])OC([H])([H])C23C([H])(O[H])C4([H])C([H])([H])C([H])([H])C5([H])C(=C([H])[H])C(=O)C46C([H])(O[H])C([H])(C12[H])C(O[H])(C([H])([H])C6(O[H])C([H])([H])[H])C3([H])C5([H])O[H]

$$$$
13:0:1
     RDKit          3D

 57 62  0  0  1  0  0  0  0  0999 V2000
    5.1581   -0.9542   -0.8813 C   0  0  0  0  0  0  0  0  0  0  0  0
    4.6428   -1.8608   -0.0421 C   0  0  0  0  0  0  0  0  0  0  0  0
    3.5051   -1.4317    0.8687 C   0  0  0  0  0  0  0  0  0  0  0  0
    2.9767   -0.3132    0.9560 O   0  0  0  0  0  0  0  0  0  0  0  0
    3.3289   -2.4723    1.9307 C   0  0  1  0  0  0  0  0  0  0  0  0
    2.3758   -2.5794    3.1897 C   0  0  1  0  0  0  0  0  0  0  0  0
    1.0109   -2.6381    2.9593 O   0  0  0  0  0  0  0  0  0  0  0  0
    2.8798   -3.7917    4.0715 C   0  0  1  0  0  0  0  0  0  0  0  0
    2.3640   -5.1542    3.6111 C   0  0  2  0  0  0  0  0  0  0  0  0
    2.4346   -6.2773    4.6716 C   0  0  1  0  0  0  0  0  0  0  0  0
    1.1817   -6.8854    4.8239 O   0  0  0  0  0  0  0  0  0  0  0  0
    3.4080   -7.1647    4.2084 O   0  0  0  0  0  0  0  0  0  0  0  0
    3.4764   -7.1102    2.7880 C   0  0  0  0  0  0  0  0  0  0  0  0
    3.3404   -5.6137    2.5136 C   0  0  1  0  0  0  0  0  0  0  0  0
    2.7416   -5.2686    1.1957 C   0  0  1  0  0  0  0  0  0  0  0  0
    1.4397   -5.8345    1.0017 O   0  0  0  0  0  0  0  0  0  0  0  0
    2.7897   -3.7293    0.9010 C   0  0  2  0  0  0  0  0  0  0  0  0
    2.8901   -3.7464   -0.6608 C   0  0  0  0  0  0  0  0  0  0  0  0
    4.3332   -4.0336   -1.0651 C   0  0  0  0  0  0  0  0  0  0  0  0
    5.2045   -3.3514   -0.0223 C   0  0  2  0  0  0  0  0  0  0  0  0
    5.5290   -4.3485    1.2759 C   0  0  1  0  0  0  0  0  0  0  0  0
    6.8828   -4.1833    1.6137 O   0  0  0  0  0  0  0  0  0  0  0  0
    4.7046   -4.8535    2.6270 C   0  0  1  0  0  0  0  0  0  0  0  0
    4.4278   -3.9920    3.9153 C   0  0  2  0  0  0  0  0  0  0  0  0
    4.9175   -4.6723    5.0557 O   0  0  0  0  0  0  0  0  0  0  0  0
    5.0844   -2.6836    3.9722 C   0  0  0  0  0  0  0  0  0  0  0  0
    4.6801   -1.8698    2.7796 C   0  0  1  0  0  0  0  0  0  0  0  0
    5.9807   -1.1527    2.2281 C   0  0  0  0  0  0  0  0  0  0  0  0
    4.2954   -0.6254    3.4104 O   0  0  0  0  0  0  0  0  0  0  0  0
    5.9829   -1.1855   -1.5390 H   0  0  0  0  0  0  0  0  0  0  0  0
    4.7574    0.0458   -0.8847 H   0  0  0  0  0  0  0  0  0  0  0  0
    2.3603   -1.6969    3.8204 H   0  0  0  0  0  0  0  0  0  0  0  0
    0.7744   -1.8669    2.4632 H   0  0  0  0  0  0  0  0  0  0  0  0
    2.5884   -3.6007    5.1066 H   0  0  0  0  0  0  0  0  0  0  0  0
    1.3250   -5.0794    3.2878 H   0  0  0  0  0  0  0  0  0  0  0  0
    2.7363   -5.9195    5.6542 H   0  0  0  0  0  0  0  0  0  0  0  0
    1.2582   -7.5432    5.5144 H   0  0  0  0  0  0  0  0  0  0  0  0
    4.4026   -7.5423    2.4026 H   0  0  0  0  0  0  0  0  0  0  0  0
    2.6489   -7.6677    2.3531 H   0  0  0  0  0  0  0  0  0  0  0  0
    3.3284   -5.8311    0.4681 H   0  0  0  0  0  0  0  0  0  0  0  0
    1.4876   -6.7700    1.1675 H   0  0  0  0  0  0  0  0  0  0  0  0
    1.7878   -3.4124    0.9047 H   0  0  0  0  0  0  0  0  0  0  0  0
    2.2346   -4.5114   -1.0839 H   0  0  0  0  0  0  0  0  0  0  0  0
    2.5122   -2.8301   -1.1233 H   0  0  0  0  0  0  0  0  0  0  0  0
    4.5499   -5.1011   -1.1257 H   0  0  0  0  0  0  0  0  0  0  0  0
    4.5161   -3.6288   -2.0624 H   0  0  0  0  0  0  0  0  0  0  0  0
    6.1750   -3.2795   -0.5146 H   0  0  0  0  0  0  0  0  0  0  0  0
    5.6221   -5.3060    0.7656 H   0  0  0  0  0  0  0  0  0  0  0  0
    6.9398   -3.4677    2.2318 H   0  0  0  0  0  0  0  0  0  0  0  0
    5.4094   -5.5999    2.9852 H   0  0  0  0  0  0  0  0  0  0  0  0
    4.5821   -5.5615    5.0283 H   0  0  0  0  0  0  0  0  0  0  0  0
    4.8568   -2.1909    4.9030 H   0  0  0  0  0  0  0  0  0  0  0  0
    6.1642   -2.8515    3.9803 H   0  0  0  0  0  0  0  0  0  0  0  0
    6.6434   -1.7756    1.6339 H   0  0  0  0  0  0  0  0  0  0  0  0
    6.5834   -0.8029    3.0674 H   0  0  0  0  0  0  0  0  0  0  0  0
    5.7957   -0.2475    1.6432 H   0  0  0  0  0  0  0  0  0  0  0  0
    4.0076   -0.0233    2.7263 H   0  0  0  0  0  0  0  0  0  0  0  0
  1  2  2  0
  1 30  1  0
  1 31  1  0
  2 20  1  0
  2  3  1  0
  3  4  2  0
  5  3  1  6
  5 17  1  0
  5 27  1  0
  5  6  1  0
  6  7  1  0
  6  8  1  0
  6 32  1  1
  7 33  1  0
  8 24  1  0
  8  9  1  0
  8 34  1  1
  9 14  1  0
  9 10  1  0
  9 35  1  6
 10 11  1  0
 10 12  1  0
 10 36  1  1
 11 37  1  0
 12 13  1  0
 14 13  1  6
 13 38  1  0
 13 39  1  0
 14 23  1  0
 14 15  1  0
 15 16  1  0
 15 17  1  0
 15 40  1  6
 16 41  1  0
 17 18  1  0
 17 42  1  6
 18 19  1  0
 18 43  1  0
 18 44  1  0
 19 20  1  0
 19 45  1  0
 19 46  1  0
 20 21  1  0
 20 47  1  6
 21 22  1  0
 21 23  1  0
 21 48  1  6
 22 49  1  0
 23 24  1  0
 23 50  1  1
 24 25  1  1
 24 26  1  0
 25 51  1  0
 26 27  1  0
 26 52  1  0
 26 53  1  0
 27 28  1  0
 27 29  1  1
 28 54  1  0
 28 55  1  0
 28 56  1  0
 29 57  1  0
M  END
>  <i_m_ct_stereo_status>  (56) 
1

>  <s_m_source_file>  (56) 
/var/tmp/pbs.5076255.sched01/tmp5vb4dkz1/0x5hafel7.sdf

>  <i_m_source_file_index>  (56) 
22

>  <i_lp_mmshare_version>  (56) 
48012

>  <i_f3d_flags>  (56) 
0

>  <s_epik_input>  (56) 
Tz1DMUMoPVtDSDJdKVtDQEhdKFtDSDJdW0NIMl0yKVtDQEBIXShbT0hdKVtDQEhdM1tDQEBdKFtPSF0pKFtDSDJdW0NAXTQoW0NIM10pW09IXSlbQ0BASF0oW0NAQEhdNVtPSF0pW0NASF0oW0NAQEhdKFtPSF0pT1tDSDJdNilbQ0BAXTM2W0NAQEhdKFtPSF0pW0NASF0yW0NAXTE0NQ==

>  <s_epik_cmdline>  (56) 
J2VwaWtfcHl0aG9uJywgJy1waHQnLCAnMi4wJywgJy1waCcsICc3LjAnLCAnLXRuJywgJzgnLCAnLW1hJywgJzIwMCcsICctaW1hZScsICc8aW5maWxlLm1hZT4nLCAnLW9tYWUnLCAnPG91dGZpbGUubWFlPic=

>  <r_lp_tautomer_probability>  (56) 
1

>  <r_epik_Ionization_Penalty>  (56) 
3.97661e-07

>  <r_epik_Ionization_Penalty_Charging>  (56) 
0

>  <r_epik_Ionization_Penalty_Neutral>  (56) 
3.97661e-07

>  <r_epik_State_Penalty>  (56) 
-0

>  <r_epik_Charging_Adjusted_Penalty>  (56) 
0

>  <i_epik_Tot_Q>  (56) 
0

>  <i_epik_Tot_abs_Q>  (56) 
0

>  <s_epik_Chemistry_Notes>  (56) 
This compound contains an acetal/aminal-like group ( X-CH(R)-Y where X, Y are N, S, or O) that may be acid/base labile, releasing an aldehyde.

>  <s_lp_Force_Field>  (56) 
OPLS3e

>  <r_lp_Energy>  (56) 
234.989

>  <b_lp_Chiralities_Consistent>  (56) 
1

>  <s_lp_Variant>  (56) 
13:0-1

>  <s_i_glide_gridfile>  (56) 
pfpi4k_grid

>  <i_i_glide_lignum>  (56) 
22

>  <i_i_glide_rotatable_bonds>  (56) 
6

>  <r_i_docking_score>  (56) 
-2.35627

>  <r_i_glide_ligand_efficiency>  (56) 
-0.0812508

>  <r_i_glide_ligand_efficiency_sa>  (56) 
-0.249628

>  <r_i_glide_ligand_efficiency_ln>  (56) 
-0.539527

>  <r_i_glide_gscore>  (56) 
-2.35627

>  <r_i_glide_lipo>  (56) 
-0.327083

>  <r_i_glide_hbond>  (56) 
-0.148941

>  <r_i_glide_metal>  (56) 
-0

>  <r_i_glide_rewards>  (56) 
-0.624258

>  <r_i_glide_evdw>  (56) 
-16.6033

>  <r_i_glide_ecoul>  (56) 
-2.53487

>  <r_i_glide_erotb>  (56) 
0

>  <r_i_glide_esite>  (56) 
-0.0455969

>  <r_i_glide_emodel>  (56) 
-19.7345

>  <r_i_glide_energy>  (56) 
-19.1382

>  <r_i_glide_einternal>  (56) 
1.11375

>  <r_i_glide_intrahb_reward>  (56) 
-0

>  <i_i_glide_confnum>  (56) 
1

>  <i_i_glide_posenum>  (56) 
1

>  <r_i_glide_eff_state_penalty>  (56) 
0

>  <ligand_id>  (56) 
13

>  <original_smiles>  (56) 
C=C1C(=O)C23C(O)C4C5C(O)OCC56C(O)C2CCC1C(O)C6C4(O)CC3(C)O

>  <smiles>  (56) 
[H]OC1([H])OC([H])([H])C23C([H])(O[H])C4([H])C([H])([H])C([H])([H])C5([H])C(=C([H])[H])C(=O)C46C([H])(O[H])C([H])(C12[H])C(O[H])(C([H])([H])C6(O[H])C([H])([H])[H])C3([H])C5([H])O[H]

$$$$
13:0:2
     RDKit          3D

 57 62  0  0  1  0  0  0  0  0999 V2000
    4.6748   -0.7378   -0.3968 C   0  0  0  0  0  0  0  0  0  0  0  0
    4.2695   -1.7580    0.3644 C   0  0  0  0  0  0  0  0  0  0  0  0
    3.1572   -1.4970    1.3748 C   0  0  0  0  0  0  0  0  0  0  0  0
    2.4490   -0.4960    1.4770 O   0  0  0  0  0  0  0  0  0  0  0  0
    3.1482   -2.6126    2.3823 C   0  0  1  0  0  0  0  0  0  0  0  0
    2.2827   -2.8921    3.6904 C   0  0  1  0  0  0  0  0  0  0  0  0
    0.8757   -3.0105    3.5860 O   0  0  0  0  0  0  0  0  0  0  0  0
    2.9503   -4.1350    4.4226 C   0  0  1  0  0  0  0  0  0  0  0  0
    2.4931   -5.4917    3.8849 C   0  0  2  0  0  0  0  0  0  0  0  0
    2.7139   -6.7050    4.8255 C   0  0  1  0  0  0  0  0  0  0  0  0
    1.5068   -7.3943    5.0299 O   0  0  0  0  0  0  0  0  0  0  0  0
    3.6643   -7.5117    4.2023 O   0  0  0  0  0  0  0  0  0  0  0  0
    3.6331   -7.3006    2.7985 C   0  0  0  0  0  0  0  0  0  0  0  0
    3.4057   -5.7905    2.6792 C   0  0  1  0  0  0  0  0  0  0  0  0
    2.6772   -5.3665    1.4555 C   0  0  1  0  0  0  0  0  0  0  0  0
    1.3793   -5.9516    1.3091 O   0  0  0  0  0  0  0  0  0  0  0  0
    2.5983   -3.8185    1.3082 C   0  0  2  0  0  0  0  0  0  0  0  0
    2.5875   -3.7140   -0.2682 C   0  0  0  0  0  0  0  0  0  0  0  0
    4.0036   -3.8640   -0.8082 C   0  0  0  0  0  0  0  0  0  0  0  0
    4.9096   -3.2118    0.2180 C   0  0  2  0  0  0  0  0  0  0  0  0
    5.3956   -4.2868    1.3948 C   0  0  1  0  0  0  0  0  0  0  0  0
    6.7705   -4.0695    1.5927 O   0  0  0  0  0  0  0  0  0  0  0  0
    4.7216   -4.9454    2.7628 C   0  0  1  0  0  0  0  0  0  0  0  0
    4.4763   -4.2221    4.1349 C   0  0  2  0  0  0  0  0  0  0  0  0
    5.1001   -4.9734    5.1619 O   0  0  0  0  0  0  0  0  0  0  0  0
    5.0973   -2.8776    4.2514 C   0  0  0  0  0  0  0  0  0  0  0  0
    4.5212   -1.9933    3.1560 C   0  0  1  0  0  0  0  0  0  0  0  0
    5.7520   -1.1721    2.5716 C   0  0  0  0  0  0  0  0  0  0  0  0
    4.1313   -0.8508    3.9250 O   0  0  0  0  0  0  0  0  0  0  0  0
    5.4626   -0.8468   -1.1298 H   0  0  0  0  0  0  0  0  0  0  0  0
    4.2291    0.2388   -0.2854 H   0  0  0  0  0  0  0  0  0  0  0  0
    2.2829   -2.0694    4.3947 H   0  0  0  0  0  0  0  0  0  0  0  0
    0.5391   -2.1945    3.2448 H   0  0  0  0  0  0  0  0  0  0  0  0
    2.7224   -4.0571    5.4897 H   0  0  0  0  0  0  0  0  0  0  0  0
    1.4204   -5.4673    3.6595 H   0  0  0  0  0  0  0  0  0  0  0  0
    3.0973   -6.4274    5.8093 H   0  0  0  0  0  0  0  0  0  0  0  0
    1.6980   -8.1727    5.5347 H   0  0  0  0  0  0  0  0  0  0  0  0
    4.5575   -7.6324    2.3215 H   0  0  0  0  0  0  0  0  0  0  0  0
    2.8132   -7.8706    2.3647 H   0  0  0  0  0  0  0  0  0  0  0  0
    3.2270   -5.8382    0.6414 H   0  0  0  0  0  0  0  0  0  0  0  0
    1.4574   -6.8911    1.4162 H   0  0  0  0  0  0  0  0  0  0  0  0
    1.5555   -3.6613    1.4816 H   0  0  0  0  0  0  0  0  0  0  0  0
    1.9609   -4.4798   -0.7288 H   0  0  0  0  0  0  0  0  0  0  0  0
    2.1400   -2.7881   -0.6348 H   0  0  0  0  0  0  0  0  0  0  0  0
    4.2748   -4.9050   -0.9855 H   0  0  0  0  0  0  0  0  0  0  0  0
    4.0778   -3.3658   -1.7780 H   0  0  0  0  0  0  0  0  0  0  0  0
    5.8238   -3.0298   -0.3440 H   0  0  0  0  0  0  0  0  0  0  0  0
    5.4862   -5.1997    0.8066 H   0  0  0  0  0  0  0  0  0  0  0  0
    6.8912   -3.1928    1.9227 H   0  0  0  0  0  0  0  0  0  0  0  0
    5.4909   -5.6769    3.0045 H   0  0  0  0  0  0  0  0  0  0  0  0
    5.0836   -4.4653    5.9578 H   0  0  0  0  0  0  0  0  0  0  0  0
    4.8912   -2.4840    5.2560 H   0  0  0  0  0  0  0  0  0  0  0  0
    6.1627   -2.9861    4.1999 H   0  0  0  0  0  0  0  0  0  0  0  0
    6.3919   -1.7029    1.8789 H   0  0  0  0  0  0  0  0  0  0  0  0
    6.4084   -0.8220    3.3573 H   0  0  0  0  0  0  0  0  0  0  0  0
    5.4680   -0.2381    2.0841 H   0  0  0  0  0  0  0  0  0  0  0  0
    3.9759   -0.1244    3.3392 H   0  0  0  0  0  0  0  0  0  0  0  0
  1  2  2  0
  1 30  1  0
  1 31  1  0
  2 20  1  0
  2  3  1  0
  3  4  2  0
  5  3  1  6
  5 17  1  0
  5 27  1  0
  5  6  1  0
  6  7  1  0
  6  8  1  0
  6 32  1  1
  7 33  1  0
  8 24  1  0
  8  9  1  0
  8 34  1  1
  9 14  1  0
  9 10  1  0
  9 35  1  6
 10 11  1  0
 10 12  1  0
 10 36  1  1
 11 37  1  0
 12 13  1  0
 14 13  1  6
 13 38  1  0
 13 39  1  0
 14 23  1  0
 14 15  1  0
 15 16  1  0
 15 17  1  0
 15 40  1  6
 16 41  1  0
 17 18  1  0
 17 42  1  1
 18 19  1  0
 18 43  1  0
 18 44  1  0
 19 20  1  0
 19 45  1  0
 19 46  1  0
 20 21  1  0
 20 47  1  6
 21 22  1  0
 21 23  1  0
 21 48  1  6
 22 49  1  0
 23 24  1  0
 23 50  1  1
 24 25  1  1
 24 26  1  0
 25 51  1  0
 26 27  1  0
 26 52  1  0
 26 53  1  0
 27 28  1  0
 27 29  1  1
 28 54  1  0
 28 55  1  0
 28 56  1  0
 29 57  1  0
M  END
>  <i_m_ct_stereo_status>  (57) 
1

>  <s_m_source_file>  (57) 
/var/tmp/pbs.5076255.sched01/tmp5vb4dkz1/0x5hafel7.sdf

>  <i_m_source_file_index>  (57) 
22

>  <i_lp_mmshare_version>  (57) 
48012

>  <i_f3d_flags>  (57) 
0

>  <s_epik_input>  (57) 
Tz1DMUMoPVtDSDJdKVtDQEhdKFtDSDJdW0NIMl0yKVtDQEBIXShbT0hdKVtDQEhdM1tDQEBdKFtPSF0pKFtDSDJdW0NAXTQoW0NIM10pW09IXSlbQ0BASF0oW0NAQEhdNVtPSF0pW0NASF0oW0NAQEhdKFtPSF0pT1tDSDJdNilbQ0BAXTM2W0NAQEhdKFtPSF0pW0NASF0yW0NAXTE0NQ==

>  <s_epik_cmdline>  (57) 
J2VwaWtfcHl0aG9uJywgJy1waHQnLCAnMi4wJywgJy1waCcsICc3LjAnLCAnLXRuJywgJzgnLCAnLW1hJywgJzIwMCcsICctaW1hZScsICc8aW5maWxlLm1hZT4nLCAnLW9tYWUnLCAnPG91dGZpbGUubWFlPic=

>  <r_lp_tautomer_probability>  (57) 
1

>  <r_epik_Ionization_Penalty>  (57) 
3.97661e-07

>  <r_epik_Ionization_Penalty_Charging>  (57) 
0

>  <r_epik_Ionization_Penalty_Neutral>  (57) 
3.97661e-07

>  <r_epik_State_Penalty>  (57) 
-0

>  <r_epik_Charging_Adjusted_Penalty>  (57) 
0

>  <i_epik_Tot_Q>  (57) 
0

>  <i_epik_Tot_abs_Q>  (57) 
0

>  <s_epik_Chemistry_Notes>  (57) 
This compound contains an acetal/aminal-like group ( X-CH(R)-Y where X, Y are N, S, or O) that may be acid/base labile, releasing an aldehyde.

>  <s_lp_Force_Field>  (57) 
OPLS3e

>  <r_lp_Energy>  (57) 
234.989

>  <b_lp_Chiralities_Consistent>  (57) 
1

>  <s_lp_Variant>  (57) 
13:0-1

>  <s_i_glide_gridfile>  (57) 
pfpi4k_grid

>  <i_i_glide_lignum>  (57) 
22

>  <i_i_glide_rotatable_bonds>  (57) 
6

>  <r_i_docking_score>  (57) 
-2.23211

>  <r_i_glide_ligand_efficiency>  (57) 
-0.0769693

>  <r_i_glide_ligand_efficiency_sa>  (57) 
-0.236474

>  <r_i_glide_ligand_efficiency_ln>  (57) 
-0.511096

>  <r_i_glide_gscore>  (57) 
-2.23211

>  <r_i_glide_lipo>  (57) 
-0.264443

>  <r_i_glide_hbond>  (57) 
-0.147721

>  <r_i_glide_metal>  (57) 
-0

>  <r_i_glide_rewards>  (57) 
-0.624258

>  <r_i_glide_evdw>  (57) 
-15.4288

>  <r_i_glide_ecoul>  (57) 
-2.61482

>  <r_i_glide_erotb>  (57) 
0

>  <r_i_glide_esite>  (57) 
-0.0320247

>  <r_i_glide_emodel>  (57) 
-18.2347

>  <r_i_glide_energy>  (57) 
-18.0436

>  <r_i_glide_einternal>  (57) 
1.82804

>  <r_i_glide_intrahb_reward>  (57) 
-0

>  <i_i_glide_confnum>  (57) 
1

>  <i_i_glide_posenum>  (57) 
16

>  <r_i_glide_eff_state_penalty>  (57) 
0

>  <ligand_id>  (57) 
13

>  <original_smiles>  (57) 
C=C1C(=O)C23C(O)C4C5C(O)OCC56C(O)C2CCC1C(O)C6C4(O)CC3(C)O

>  <smiles>  (57) 
[H]OC1([H])OC([H])([H])C23C([H])(O[H])C4([H])C([H])([H])C([H])([H])C5([H])C(=C([H])[H])C(=O)C46C([H])(O[H])C([H])(C12[H])C(O[H])(C([H])([H])C6(O[H])C([H])([H])[H])C3([H])C5([H])O[H]

$$$$
14:0:0
     RDKit          3D

 70 78  0  0  1  0  0  0  0  0999 V2000
   -0.9756   -7.7278    4.0142 C   0  0  0  0  0  0  0  0  0  0  0  0
    0.2524   -7.2205    4.5359 O   0  0  0  0  0  0  0  0  0  0  0  0
    1.4453   -8.0357    4.4908 C   0  0  1  0  0  0  0  0  0  0  0  0
    1.8335   -8.0748    2.9759 C   0  0  2  0  0  0  0  0  0  0  0  0
    1.5316   -9.4807    2.2705 C   0  0  0  0  0  0  0  0  0  0  0  0
    1.9316  -10.7784    3.0896 C   0  0  0  0  0  0  0  0  0  0  0  0
    2.5807  -10.2521    4.3819 C   0  0  2  0  0  0  0  0  0  0  0  0
    3.9118   -9.7556    3.7177 C   0  0  0  0  0  0  0  0  0  0  0  0
    4.9156  -10.7241    3.8812 C   0  0  0  0  0  0  0  0  0  0  0  0
    6.1555  -10.5810    3.2371 C   0  0  0  0  0  0  0  0  0  0  0  0
    7.2280  -11.6498    3.3204 C   0  0  0  0  0  0  0  0  0  0  0  0
    7.0295  -12.7637    2.2782 C   0  0  0  0  0  0  0  0  0  0  0  0
    7.0104  -12.2274    0.9755 O   0  0  0  0  0  0  0  0  0  0  0  0
    6.3693   -9.4155    2.4785 C   0  0  0  0  0  0  0  0  0  0  0  0
    5.3741   -8.4255    2.3715 C   0  0  0  0  0  0  0  0  0  0  0  0
    5.6390   -7.3079    1.6343 O   0  0  0  0  0  0  0  0  0  0  0  0
    4.1020   -8.5767    2.9680 C   0  0  0  0  0  0  0  0  0  0  0  0
    3.1482   -7.6314    2.7473 O   0  0  0  0  0  0  0  0  0  0  0  0
    4.3977  -11.7524    4.8414 C   0  0  0  0  0  0  0  0  0  0  0  0
    3.2571  -11.0094    5.5341 C   0  0  1  0  0  0  0  0  0  0  0  0
    3.8920  -10.0036    6.4983 N   0  0  2  0  0  0  0  0  0  0  0  0
    3.8931  -10.5172    7.9066 C   0  0  0  0  0  0  0  0  0  0  0  0
    4.8824   -9.8459    8.8426 C   0  0  0  0  0  0  0  0  0  0  0  0
    4.8222  -10.1588   10.3291 C   0  0  0  0  0  0  0  0  0  0  0  0
    4.4145   -8.7991    9.8342 C   0  0  0  0  0  0  0  0  0  0  0  0
    3.6978   -8.4800    6.3043 C   0  0  0  0  0  0  0  0  0  0  0  0
    2.2729   -7.9117    5.9107 C   0  0  1  0  0  0  0  0  0  0  0  0
    1.8551   -6.7101    6.7344 C   0  0  0  0  0  0  0  0  0  0  0  0
    2.4784   -5.4549    6.9035 C   0  0  0  0  0  0  0  0  0  0  0  0
    1.8102   -4.4866    7.6946 C   0  0  0  0  0  0  0  0  0  0  0  0
    0.5554   -4.7719    8.2822 C   0  0  0  0  0  0  0  0  0  0  0  0
   -0.0544   -6.0250    8.0777 C   0  0  0  0  0  0  0  0  0  0  0  0
    0.6169   -6.9827    7.3048 C   0  0  0  0  0  0  0  0  0  0  0  0
    0.1438   -8.2174    6.9582 O   0  0  0  0  0  0  0  0  0  0  0  0
    1.2576   -8.9298    6.4093 C   0  0  1  0  0  0  0  0  0  0  0  0
    1.3597   -9.4322    4.9666 C   0  0  1  0  0  0  0  0  0  0  0  0
   -1.7339   -6.9511    4.1045 H   0  0  0  0  0  0  0  0  0  0  0  0
   -1.3471   -8.5855    4.5733 H   0  0  0  0  0  0  0  0  0  0  0  0
   -0.9242   -7.9859    2.9577 H   0  0  0  0  0  0  0  0  0  0  0  0
    1.2435   -7.3295    2.4402 H   0  0  0  0  0  0  0  0  0  0  0  0
    0.4654   -9.5454    2.0787 H   0  0  0  0  0  0  0  0  0  0  0  0
    2.0012   -9.5093    1.2881 H   0  0  0  0  0  0  0  0  0  0  0  0
    1.0456  -11.3852    3.2918 H   0  0  0  0  0  0  0  0  0  0  0  0
    2.5950  -11.4223    2.5032 H   0  0  0  0  0  0  0  0  0  0  0  0
    8.2115  -11.1893    3.1991 H   0  0  0  0  0  0  0  0  0  0  0  0
    7.2191  -12.0968    4.3181 H   0  0  0  0  0  0  0  0  0  0  0  0
    7.8514  -13.4782    2.3365 H   0  0  0  0  0  0  0  0  0  0  0  0
    6.1015  -13.3149    2.4428 H   0  0  0  0  0  0  0  0  0  0  0  0
    6.0909  -12.0667    0.7470 H   0  0  0  0  0  0  0  0  0  0  0  0
    7.3004   -9.2774    1.9543 H   0  0  0  0  0  0  0  0  0  0  0  0
    4.9024   -6.7181    1.6054 H   0  0  0  0  0  0  0  0  0  0  0  0
    4.0249  -12.6217    4.2940 H   0  0  0  0  0  0  0  0  0  0  0  0
    5.1631  -12.0838    5.5474 H   0  0  0  0  0  0  0  0  0  0  0  0
    2.5972  -11.6968    6.0538 H   0  0  0  0  0  0  0  0  0  0  0  0
    2.9123  -10.5087    8.3794 H   0  0  0  0  0  0  0  0  0  0  0  0
    4.1696  -11.5697    7.8747 H   0  0  0  0  0  0  0  0  0  0  0  0
    5.8969   -9.7593    8.4492 H   0  0  0  0  0  0  0  0  0  0  0  0
    4.0322  -10.8088   10.7030 H   0  0  0  0  0  0  0  0  0  0  0  0
    5.7508  -10.2032   10.8923 H   0  0  0  0  0  0  0  0  0  0  0  0
    5.0905   -7.9679   10.0281 H   0  0  0  0  0  0  0  0  0  0  0  0
    3.3526   -8.5512    9.8333 H   0  0  0  0  0  0  0  0  0  0  0  0
    4.0221   -7.9879    7.2178 H   0  0  0  0  0  0  0  0  0  0  0  0
    4.4318   -8.1150    5.5936 H   0  0  0  0  0  0  0  0  0  0  0  0
    3.4217   -5.2230    6.4301 H   0  0  0  0  0  0  0  0  0  0  0  0
    2.2494   -3.5147    7.8517 H   0  0  0  0  0  0  0  0  0  0  0  0
    0.0507   -4.0303    8.8806 H   0  0  0  0  0  0  0  0  0  0  0  0
   -1.0188   -6.2471    8.4894 H   0  0  0  0  0  0  0  0  0  0  0  0
    1.5458   -9.6527    7.1572 H   0  0  0  0  0  0  0  0  0  0  0  0
    0.4075   -9.9162    4.7686 H   0  0  0  0  0  0  0  0  0  0  0  0
    4.8662  -10.0941    6.2435 H   0  0  0  0  0  0  0  0  0  0  0  0
  1  2  1  0
  1 37  1  0
  1 38  1  0
  1 39  1  0
  3  2  1  6
  3 27  1  0
  3 36  1  0
  3  4  1  0
  4 18  1  0
  4  5  1  0
  4 40  1  6
  5  6  1  0
  5 41  1  0
  5 42  1  0
  7  6  1  6
  6 43  1  0
  6 44  1  0
  7 20  1  0
  7 36  1  0
  7  8  1  0
  8 17  2  0
  8  9  1  0
  9 10  2  0
  9 19  1  0
 10 11  1  0
 10 14  1  0
 11 12  1  0
 11 45  1  0
 11 46  1  0
 12 13  1  0
 12 47  1  0
 12 48  1  0
 13 49  1  0
 14 15  2  0
 14 50  1  0
 15 16  1  0
 15 17  1  0
 16 51  1  0
 17 18  1  0
 19 20  1  0
 19 52  1  0
 19 53  1  0
 20 21  1  0
 20 54  1  1
 21 22  1  0
 21 26  1  0
 21 70  1  6
 22 23  1  0
 22 55  1  0
 22 56  1  0
 23 25  1  0
 23 24  1  0
 23 57  1  0
 24 25  1  0
 24 58  1  0
 24 59  1  0
 25 60  1  0
 25 61  1  0
 27 26  1  6
 26 62  1  0
 26 63  1  0
 27 35  1  0
 27 28  1  0
 28 33  2  0
 28 29  1  0
 29 30  2  0
 29 64  1  0
 30 31  1  0
 30 65  1  0
 31 32  2  0
 31 66  1  0
 32 33  1  0
 32 67  1  0
 33 34  1  0
 34 35  1  0
 35 36  1  0
 35 68  1  1
 36 69  1  6
M  CHG  1  21   1
M  END
>  <i_m_ct_stereo_status>  (58) 
1

>  <s_m_source_file>  (58) 
/var/tmp/pbs.5076255.sched01/tmp5vb4dkz1/0x5hafel7.sdf

>  <i_m_source_file_index>  (58) 
23

>  <i_lp_mmshare_version>  (58) 
48012

>  <i_f3d_flags>  (58) 
2

>  <s_epik_input>  (58) 
W0NIMl0xW0NIMl1bQ0hdMVtDSDJdTihbQ0BIXTJbQ0gyXTMpW0NIMl1bQ0BAXTQoYzVjKE9bQ0BASF00W0NIXTY3KVtjSF1bY0hdW2NIXVtjSF01KUM2KE9bQ0gzXSlbQ0BIXShbQ0gyXVtDSDJdOClPYzljKFtPSF0pW2NIXWMoYzNjOVtDQEBdMjc4KVtDSDJdW0NIMl1bT0hd

>  <s_epik_cmdline>  (58) 
J2VwaWtfcHl0aG9uJywgJy1waHQnLCAnMi4wJywgJy1waCcsICc3LjAnLCAnLXRuJywgJzgnLCAnLW1hJywgJzIwMCcsICctaW1hZScsICc8aW5maWxlLm1hZT4nLCAnLW9tYWUnLCAnPG91dGZpbGUubWFlPic=

>  <r_lp_tautomer_probability>  (58) 
1

>  <r_epik_Ionization_Penalty>  (58) 
0.165985

>  <r_epik_Ionization_Penalty_Charging>  (58) 
0.16381

>  <r_epik_Ionization_Penalty_Neutral>  (58) 
0.00217508

>  <r_epik_State_Penalty>  (58) 
0.318977

>  <r_epik_Charging_Adjusted_Penalty>  (58) 
0.482787

>  <i_epik_Tot_Q>  (58) 
1

>  <i_epik_Tot_abs_Q>  (58) 
1

>  <s_lp_Force_Field>  (58) 
OPLS3e

>  <r_lp_Energy>  (58) 
173.882

>  <b_lp_Chiralities_Consistent>  (58) 
0

>  <s_lp_Variant>  (58) 
14:0-1

>  <s_i_glide_gridfile>  (58) 
pfpi4k_grid

>  <i_i_glide_lignum>  (58) 
23

>  <i_i_glide_rotatable_bonds>  (58) 
7

>  <r_i_docking_score>  (58) 
-2.99797

>  <r_i_glide_ligand_efficiency>  (58) 
-0.0832769

>  <r_i_glide_ligand_efficiency_sa>  (58) 
-0.274974

>  <r_i_glide_ligand_efficiency_ln>  (58) 
-0.654076

>  <r_i_glide_gscore>  (58) 
-2.99797

>  <r_i_glide_lipo>  (58) 
-0.179785

>  <r_i_glide_hbond>  (58) 
-0.456

>  <r_i_glide_metal>  (58) 
-0

>  <r_i_glide_rewards>  (58) 
-0.0777637

>  <r_i_glide_evdw>  (58) 
-20.2491

>  <r_i_glide_ecoul>  (58) 
-10.5288

>  <r_i_glide_erotb>  (58) 
0.34077

>  <r_i_glide_esite>  (58) 
-0.0334087

>  <r_i_glide_emodel>  (58) 
-37.1502

>  <r_i_glide_energy>  (58) 
-30.7779

>  <r_i_glide_einternal>  (58) 
1.55582

>  <r_i_glide_intrahb_reward>  (58) 
-0

>  <i_i_glide_confnum>  (58) 
5

>  <i_i_glide_posenum>  (58) 
5

>  <r_i_glide_eff_state_penalty>  (58) 
0

>  <ligand_id>  (58) 
14

>  <original_smiles>  (58) 
COC12C3CCC45c6c(c(CCO)cc(O)c6O3)CC4N(CC3CC3)CC13c1ccccc1OC3C52

>  <smiles>  (58) 
[H]Oc1c([H])c(C([H])([H])C([H])([H])O[H])c2c3c1OC1([H])C([H])([H])C([H])([H])C34C3([H])C5([H])Oc6c([H])c([H])c([H])c([H])c6C5(C13OC([H])([H])[H])C([H])([H])[N+]([H])(C([H])([H])C1([H])C([H])([H])C1([H])[H])C4([H])C2([H])[H]

$$$$
14:0:1
     RDKit          3D

 70 78  0  0  1  0  0  0  0  0999 V2000
   -0.9056   -8.5088    4.1623 C   0  0  0  0  0  0  0  0  0  0  0  0
   -0.2321   -7.2496    4.2051 O   0  0  0  0  0  0  0  0  0  0  0  0
    1.1724   -7.1794    3.8683 C   0  0  1  0  0  0  0  0  0  0  0  0
    1.2154   -7.4552    2.3313 C   0  0  2  0  0  0  0  0  0  0  0  0
    1.7805   -8.9068    1.9515 C   0  0  0  0  0  0  0  0  0  0  0  0
    3.0677   -9.3863    2.7428 C   0  0  0  0  0  0  0  0  0  0  0  0
    3.4321   -8.2038    3.6579 C   0  0  2  0  0  0  0  0  0  0  0  0
    3.9746   -7.2603    2.5298 C   0  0  0  0  0  0  0  0  0  0  0  0
    5.3732   -7.3521    2.4616 C   0  0  0  0  0  0  0  0  0  0  0  0
    6.0763   -6.7235    1.4278 C   0  0  0  0  0  0  0  0  0  0  0  0
    7.5837   -6.8723    1.2952 C   0  0  0  0  0  0  0  0  0  0  0  0
    8.3633   -5.7659    2.0193 C   0  0  0  0  0  0  0  0  0  0  0  0
    8.3053   -5.9199    3.4235 O   0  0  0  0  0  0  0  0  0  0  0  0
    5.3438   -5.9503    0.5017 C   0  0  0  0  0  0  0  0  0  0  0  0
    3.9412   -5.8177    0.6108 C   0  0  0  0  0  0  0  0  0  0  0  0
    3.2771   -5.0552   -0.3061 O   0  0  0  0  0  0  0  0  0  0  0  0
    3.2083   -6.4936    1.6190 C   0  0  0  0  0  0  0  0  0  0  0  0
    1.8523   -6.4192    1.6230 O   0  0  0  0  0  0  0  0  0  0  0  0
    5.8249   -8.1397    3.6671 C   0  0  0  0  0  0  0  0  0  0  0  0
    4.6235   -8.0293    4.6071 C   0  0  1  0  0  0  0  0  0  0  0  0
    4.6216   -6.5997    5.1617 N   0  0  2  0  0  0  0  0  0  0  0  0
    5.2112   -6.5395    6.5388 C   0  0  0  0  0  0  0  0  0  0  0  0
    5.7184   -5.1769    6.9741 C   0  0  0  0  0  0  0  0  0  0  0  0
    6.1356   -4.9755    8.4236 C   0  0  0  0  0  0  0  0  0  0  0  0
    4.8933   -4.3084    7.9036 C   0  0  0  0  0  0  0  0  0  0  0  0
    3.4505   -5.6325    4.8616 C   0  0  0  0  0  0  0  0  0  0  0  0
    1.9565   -6.1647    4.9023 C   0  0  1  0  0  0  0  0  0  0  0  0
    1.0141   -5.2581    5.6642 C   0  0  0  0  0  0  0  0  0  0  0  0
    0.6892   -3.9001    5.4576 C   0  0  0  0  0  0  0  0  0  0  0  0
   -0.2915   -3.3215    6.3009 C   0  0  0  0  0  0  0  0  0  0  0  0
   -0.9219   -4.0905    7.3086 C   0  0  0  0  0  0  0  0  0  0  0  0
   -0.5855   -5.4459    7.4893 C   0  0  0  0  0  0  0  0  0  0  0  0
    0.3787   -6.0121    6.6473 C   0  0  0  0  0  0  0  0  0  0  0  0
    0.7538   -7.3274    6.6243 O   0  0  0  0  0  0  0  0  0  0  0  0
    1.9504   -7.3684    5.8349 C   0  0  1  0  0  0  0  0  0  0  0  0
    2.1031   -8.1282    4.5142 C   0  0  1  0  0  0  0  0  0  0  0  0
   -1.9523   -8.3483    4.4141 H   0  0  0  0  0  0  0  0  0  0  0  0
   -0.5198   -9.2183    4.8927 H   0  0  0  0  0  0  0  0  0  0  0  0
   -0.8975   -8.9748    3.1784 H   0  0  0  0  0  0  0  0  0  0  0  0
    0.2021   -7.4117    1.9338 H   0  0  0  0  0  0  0  0  0  0  0  0
    0.9999   -9.6469    2.1175 H   0  0  0  0  0  0  0  0  0  0  0  0
    1.9798   -8.9556    0.8820 H   0  0  0  0  0  0  0  0  0  0  0  0
    2.8475  -10.2979    3.3045 H   0  0  0  0  0  0  0  0  0  0  0  0
    3.8655   -9.6666    2.0472 H   0  0  0  0  0  0  0  0  0  0  0  0
    7.9024   -7.8599    1.6343 H   0  0  0  0  0  0  0  0  0  0  0  0
    7.8428   -6.8268    0.2381 H   0  0  0  0  0  0  0  0  0  0  0  0
    9.4147   -5.8164    1.7312 H   0  0  0  0  0  0  0  0  0  0  0  0
    7.9926   -4.7790    1.7358 H   0  0  0  0  0  0  0  0  0  0  0  0
    8.9129   -5.3055    3.8120 H   0  0  0  0  0  0  0  0  0  0  0  0
    5.8539   -5.4598   -0.3092 H   0  0  0  0  0  0  0  0  0  0  0  0
    3.3969   -5.3543   -1.2094 H   0  0  0  0  0  0  0  0  0  0  0  0
    6.0235   -9.1747    3.3818 H   0  0  0  0  0  0  0  0  0  0  0  0
    6.7293   -7.7352    4.1231 H   0  0  0  0  0  0  0  0  0  0  0  0
    4.6447   -8.7785    5.4015 H   0  0  0  0  0  0  0  0  0  0  0  0
    4.5484   -6.9193    7.3142 H   0  0  0  0  0  0  0  0  0  0  0  0
    6.0778   -7.1982    6.5599 H   0  0  0  0  0  0  0  0  0  0  0  0
    6.3721   -4.6819    6.2531 H   0  0  0  0  0  0  0  0  0  0  0  0
    5.9999   -5.7887    9.1357 H   0  0  0  0  0  0  0  0  0  0  0  0
    6.9748   -4.3189    8.6402 H   0  0  0  0  0  0  0  0  0  0  0  0
    4.9309   -3.2339    7.7327 H   0  0  0  0  0  0  0  0  0  0  0  0
    3.9285   -4.7001    8.2268 H   0  0  0  0  0  0  0  0  0  0  0  0
    3.5362   -4.7919    5.5456 H   0  0  0  0  0  0  0  0  0  0  0  0
    3.6268   -5.1472    3.9065 H   0  0  0  0  0  0  0  0  0  0  0  0
    1.1483   -3.3215    4.6683 H   0  0  0  0  0  0  0  0  0  0  0  0
   -0.5705   -2.2878    6.1705 H   0  0  0  0  0  0  0  0  0  0  0  0
   -1.6785   -3.6618    7.9403 H   0  0  0  0  0  0  0  0  0  0  0  0
   -1.0670   -6.0449    8.2426 H   0  0  0  0  0  0  0  0  0  0  0  0
    2.7670   -7.5013    6.5279 H   0  0  0  0  0  0  0  0  0  0  0  0
    1.6798   -9.1109    4.7073 H   0  0  0  0  0  0  0  0  0  0  0  0
    5.3563   -6.1798    4.6034 H   0  0  0  0  0  0  0  0  0  0  0  0
  1  2  1  0
  1 37  1  0
  1 38  1  0
  1 39  1  0
  3  2  1  1
  3 27  1  0
  3 36  1  0
  3  4  1  0
  4 18  1  0
  4  5  1  0
  4 40  1  6
  5  6  1  0
  5 41  1  0
  5 42  1  0
  7  6  1  6
  6 43  1  0
  6 44  1  0
  7 20  1  0
  7 36  1  0
  7  8  1  0
  8 17  2  0
  8  9  1  0
  9 10  2  0
  9 19  1  0
 10 11  1  0
 10 14  1  0
 11 12  1  0
 11 45  1  0
 11 46  1  0
 12 13  1  0
 12 47  1  0
 12 48  1  0
 13 49  1  0
 14 15  2  0
 14 50  1  0
 15 16  1  0
 15 17  1  0
 16 51  1  0
 17 18  1  0
 19 20  1  0
 19 52  1  0
 19 53  1  0
 20 21  1  0
 20 54  1  1
 21 22  1  0
 21 26  1  0
 21 70  1  6
 22 23  1  0
 22 55  1  0
 22 56  1  0
 23 25  1  0
 23 24  1  0
 23 57  1  0
 24 25  1  0
 24 58  1  0
 24 59  1  0
 25 60  1  0
 25 61  1  0
 27 26  1  6
 26 62  1  0
 26 63  1  0
 27 35  1  0
 27 28  1  0
 28 33  2  0
 28 29  1  0
 29 30  2  0
 29 64  1  0
 30 31  1  0
 30 65  1  0
 31 32  2  0
 31 66  1  0
 32 33  1  0
 32 67  1  0
 33 34  1  0
 34 35  1  0
 35 36  1  0
 35 68  1  1
 36 69  1  1
M  CHG  1  21   1
M  END
>  <i_m_ct_stereo_status>  (59) 
1

>  <s_m_source_file>  (59) 
/var/tmp/pbs.5076255.sched01/tmp5vb4dkz1/0x5hafel7.sdf

>  <i_m_source_file_index>  (59) 
23

>  <i_lp_mmshare_version>  (59) 
48012

>  <i_f3d_flags>  (59) 
2

>  <s_epik_input>  (59) 
W0NIMl0xW0NIMl1bQ0hdMVtDSDJdTihbQ0BIXTJbQ0gyXTMpW0NIMl1bQ0BAXTQoYzVjKE9bQ0BASF00W0NIXTY3KVtjSF1bY0hdW2NIXVtjSF01KUM2KE9bQ0gzXSlbQ0BIXShbQ0gyXVtDSDJdOClPYzljKFtPSF0pW2NIXWMoYzNjOVtDQEBdMjc4KVtDSDJdW0NIMl1bT0hd

>  <s_epik_cmdline>  (59) 
J2VwaWtfcHl0aG9uJywgJy1waHQnLCAnMi4wJywgJy1waCcsICc3LjAnLCAnLXRuJywgJzgnLCAnLW1hJywgJzIwMCcsICctaW1hZScsICc8aW5maWxlLm1hZT4nLCAnLW9tYWUnLCAnPG91dGZpbGUubWFlPic=

>  <r_lp_tautomer_probability>  (59) 
1

>  <r_epik_Ionization_Penalty>  (59) 
0.165985

>  <r_epik_Ionization_Penalty_Charging>  (59) 
0.16381

>  <r_epik_Ionization_Penalty_Neutral>  (59) 
0.00217508

>  <r_epik_State_Penalty>  (59) 
0.318977

>  <r_epik_Charging_Adjusted_Penalty>  (59) 
0.482787

>  <i_epik_Tot_Q>  (59) 
1

>  <i_epik_Tot_abs_Q>  (59) 
1

>  <s_lp_Force_Field>  (59) 
OPLS3e

>  <r_lp_Energy>  (59) 
173.882

>  <b_lp_Chiralities_Consistent>  (59) 
0

>  <s_lp_Variant>  (59) 
14:0-1

>  <s_i_glide_gridfile>  (59) 
pfpi4k_grid

>  <i_i_glide_lignum>  (59) 
23

>  <i_i_glide_rotatable_bonds>  (59) 
7

>  <r_i_docking_score>  (59) 
-2.58308

>  <r_i_glide_ligand_efficiency>  (59) 
-0.0717521

>  <r_i_glide_ligand_efficiency_sa>  (59) 
-0.23692

>  <r_i_glide_ligand_efficiency_ln>  (59) 
-0.563558

>  <r_i_glide_gscore>  (59) 
-2.58308

>  <r_i_glide_lipo>  (59) 
-0.405284

>  <r_i_glide_hbond>  (59) 
-0.0778833

>  <r_i_glide_metal>  (59) 
-0

>  <r_i_glide_rewards>  (59) 
-0.0777637

>  <r_i_glide_evdw>  (59) 
-21.9859

>  <r_i_glide_ecoul>  (59) 
-8.42414

>  <r_i_glide_erotb>  (59) 
0.34077

>  <r_i_glide_esite>  (59) 
0

>  <r_i_glide_emodel>  (59) 
-34.5044

>  <r_i_glide_energy>  (59) 
-30.41

>  <r_i_glide_einternal>  (59) 
3.10996

>  <r_i_glide_intrahb_reward>  (59) 
-0

>  <i_i_glide_confnum>  (59) 
5

>  <i_i_glide_posenum>  (59) 
4

>  <r_i_glide_eff_state_penalty>  (59) 
0

>  <ligand_id>  (59) 
14

>  <original_smiles>  (59) 
COC12C3CCC45c6c(c(CCO)cc(O)c6O3)CC4N(CC3CC3)CC13c1ccccc1OC3C52

>  <smiles>  (59) 
[H]Oc1c([H])c(C([H])([H])C([H])([H])O[H])c2c3c1OC1([H])C([H])([H])C([H])([H])C34C3([H])C5([H])Oc6c([H])c([H])c([H])c([H])c6C5(C13OC([H])([H])[H])C([H])([H])[N+]([H])(C([H])([H])C1([H])C([H])([H])C1([H])[H])C4([H])C2([H])[H]

$$$$
14:0:2
     RDKit          3D

 70 78  0  0  1  0  0  0  0  0999 V2000
    5.7823   -9.4293    1.6715 C   0  0  0  0  0  0  0  0  0  0  0  0
    4.4607   -8.9032    1.7862 O   0  0  0  0  0  0  0  0  0  0  0  0
    4.2585   -7.5032    2.0721 C   0  0  1  0  0  0  0  0  0  0  0  0
    4.7402   -6.7719    0.7802 C   0  0  2  0  0  0  0  0  0  0  0  0
    6.1501   -6.0239    0.9487 C   0  0  0  0  0  0  0  0  0  0  0  0
    6.3439   -5.2014    2.2927 C   0  0  0  0  0  0  0  0  0  0  0  0
    5.0069   -5.3399    3.0471 C   0  0  2  0  0  0  0  0  0  0  0  0
    4.1767   -4.4027    2.1080 C   0  0  0  0  0  0  0  0  0  0  0  0
    4.0938   -3.1137    2.6662 C   0  0  0  0  0  0  0  0  0  0  0  0
    3.5418   -2.0555    1.9288 C   0  0  0  0  0  0  0  0  0  0  0  0
    3.5067   -0.6383    2.4706 C   0  0  0  0  0  0  0  0  0  0  0  0
    2.1323    0.0392    2.3284 C   0  0  0  0  0  0  0  0  0  0  0  0
    1.2084   -0.5426    3.2265 O   0  0  0  0  0  0  0  0  0  0  0  0
    3.0365   -2.3475    0.6458 C   0  0  0  0  0  0  0  0  0  0  0  0
    3.0588   -3.6506    0.1298 C   0  0  0  0  0  0  0  0  0  0  0  0
    2.5253   -3.8539   -1.1114 O   0  0  0  0  0  0  0  0  0  0  0  0
    3.6559   -4.7213    0.8329 C   0  0  0  0  0  0  0  0  0  0  0  0
    3.7459   -5.9412    0.2425 O   0  0  0  0  0  0  0  0  0  0  0  0
    4.6205   -3.2028    4.0705 C   0  0  0  0  0  0  0  0  0  0  0  0
    4.5385   -4.7032    4.3623 C   0  0  1  0  0  0  0  0  0  0  0  0
    3.0580   -5.0283    4.5830 N   0  0  2  0  0  0  0  0  0  0  0  0
    2.7262   -5.1142    6.0408 C   0  0  0  0  0  0  0  0  0  0  0  0
    1.2590   -4.9390    6.3909 C   0  0  0  0  0  0  0  0  0  0  0  0
    0.7894   -5.2636    7.8021 C   0  0  0  0  0  0  0  0  0  0  0  0
    0.3810   -6.1459    6.6553 C   0  0  0  0  0  0  0  0  0  0  0  0
    2.3033   -5.9893    3.6337 C   0  0  0  0  0  0  0  0  0  0  0  0
    3.0106   -7.3162    3.1294 C   0  0  1  0  0  0  0  0  0  0  0  0
    2.1329   -8.5451    3.2339 C   0  0  0  0  0  0  0  0  0  0  0  0
    0.8708   -8.8111    2.6626 C   0  0  0  0  0  0  0  0  0  0  0  0
    0.3092  -10.0915    2.8808 C   0  0  0  0  0  0  0  0  0  0  0  0
    0.9947  -11.0670    3.6430 C   0  0  0  0  0  0  0  0  0  0  0  0
    2.2614  -10.7858    4.1929 C   0  0  0  0  0  0  0  0  0  0  0  0
    2.8140   -9.5145    3.9693 C   0  0  0  0  0  0  0  0  0  0  0  0
    4.0564   -9.0948    4.3584 O   0  0  0  0  0  0  0  0  0  0  0  0
    4.0558   -7.6735    4.1766 C   0  0  1  0  0  0  0  0  0  0  0  0
    4.9761   -6.9114    3.2183 C   0  0  1  0  0  0  0  0  0  0  0  0
    5.7133  -10.4862    1.4158 H   0  0  0  0  0  0  0  0  0  0  0  0
    6.3373   -9.3714    2.6069 H   0  0  0  0  0  0  0  0  0  0  0  0
    6.3694   -8.9628    0.8824 H   0  0  0  0  0  0  0  0  0  0  0  0
    4.8663   -7.5037   -0.0150 H   0  0  0  0  0  0  0  0  0  0  0  0
    6.9493   -6.7607    0.9036 H   0  0  0  0  0  0  0  0  0  0  0  0
    6.3269   -5.3743    0.0913 H   0  0  0  0  0  0  0  0  0  0  0  0
    7.1849   -5.6016    2.8653 H   0  0  0  0  0  0  0  0  0  0  0  0
    6.6138   -4.1635    2.0757 H   0  0  0  0  0  0  0  0  0  0  0  0
    3.8292   -0.6070    3.5115 H   0  0  0  0  0  0  0  0  0  0  0  0
    4.2434   -0.0641    1.9093 H   0  0  0  0  0  0  0  0  0  0  0  0
    2.2166    1.0996    2.5677 H   0  0  0  0  0  0  0  0  0  0  0  0
    1.7438   -0.0097    1.3098 H   0  0  0  0  0  0  0  0  0  0  0  0
    0.3714   -0.1290    3.0793 H   0  0  0  0  0  0  0  0  0  0  0  0
    2.6222   -1.5672    0.0300 H   0  0  0  0  0  0  0  0  0  0  0  0
    2.6988   -4.7164   -1.4670 H   0  0  0  0  0  0  0  0  0  0  0  0
    5.6505   -2.8433    4.0963 H   0  0  0  0  0  0  0  0  0  0  0  0
    4.0231   -2.6057    4.7641 H   0  0  0  0  0  0  0  0  0  0  0  0
    5.1556   -4.9980    5.2118 H   0  0  0  0  0  0  0  0  0  0  0  0
    3.0816   -6.0255    6.5181 H   0  0  0  0  0  0  0  0  0  0  0  0
    3.2512   -4.3084    6.5524 H   0  0  0  0  0  0  0  0  0  0  0  0
    0.7913   -4.0513    5.9613 H   0  0  0  0  0  0  0  0  0  0  0  0
    1.5015   -5.6764    8.5156 H   0  0  0  0  0  0  0  0  0  0  0  0
    0.0015   -4.6591    8.2452 H   0  0  0  0  0  0  0  0  0  0  0  0
   -0.6488   -6.0854    6.3094 H   0  0  0  0  0  0  0  0  0  0  0  0
    0.8491   -7.1268    6.5703 H   0  0  0  0  0  0  0  0  0  0  0  0
    1.3658   -6.2591    4.1130 H   0  0  0  0  0  0  0  0  0  0  0  0
    1.9463   -5.4291    2.7741 H   0  0  0  0  0  0  0  0  0  0  0  0
    0.3565   -8.0902    2.0442 H   0  0  0  0  0  0  0  0  0  0  0  0
   -0.6492  -10.3358    2.4495 H   0  0  0  0  0  0  0  0  0  0  0  0
    0.5612  -12.0432    3.7957 H   0  0  0  0  0  0  0  0  0  0  0  0
    2.7965  -11.5281    4.7647 H   0  0  0  0  0  0  0  0  0  0  0  0
    3.9752   -7.2453    5.1631 H   0  0  0  0  0  0  0  0  0  0  0  0
    5.9652   -7.3299    3.3889 H   0  0  0  0  0  0  0  0  0  0  0  0
    2.6287   -4.1479    4.3251 H   0  0  0  0  0  0  0  0  0  0  0  0
  1  2  1  0
  1 37  1  0
  1 38  1  0
  1 39  1  0
  3  2  1  6
  3 27  1  0
  3 36  1  0
  3  4  1  0
  4 18  1  0
  4  5  1  0
  4 40  1  6
  5  6  1  0
  5 41  1  0
  5 42  1  0
  7  6  1  6
  6 43  1  0
  6 44  1  0
  7 20  1  0
  7 36  1  0
  7  8  1  0
  8 17  2  0
  8  9  1  0
  9 10  2  0
  9 19  1  0
 10 11  1  0
 10 14  1  0
 11 12  1  0
 11 45  1  0
 11 46  1  0
 12 13  1  0
 12 47  1  0
 12 48  1  0
 13 49  1  0
 14 15  2  0
 14 50  1  0
 15 16  1  0
 15 17  1  0
 16 51  1  0
 17 18  1  0
 19 20  1  0
 19 52  1  0
 19 53  1  0
 20 21  1  0
 20 54  1  1
 21 22  1  0
 21 26  1  0
 21 70  1  6
 22 23  1  0
 22 55  1  0
 22 56  1  0
 23 25  1  0
 23 24  1  0
 23 57  1  0
 24 25  1  0
 24 58  1  0
 24 59  1  0
 25 60  1  0
 25 61  1  0
 27 26  1  1
 26 62  1  0
 26 63  1  0
 27 35  1  0
 27 28  1  0
 28 33  2  0
 28 29  1  0
 29 30  2  0
 29 64  1  0
 30 31  1  0
 30 65  1  0
 31 32  2  0
 31 66  1  0
 32 33  1  0
 32 67  1  0
 33 34  1  0
 34 35  1  0
 35 36  1  0
 35 68  1  1
 36 69  1  6
M  CHG  1  21   1
M  END
>  <i_m_ct_stereo_status>  (60) 
1

>  <s_m_source_file>  (60) 
/var/tmp/pbs.5076255.sched01/tmp5vb4dkz1/0x5hafel7.sdf

>  <i_m_source_file_index>  (60) 
23

>  <i_lp_mmshare_version>  (60) 
48012

>  <i_f3d_flags>  (60) 
2

>  <s_epik_input>  (60) 
W0NIMl0xW0NIMl1bQ0hdMVtDSDJdTihbQ0BIXTJbQ0gyXTMpW0NIMl1bQ0BAXTQoYzVjKE9bQ0BASF00W0NIXTY3KVtjSF1bY0hdW2NIXVtjSF01KUM2KE9bQ0gzXSlbQ0BIXShbQ0gyXVtDSDJdOClPYzljKFtPSF0pW2NIXWMoYzNjOVtDQEBdMjc4KVtDSDJdW0NIMl1bT0hd

>  <s_epik_cmdline>  (60) 
J2VwaWtfcHl0aG9uJywgJy1waHQnLCAnMi4wJywgJy1waCcsICc3LjAnLCAnLXRuJywgJzgnLCAnLW1hJywgJzIwMCcsICctaW1hZScsICc8aW5maWxlLm1hZT4nLCAnLW9tYWUnLCAnPG91dGZpbGUubWFlPic=

>  <r_lp_tautomer_probability>  (60) 
1

>  <r_epik_Ionization_Penalty>  (60) 
0.165985

>  <r_epik_Ionization_Penalty_Charging>  (60) 
0.16381

>  <r_epik_Ionization_Penalty_Neutral>  (60) 
0.00217508

>  <r_epik_State_Penalty>  (60) 
0.318977

>  <r_epik_Charging_Adjusted_Penalty>  (60) 
0.482787

>  <i_epik_Tot_Q>  (60) 
1

>  <i_epik_Tot_abs_Q>  (60) 
1

>  <s_lp_Force_Field>  (60) 
OPLS3e

>  <r_lp_Energy>  (60) 
173.882

>  <b_lp_Chiralities_Consistent>  (60) 
0

>  <s_lp_Variant>  (60) 
14:0-1

>  <s_i_glide_gridfile>  (60) 
pfpi4k_grid

>  <i_i_glide_lignum>  (60) 
23

>  <i_i_glide_rotatable_bonds>  (60) 
7

>  <r_i_docking_score>  (60) 
-2.10071

>  <r_i_glide_ligand_efficiency>  (60) 
-0.058353

>  <r_i_glide_ligand_efficiency_sa>  (60) 
-0.192677

>  <r_i_glide_ligand_efficiency_ln>  (60) 
-0.458318

>  <r_i_glide_gscore>  (60) 
-2.10071

>  <r_i_glide_lipo>  (60) 
-0.475413

>  <r_i_glide_hbond>  (60) 
0

>  <r_i_glide_metal>  (60) 
-0

>  <r_i_glide_rewards>  (60) 
-0.0777637

>  <r_i_glide_evdw>  (60) 
-26.6595

>  <r_i_glide_ecoul>  (60) 
-3.70218

>  <r_i_glide_erotb>  (60) 
0.34077

>  <r_i_glide_esite>  (60) 
0

>  <r_i_glide_emodel>  (60) 
-34.9633

>  <r_i_glide_energy>  (60) 
-30.3617

>  <r_i_glide_einternal>  (60) 
1.25125

>  <r_i_glide_intrahb_reward>  (60) 
-0

>  <i_i_glide_confnum>  (60) 
5

>  <i_i_glide_posenum>  (60) 
18

>  <r_i_glide_eff_state_penalty>  (60) 
0

>  <ligand_id>  (60) 
14

>  <original_smiles>  (60) 
COC12C3CCC45c6c(c(CCO)cc(O)c6O3)CC4N(CC3CC3)CC13c1ccccc1OC3C52

>  <smiles>  (60) 
[H]Oc1c([H])c(C([H])([H])C([H])([H])O[H])c2c3c1OC1([H])C([H])([H])C([H])([H])C34C3([H])C5([H])Oc6c([H])c([H])c([H])c([H])c6C5(C13OC([H])([H])[H])C([H])([H])[N+]([H])(C([H])([H])C1([H])C([H])([H])C1([H])[H])C4([H])C2([H])[H]

$$$$
14:1:0
     RDKit          3D

 70 78  0  0  1  0  0  0  0  0999 V2000
    4.5071   -8.7654    1.0413 C   0  0  0  0  0  0  0  0  0  0  0  0
    3.2278   -8.1517    1.2836 O   0  0  0  0  0  0  0  0  0  0  0  0
    3.2067   -6.7942    1.7990 C   0  0  1  0  0  0  0  0  0  0  0  0
    3.9679   -5.9697    0.7258 C   0  0  2  0  0  0  0  0  0  0  0  0
    5.4987   -5.7082    1.1327 C   0  0  0  0  0  0  0  0  0  0  0  0
    5.7363   -5.2523    2.6333 C   0  0  0  0  0  0  0  0  0  0  0  0
    4.3313   -5.0608    3.2663 C   0  0  2  0  0  0  0  0  0  0  0  0
    4.0021   -3.7765    2.4381 C   0  0  0  0  0  0  0  0  0  0  0  0
    4.3903   -2.6444    3.1656 C   0  0  0  0  0  0  0  0  0  0  0  0
    4.3557   -1.3728    2.5762 C   0  0  0  0  0  0  0  0  0  0  0  0
    4.8304   -0.1398    3.3140 C   0  0  0  0  0  0  0  0  0  0  0  0
    3.6768    0.7061    3.8726 C   0  0  0  0  0  0  0  0  0  0  0  0
    3.0089    1.3986    2.8357 O   0  0  0  0  0  0  0  0  0  0  0  0
    3.8708   -1.2767    1.2560 C   0  0  0  0  0  0  0  0  0  0  0  0
    3.4563   -2.4222    0.5498 C   0  0  0  0  0  0  0  0  0  0  0  0
    3.0144   -2.2810   -0.7323 O   0  0  0  0  0  0  0  0  0  0  0  0
    3.5359   -3.7172    1.1102 C   0  0  0  0  0  0  0  0  0  0  0  0
    3.2563   -4.8106    0.3599 O   0  0  0  0  0  0  0  0  0  0  0  0
    4.7136   -3.1414    4.5634 C   0  0  0  0  0  0  0  0  0  0  0  0
    3.9718   -4.5112    4.6533 C   0  0  2  0  0  0  0  0  0  0  0  0
    2.4605   -4.6708    4.7441 N   0  0  2  0  0  0  0  0  0  0  0  0
    1.9838   -5.1209    6.0934 C   0  0  0  0  0  0  0  0  0  0  0  0
    2.4146   -4.1837    7.2063 C   0  0  0  0  0  0  0  0  0  0  0  0
    3.6619   -4.5166    8.0025 C   0  0  0  0  0  0  0  0  0  0  0  0
    2.3075   -4.6212    8.6529 C   0  0  0  0  0  0  0  0  0  0  0  0
    1.6132   -5.0701    3.5032 C   0  0  0  0  0  0  0  0  0  0  0  0
    1.8849   -6.4578    2.7204 C   0  0  1  0  0  0  0  0  0  0  0  0
    0.5986   -7.2472    2.8733 C   0  0  0  0  0  0  0  0  0  0  0  0
   -0.4932   -7.4233    1.9962 C   0  0  0  0  0  0  0  0  0  0  0  0
   -1.6281   -8.0999    2.5080 C   0  0  0  0  0  0  0  0  0  0  0  0
   -1.6672   -8.5298    3.8527 C   0  0  0  0  0  0  0  0  0  0  0  0
   -0.5573   -8.3587    4.7071 C   0  0  0  0  0  0  0  0  0  0  0  0
    0.5816   -7.7342    4.1800 C   0  0  0  0  0  0  0  0  0  0  0  0
    1.7887   -7.5363    4.7985 O   0  0  0  0  0  0  0  0  0  0  0  0
    2.6247   -7.3834    3.6580 C   0  0  2  0  0  0  0  0  0  0  0  0
    3.8484   -6.5712    3.1564 C   0  0  1  0  0  0  0  0  0  0  0  0
    4.4296   -9.8531    1.0102 H   0  0  0  0  0  0  0  0  0  0  0  0
    5.2607   -8.5403    1.7979 H   0  0  0  0  0  0  0  0  0  0  0  0
    4.9035   -8.4468    0.0774 H   0  0  0  0  0  0  0  0  0  0  0  0
    3.9613   -6.5078   -0.2213 H   0  0  0  0  0  0  0  0  0  0  0  0
    6.0868   -6.6095    0.9911 H   0  0  0  0  0  0  0  0  0  0  0  0
    5.9583   -5.0025    0.4386 H   0  0  0  0  0  0  0  0  0  0  0  0
    6.3346   -5.9895    3.1744 H   0  0  0  0  0  0  0  0  0  0  0  0
    6.3528   -4.3520    2.6318 H   0  0  0  0  0  0  0  0  0  0  0  0
    5.4824   -0.4481    4.1313 H   0  0  0  0  0  0  0  0  0  0  0  0
    5.4612    0.4451    2.6466 H   0  0  0  0  0  0  0  0  0  0  0  0
    2.9650    0.0840    4.4185 H   0  0  0  0  0  0  0  0  0  0  0  0
    4.0647    1.4506    4.5685 H   0  0  0  0  0  0  0  0  0  0  0  0
    3.6205    2.0334    2.4646 H   0  0  0  0  0  0  0  0  0  0  0  0
    3.8445   -0.3185    0.7708 H   0  0  0  0  0  0  0  0  0  0  0  0
    2.3042   -1.6347   -0.8004 H   0  0  0  0  0  0  0  0  0  0  0  0
    5.7883   -3.3188    4.6288 H   0  0  0  0  0  0  0  0  0  0  0  0
    4.4837   -2.4060    5.3500 H   0  0  0  0  0  0  0  0  0  0  0  0
    3.2601   -3.6918    4.7434 H   0  0  0  0  0  0  0  0  0  0  0  0
    0.8927   -5.2074    6.1127 H   0  0  0  0  0  0  0  0  0  0  0  0
    2.4040   -6.0861    6.3710 H   0  0  0  0  0  0  0  0  0  0  0  0
    2.2048   -3.1281    7.0246 H   0  0  0  0  0  0  0  0  0  0  0  0
    4.1837   -5.4454    7.7680 H   0  0  0  0  0  0  0  0  0  0  0  0
    4.3004   -3.6859    8.2921 H   0  0  0  0  0  0  0  0  0  0  0  0
    2.0713   -3.8652    9.3964 H   0  0  0  0  0  0  0  0  0  0  0  0
    1.9311   -5.6197    8.8721 H   0  0  0  0  0  0  0  0  0  0  0  0
    0.5756   -5.0554    3.8425 H   0  0  0  0  0  0  0  0  0  0  0  0
    1.5783   -4.2513    2.7862 H   0  0  0  0  0  0  0  0  0  0  0  0
   -0.4734   -7.0802    0.9734 H   0  0  0  0  0  0  0  0  0  0  0  0
   -2.4841   -8.2981    1.8825 H   0  0  0  0  0  0  0  0  0  0  0  0
   -2.5457   -9.0382    4.2237 H   0  0  0  0  0  0  0  0  0  0  0  0
   -0.5761   -8.7322    5.7165 H   0  0  0  0  0  0  0  0  0  0  0  0
    2.7552   -8.4379    3.3903 H   0  0  0  0  0  0  0  0  0  0  0  0
    4.6620   -7.2431    3.4142 H   0  0  0  0  0  0  0  0  0  0  0  0
    2.1653   -3.7043    4.7857 H   0  0  0  0  0  0  0  0  0  0  0  0
  1  2  1  0
  1 37  1  0
  1 38  1  0
  1 39  1  0
  3  2  1  6
  3 27  1  0
  3 36  1  0
  3  4  1  0
  4 18  1  0
  4  5  1  0
  4 40  1  6
  5  6  1  0
  5 41  1  0
  5 42  1  0
  7  6  1  1
  6 43  1  0
  6 44  1  0
  7 20  1  0
  7 36  1  0
  7  8  1  0
  8 17  2  0
  8  9  1  0
  9 10  2  0
  9 19  1  0
 10 11  1  0
 10 14  1  0
 11 12  1  0
 11 45  1  0
 11 46  1  0
 12 13  1  0
 12 47  1  0
 12 48  1  0
 13 49  1  0
 14 15  2  0
 14 50  1  0
 15 16  1  0
 15 17  1  0
 16 51  1  0
 17 18  1  0
 19 20  1  0
 19 52  1  0
 19 53  1  0
 20 21  1  0
 20 54  1  1
 21 22  1  0
 21 26  1  0
 21 70  1  1
 22 23  1  0
 22 55  1  0
 22 56  1  0
 23 25  1  0
 23 24  1  0
 23 57  1  0
 24 25  1  0
 24 58  1  0
 24 59  1  0
 25 60  1  0
 25 61  1  0
 27 26  1  1
 26 62  1  0
 26 63  1  0
 27 35  1  0
 27 28  1  0
 28 33  2  0
 28 29  1  0
 29 30  2  0
 29 64  1  0
 30 31  1  0
 30 65  1  0
 31 32  2  0
 31 66  1  0
 32 33  1  0
 32 67  1  0
 33 34  1  0
 34 35  1  0
 35 36  1  0
 35 68  1  6
 36 69  1  6
M  CHG  1  21   1
M  END
>  <i_m_ct_stereo_status>  (61) 
1

>  <s_m_source_file>  (61) 
/var/tmp/pbs.5076255.sched01/tmp5vb4dkz1/0x5hafel7.sdf

>  <i_m_source_file_index>  (61) 
24

>  <i_lp_mmshare_version>  (61) 
48012

>  <i_f3d_flags>  (61) 
0

>  <s_epik_input>  (61) 
W0NIMl0xW0NIMl1bQ0hdMVtDSDJdTihbQ0BIXTJbQ0gyXTMpW0NIMl1bQ0BAXTQoYzVjKE9bQ0BASF00W0NIXTY3KVtjSF1bY0hdW2NIXVtjSF01KUM2KE9bQ0gzXSlbQ0BIXShbQ0gyXVtDSDJdOClPYzljKFtPSF0pW2NIXWMoYzNjOVtDQEBdMjc4KVtDSDJdW0NIMl1bT0hd

>  <s_epik_cmdline>  (61) 
J2VwaWtfcHl0aG9uJywgJy1waHQnLCAnMi4wJywgJy1waCcsICc3LjAnLCAnLXRuJywgJzgnLCAnLW1hJywgJzIwMCcsICctaW1hZScsICc8aW5maWxlLm1hZT4nLCAnLW9tYWUnLCAnPG91dGZpbGUubWFlPic=

>  <r_lp_tautomer_probability>  (61) 
1

>  <r_epik_Ionization_Penalty>  (61) 
0.165985

>  <r_epik_Ionization_Penalty_Charging>  (61) 
0.16381

>  <r_epik_Ionization_Penalty_Neutral>  (61) 
0.00217508

>  <r_epik_State_Penalty>  (61) 
0.318977

>  <r_epik_Charging_Adjusted_Penalty>  (61) 
0.482787

>  <i_epik_Tot_Q>  (61) 
1

>  <i_epik_Tot_abs_Q>  (61) 
1

>  <s_lp_Force_Field>  (61) 
OPLS3e

>  <r_lp_Energy>  (61) 
276.261

>  <b_lp_Chiralities_Consistent>  (61) 
1

>  <s_lp_Variant>  (61) 
14:0-2

>  <s_i_glide_gridfile>  (61) 
pfpi4k_grid

>  <i_i_glide_lignum>  (61) 
24

>  <i_i_glide_rotatable_bonds>  (61) 
7

>  <r_i_docking_score>  (61) 
-2.62421

>  <r_i_glide_ligand_efficiency>  (61) 
-0.0728948

>  <r_i_glide_ligand_efficiency_sa>  (61) 
-0.240693

>  <r_i_glide_ligand_efficiency_ln>  (61) 
-0.572532

>  <r_i_glide_gscore>  (61) 
-2.62421

>  <r_i_glide_lipo>  (61) 
-0.360471

>  <r_i_glide_hbond>  (61) 
-0.304

>  <r_i_glide_metal>  (61) 
-0

>  <r_i_glide_rewards>  (61) 
-0.0777637

>  <r_i_glide_evdw>  (61) 
-24.8591

>  <r_i_glide_ecoul>  (61) 
-6.53193

>  <r_i_glide_erotb>  (61) 
0.34077

>  <r_i_glide_esite>  (61) 
0

>  <r_i_glide_emodel>  (61) 
-31.3938

>  <r_i_glide_energy>  (61) 
-31.3911

>  <r_i_glide_einternal>  (61) 
6.53315

>  <r_i_glide_intrahb_reward>  (61) 
-0

>  <i_i_glide_confnum>  (61) 
3

>  <i_i_glide_posenum>  (61) 
6

>  <r_i_glide_eff_state_penalty>  (61) 
0

>  <ligand_id>  (61) 
14

>  <original_smiles>  (61) 
COC12C3CCC45c6c(c(CCO)cc(O)c6O3)CC4N(CC3CC3)CC13c1ccccc1OC3C52

>  <smiles>  (61) 
[H]Oc1c([H])c(C([H])([H])C([H])([H])O[H])c2c3c1OC1([H])C([H])([H])C([H])([H])C34C3([H])C5([H])Oc6c([H])c([H])c([H])c([H])c6C5(C13OC([H])([H])[H])C([H])([H])[N+]([H])(C([H])([H])C1([H])C([H])([H])C1([H])[H])C4([H])C2([H])[H]

$$$$
14:1:1
     RDKit          3D

 70 78  0  0  1  0  0  0  0  0999 V2000
    4.6680   -9.5141    1.0001 C   0  0  0  0  0  0  0  0  0  0  0  0
    5.3024   -8.6086    1.8890 O   0  0  0  0  0  0  0  0  0  0  0  0
    4.6094   -7.3753    2.1446 C   0  0  1  0  0  0  0  0  0  0  0  0
    5.0570   -6.5081    0.9387 C   0  0  2  0  0  0  0  0  0  0  0  0
    6.3282   -5.5999    1.2659 C   0  0  0  0  0  0  0  0  0  0  0  0
    6.2610   -4.7967    2.6279 C   0  0  0  0  0  0  0  0  0  0  0  0
    4.8785   -5.1014    3.2530 C   0  0  2  0  0  0  0  0  0  0  0  0
    4.0941   -4.2363    2.2159 C   0  0  0  0  0  0  0  0  0  0  0  0
    3.9335   -2.9349    2.7169 C   0  0  0  0  0  0  0  0  0  0  0  0
    3.4096   -1.9136    1.9058 C   0  0  0  0  0  0  0  0  0  0  0  0
    3.2830   -0.4833    2.3847 C   0  0  0  0  0  0  0  0  0  0  0  0
    1.8226   -0.0553    2.5918 C   0  0  0  0  0  0  0  0  0  0  0  0
    1.7761    1.2631    3.0982 O   0  0  0  0  0  0  0  0  0  0  0  0
    3.0157   -2.2700    0.6048 C   0  0  0  0  0  0  0  0  0  0  0  0
    3.1457   -3.5879    0.1295 C   0  0  0  0  0  0  0  0  0  0  0  0
    2.7464   -3.8559   -1.1436 O   0  0  0  0  0  0  0  0  0  0  0  0
    3.7216   -4.6122    0.9136 C   0  0  0  0  0  0  0  0  0  0  0  0
    3.9692   -5.8288    0.3626 O   0  0  0  0  0  0  0  0  0  0  0  0
    4.3597   -2.9955    4.1710 C   0  0  0  0  0  0  0  0  0  0  0  0
    4.2512   -4.5137    4.5245 C   0  0  2  0  0  0  0  0  0  0  0  0
    2.9378   -5.2659    4.6835 N   0  0  2  0  0  0  0  0  0  0  0  0
    2.6175   -5.6244    6.1040 C   0  0  0  0  0  0  0  0  0  0  0  0
    2.4556   -4.3998    6.9883 C   0  0  0  0  0  0  0  0  0  0  0  0
    1.8459   -4.5283    8.3694 C   0  0  0  0  0  0  0  0  0  0  0  0
    1.0903   -3.8233    7.2722 C   0  0  0  0  0  0  0  0  0  0  0  0
    2.3962   -6.1967    3.5626 C   0  0  0  0  0  0  0  0  0  0  0  0
    3.2527   -7.4600    3.0508 C   0  0  1  0  0  0  0  0  0  0  0  0
    2.4100   -8.6702    3.3839 C   0  0  0  0  0  0  0  0  0  0  0  0
    1.5401   -9.4400    2.5859 C   0  0  0  0  0  0  0  0  0  0  0  0
    0.7795  -10.4381    3.2395 C   0  0  0  0  0  0  0  0  0  0  0  0
    0.8684  -10.6171    4.6421 C   0  0  0  0  0  0  0  0  0  0  0  0
    1.7485   -9.8329    5.4198 C   0  0  0  0  0  0  0  0  0  0  0  0
    2.5393   -8.8821    4.7566 C   0  0  0  0  0  0  0  0  0  0  0  0
    3.5233   -8.0801    5.2846 O   0  0  0  0  0  0  0  0  0  0  0  0
    4.2793   -7.8130    4.1071 C   0  0  2  0  0  0  0  0  0  0  0  0
    5.0694   -6.6772    3.4095 C   0  0  1  0  0  0  0  0  0  0  0  0
    5.4169  -10.2027    0.6100 H   0  0  0  0  0  0  0  0  0  0  0  0
    4.1944   -9.0271    0.1493 H   0  0  0  0  0  0  0  0  0  0  0  0
    3.9228  -10.1186    1.5111 H   0  0  0  0  0  0  0  0  0  0  0  0
    5.3757   -7.1411    0.1164 H   0  0  0  0  0  0  0  0  0  0  0  0
    7.2074   -6.2412    1.3081 H   0  0  0  0  0  0  0  0  0  0  0  0
    6.5206   -4.9130    0.4416 H   0  0  0  0  0  0  0  0  0  0  0  0
    7.0785   -5.0999    3.2828 H   0  0  0  0  0  0  0  0  0  0  0  0
    6.4420   -3.7360    2.4332 H   0  0  0  0  0  0  0  0  0  0  0  0
    3.8466   -0.3580    3.3099 H   0  0  0  0  0  0  0  0  0  0  0  0
    3.7585    0.1638    1.6462 H   0  0  0  0  0  0  0  0  0  0  0  0
    1.2597   -0.1072    1.6565 H   0  0  0  0  0  0  0  0  0  0  0  0
    1.3332   -0.7210    3.3037 H   0  0  0  0  0  0  0  0  0  0  0  0
    2.0121    1.8636    2.4052 H   0  0  0  0  0  0  0  0  0  0  0  0
    2.6134   -1.5154   -0.0507 H   0  0  0  0  0  0  0  0  0  0  0  0
    2.9644   -4.7293   -1.4554 H   0  0  0  0  0  0  0  0  0  0  0  0
    5.4008   -2.6766    4.2287 H   0  0  0  0  0  0  0  0  0  0  0  0
    3.7999   -2.2908    4.8053 H   0  0  0  0  0  0  0  0  0  0  0  0
    3.2599   -4.0615    4.4840 H   0  0  0  0  0  0  0  0  0  0  0  0
    1.7041   -6.2247    6.1569 H   0  0  0  0  0  0  0  0  0  0  0  0
    3.4254   -6.1930    6.5592 H   0  0  0  0  0  0  0  0  0  0  0  0
    3.2941   -3.7052    6.9492 H   0  0  0  0  0  0  0  0  0  0  0  0
    1.4864   -5.5041    8.6903 H   0  0  0  0  0  0  0  0  0  0  0  0
    2.2487   -3.9021    9.1635 H   0  0  0  0  0  0  0  0  0  0  0  0
    1.0232   -2.7377    7.3221 H   0  0  0  0  0  0  0  0  0  0  0  0
    0.2363   -4.3337    6.8309 H   0  0  0  0  0  0  0  0  0  0  0  0
    1.4276   -6.5489    3.9199 H   0  0  0  0  0  0  0  0  0  0  0  0
    2.0694   -5.6100    2.7082 H   0  0  0  0  0  0  0  0  0  0  0  0
    1.4606   -9.2991    1.5170 H   0  0  0  0  0  0  0  0  0  0  0  0
    0.1128  -11.0599    2.6622 H   0  0  0  0  0  0  0  0  0  0  0  0
    0.2540  -11.3615    5.1275 H   0  0  0  0  0  0  0  0  0  0  0  0
    1.8225   -9.9791    6.4847 H   0  0  0  0  0  0  0  0  0  0  0  0
    4.8502   -8.7467    4.0254 H   0  0  0  0  0  0  0  0  0  0  0  0
    6.0952   -6.9234    3.6774 H   0  0  0  0  0  0  0  0  0  0  0  0
    2.2641   -4.5222    4.5637 H   0  0  0  0  0  0  0  0  0  0  0  0
  1  2  1  0
  1 37  1  0
  1 38  1  0
  1 39  1  0
  3  2  1  6
  3 27  1  0
  3 36  1  0
  3  4  1  0
  4 18  1  0
  4  5  1  0
  4 40  1  6
  5  6  1  0
  5 41  1  0
  5 42  1  0
  7  6  1  1
  6 43  1  0
  6 44  1  0
  7 20  1  0
  7 36  1  0
  7  8  1  0
  8 17  2  0
  8  9  1  0
  9 10  2  0
  9 19  1  0
 10 11  1  0
 10 14  1  0
 11 12  1  0
 11 45  1  0
 11 46  1  0
 12 13  1  0
 12 47  1  0
 12 48  1  0
 13 49  1  0
 14 15  2  0
 14 50  1  0
 15 16  1  0
 15 17  1  0
 16 51  1  0
 17 18  1  0
 19 20  1  0
 19 52  1  0
 19 53  1  0
 20 21  1  0
 20 54  1  1
 21 22  1  0
 21 26  1  0
 21 70  1  6
 22 23  1  0
 22 55  1  0
 22 56  1  0
 23 25  1  0
 23 24  1  0
 23 57  1  0
 24 25  1  0
 24 58  1  0
 24 59  1  0
 25 60  1  0
 25 61  1  0
 27 26  1  1
 26 62  1  0
 26 63  1  0
 27 35  1  0
 27 28  1  0
 28 33  2  0
 28 29  1  0
 29 30  2  0
 29 64  1  0
 30 31  1  0
 30 65  1  0
 31 32  2  0
 31 66  1  0
 32 33  1  0
 32 67  1  0
 33 34  1  0
 34 35  1  0
 35 36  1  0
 35 68  1  6
 36 69  1  1
M  CHG  1  21   1
M  END
>  <i_m_ct_stereo_status>  (62) 
1

>  <s_m_source_file>  (62) 
/var/tmp/pbs.5076255.sched01/tmp5vb4dkz1/0x5hafel7.sdf

>  <i_m_source_file_index>  (62) 
24

>  <i_lp_mmshare_version>  (62) 
48012

>  <i_f3d_flags>  (62) 
0

>  <s_epik_input>  (62) 
W0NIMl0xW0NIMl1bQ0hdMVtDSDJdTihbQ0BIXTJbQ0gyXTMpW0NIMl1bQ0BAXTQoYzVjKE9bQ0BASF00W0NIXTY3KVtjSF1bY0hdW2NIXVtjSF01KUM2KE9bQ0gzXSlbQ0BIXShbQ0gyXVtDSDJdOClPYzljKFtPSF0pW2NIXWMoYzNjOVtDQEBdMjc4KVtDSDJdW0NIMl1bT0hd

>  <s_epik_cmdline>  (62) 
J2VwaWtfcHl0aG9uJywgJy1waHQnLCAnMi4wJywgJy1waCcsICc3LjAnLCAnLXRuJywgJzgnLCAnLW1hJywgJzIwMCcsICctaW1hZScsICc8aW5maWxlLm1hZT4nLCAnLW9tYWUnLCAnPG91dGZpbGUubWFlPic=

>  <r_lp_tautomer_probability>  (62) 
1

>  <r_epik_Ionization_Penalty>  (62) 
0.165985

>  <r_epik_Ionization_Penalty_Charging>  (62) 
0.16381

>  <r_epik_Ionization_Penalty_Neutral>  (62) 
0.00217508

>  <r_epik_State_Penalty>  (62) 
0.318977

>  <r_epik_Charging_Adjusted_Penalty>  (62) 
0.482787

>  <i_epik_Tot_Q>  (62) 
1

>  <i_epik_Tot_abs_Q>  (62) 
1

>  <s_lp_Force_Field>  (62) 
OPLS3e

>  <r_lp_Energy>  (62) 
276.261

>  <b_lp_Chiralities_Consistent>  (62) 
1

>  <s_lp_Variant>  (62) 
14:0-2

>  <s_i_glide_gridfile>  (62) 
pfpi4k_grid

>  <i_i_glide_lignum>  (62) 
24

>  <i_i_glide_rotatable_bonds>  (62) 
7

>  <r_i_docking_score>  (62) 
-2.13912

>  <r_i_glide_ligand_efficiency>  (62) 
-0.05942

>  <r_i_glide_ligand_efficiency_sa>  (62) 
-0.1962

>  <r_i_glide_ligand_efficiency_ln>  (62) 
-0.466698

>  <r_i_glide_gscore>  (62) 
-2.13912

>  <r_i_glide_lipo>  (62) 
-0.404398

>  <r_i_glide_hbond>  (62) 
0

>  <r_i_glide_metal>  (62) 
-0

>  <r_i_glide_rewards>  (62) 
-0.0777637

>  <r_i_glide_evdw>  (62) 
-22.3255

>  <r_i_glide_ecoul>  (62) 
-5.87635

>  <r_i_glide_erotb>  (62) 
0.34077

>  <r_i_glide_esite>  (62) 
0

>  <r_i_glide_emodel>  (62) 
-32.0478

>  <r_i_glide_energy>  (62) 
-28.2019

>  <r_i_glide_einternal>  (62) 
0.284107

>  <r_i_glide_intrahb_reward>  (62) 
-0

>  <i_i_glide_confnum>  (62) 
4

>  <i_i_glide_posenum>  (62) 
23

>  <r_i_glide_eff_state_penalty>  (62) 
0

>  <ligand_id>  (62) 
14

>  <original_smiles>  (62) 
COC12C3CCC45c6c(c(CCO)cc(O)c6O3)CC4N(CC3CC3)CC13c1ccccc1OC3C52

>  <smiles>  (62) 
[H]Oc1c([H])c(C([H])([H])C([H])([H])O[H])c2c3c1OC1([H])C([H])([H])C([H])([H])C34C3([H])C5([H])Oc6c([H])c([H])c([H])c([H])c6C5(C13OC([H])([H])[H])C([H])([H])[N+]([H])(C([H])([H])C1([H])C([H])([H])C1([H])[H])C4([H])C2([H])[H]

$$$$
14:1:2
     RDKit          3D

 70 78  0  0  1  0  0  0  0  0999 V2000
    5.0973   -9.3212    1.7039 C   0  0  0  0  0  0  0  0  0  0  0  0
    5.4199   -8.3215    2.6640 O   0  0  0  0  0  0  0  0  0  0  0  0
    4.5630   -7.1644    2.7198 C   0  0  1  0  0  0  0  0  0  0  0  0
    5.2176   -6.2686    1.6513 C   0  0  2  0  0  0  0  0  0  0  0  0
    6.2525   -5.2242    2.2829 C   0  0  0  0  0  0  0  0  0  0  0  0
    5.7433   -4.4413    3.5709 C   0  0  0  0  0  0  0  0  0  0  0  0
    4.2787   -4.8899    3.8034 C   0  0  2  0  0  0  0  0  0  0  0  0
    3.7304   -4.0949    2.5789 C   0  0  0  0  0  0  0  0  0  0  0  0
    3.3150   -2.8154    2.9887 C   0  0  0  0  0  0  0  0  0  0  0  0
    2.9235   -1.8566    2.0386 C   0  0  0  0  0  0  0  0  0  0  0  0
    2.5369   -0.4448    2.4267 C   0  0  0  0  0  0  0  0  0  0  0  0
    1.0213   -0.2216    2.3882 C   0  0  0  0  0  0  0  0  0  0  0  0
    0.7109    1.0682    2.8689 O   0  0  0  0  0  0  0  0  0  0  0  0
    2.9443   -2.2560    0.6859 C   0  0  0  0  0  0  0  0  0  0  0  0
    3.3095   -3.5626    0.2974 C   0  0  0  0  0  0  0  0  0  0  0  0
    3.2741   -3.8576   -1.0351 O   0  0  0  0  0  0  0  0  0  0  0  0
    3.7643   -4.5270    1.2311 C   0  0  0  0  0  0  0  0  0  0  0  0
    4.2706   -5.7067    0.7804 O   0  0  0  0  0  0  0  0  0  0  0  0
    3.3388   -2.8556    4.5105 C   0  0  0  0  0  0  0  0  0  0  0  0
    3.2904   -4.3841    4.8623 C   0  0  2  0  0  0  0  0  0  0  0  0
    2.0761   -5.2638    4.6837 N   0  0  2  0  0  0  0  0  0  0  0  0
    1.3946   -5.6000    5.9681 C   0  0  0  0  0  0  0  0  0  0  0  0
   -0.0448   -5.1725    6.0370 C   0  0  0  0  0  0  0  0  0  0  0  0
   -0.4395   -3.8644    6.6722 C   0  0  0  0  0  0  0  0  0  0  0  0
   -0.7392   -5.1517    7.3934 C   0  0  0  0  0  0  0  0  0  0  0  0
    1.9425   -6.2323    3.4977 C   0  0  0  0  0  0  0  0  0  0  0  0
    3.0326   -7.3942    3.2485 C   0  0  1  0  0  0  0  0  0  0  0  0
    2.2579   -8.6890    3.3886 C   0  0  0  0  0  0  0  0  0  0  0  0
    1.6878   -9.5281    2.4154 C   0  0  0  0  0  0  0  0  0  0  0  0
    0.8793  -10.5979    2.8747 C   0  0  0  0  0  0  0  0  0  0  0  0
    0.6277  -10.7705    4.2563 C   0  0  0  0  0  0  0  0  0  0  0  0
    1.2132   -9.9212    5.2143 C   0  0  0  0  0  0  0  0  0  0  0  0
    2.0811   -8.9138    4.7543 C   0  0  0  0  0  0  0  0  0  0  0  0
    2.8628   -8.0521    5.5049 O   0  0  0  0  0  0  0  0  0  0  0  0
    3.8137   -7.6592    4.5110 C   0  0  2  0  0  0  0  0  0  0  0  0
    4.6011   -6.4289    4.0384 C   0  0  1  0  0  0  0  0  0  0  0  0
    5.9815   -9.9320    1.5227 H   0  0  0  0  0  0  0  0  0  0  0  0
    4.7876   -8.8901    0.7542 H   0  0  0  0  0  0  0  0  0  0  0  0
    4.3207   -9.9971    2.0558 H   0  0  0  0  0  0  0  0  0  0  0  0
    5.8165   -6.8698    0.9691 H   0  0  0  0  0  0  0  0  0  0  0  0
    7.1538   -5.7680    2.5700 H   0  0  0  0  0  0  0  0  0  0  0  0
    6.5911   -4.5163    1.5231 H   0  0  0  0  0  0  0  0  0  0  0  0
    6.3868   -4.6670    4.4290 H   0  0  0  0  0  0  0  0  0  0  0  0
    5.8421   -3.3597    3.4096 H   0  0  0  0  0  0  0  0  0  0  0  0
    2.9270   -0.2337    3.4225 H   0  0  0  0  0  0  0  0  0  0  0  0
    3.0332    0.2470    1.7462 H   0  0  0  0  0  0  0  0  0  0  0  0
    0.6309   -0.3265    1.3747 H   0  0  0  0  0  0  0  0  0  0  0  0
    0.5146   -0.9568    3.0153 H   0  0  0  0  0  0  0  0  0  0  0  0
    0.9331    1.7042    2.2016 H   0  0  0  0  0  0  0  0  0  0  0  0
    2.6479   -1.5416   -0.0721 H   0  0  0  0  0  0  0  0  0  0  0  0
    3.4172   -4.7626   -1.2579 H   0  0  0  0  0  0  0  0  0  0  0  0
    4.2932   -2.4211    4.8147 H   0  0  0  0  0  0  0  0  0  0  0  0
    2.5708   -2.1933    4.9406 H   0  0  0  0  0  0  0  0  0  0  0  0
    2.3076   -4.0029    4.5631 H   0  0  0  0  0  0  0  0  0  0  0  0
    1.2694   -6.6424    6.2700 H   0  0  0  0  0  0  0  0  0  0  0  0
    1.9344   -5.1578    6.8004 H   0  0  0  0  0  0  0  0  0  0  0  0
   -0.6709   -5.5874    5.2499 H   0  0  0  0  0  0  0  0  0  0  0  0
    0.3846   -3.2510    7.0344 H   0  0  0  0  0  0  0  0  0  0  0  0
   -1.2615   -3.3344    6.1942 H   0  0  0  0  0  0  0  0  0  0  0  0
   -1.7836   -5.4475    7.4528 H   0  0  0  0  0  0  0  0  0  0  0  0
   -0.1534   -5.3768    8.2816 H   0  0  0  0  0  0  0  0  0  0  0  0
    0.9534   -6.6869    3.5928 H   0  0  0  0  0  0  0  0  0  0  0  0
    1.7914   -5.6832    2.5701 H   0  0  0  0  0  0  0  0  0  0  0  0
    1.8715   -9.3992    1.3496 H   0  0  0  0  0  0  0  0  0  0  0  0
    0.4386  -11.2894    2.1702 H   0  0  0  0  0  0  0  0  0  0  0  0
   -0.0143  -11.5783    4.5790 H   0  0  0  0  0  0  0  0  0  0  0  0
    1.0186  -10.0538    6.2651 H   0  0  0  0  0  0  0  0  0  0  0  0
    4.4780   -8.5221    4.5925 H   0  0  0  0  0  0  0  0  0  0  0  0
    5.5333   -6.5753    4.5769 H   0  0  0  0  0  0  0  0  0  0  0  0
    1.4169   -4.5723    4.3692 H   0  0  0  0  0  0  0  0  0  0  0  0
  1  2  1  0
  1 37  1  0
  1 38  1  0
  1 39  1  0
  3  2  1  1
  3 27  1  0
  3 36  1  0
  3  4  1  0
  4 18  1  0
  4  5  1  0
  4 40  1  6
  5  6  1  0
  5 41  1  0
  5 42  1  0
  7  6  1  1
  6 43  1  0
  6 44  1  0
  7 20  1  0
  7 36  1  0
  7  8  1  0
  8 17  2  0
  8  9  1  0
  9 10  2  0
  9 19  1  0
 10 11  1  0
 10 14  1  0
 11 12  1  0
 11 45  1  0
 11 46  1  0
 12 13  1  0
 12 47  1  0
 12 48  1  0
 13 49  1  0
 14 15  2  0
 14 50  1  0
 15 16  1  0
 15 17  1  0
 16 51  1  0
 17 18  1  0
 19 20  1  0
 19 52  1  0
 19 53  1  0
 20 21  1  0
 20 54  1  1
 21 22  1  0
 21 26  1  0
 21 70  1  6
 22 23  1  0
 22 55  1  0
 22 56  1  0
 23 25  1  0
 23 24  1  0
 23 57  1  0
 24 25  1  0
 24 58  1  0
 24 59  1  0
 25 60  1  0
 25 61  1  0
 27 26  1  1
 26 62  1  0
 26 63  1  0
 27 35  1  0
 27 28  1  0
 28 33  2  0
 28 29  1  0
 29 30  2  0
 29 64  1  0
 30 31  1  0
 30 65  1  0
 31 32  2  0
 31 66  1  0
 32 33  1  0
 32 67  1  0
 33 34  1  0
 34 35  1  0
 35 36  1  0
 35 68  1  6
 36 69  1  1
M  CHG  1  21   1
M  END
>  <i_m_ct_stereo_status>  (63) 
1

>  <s_m_source_file>  (63) 
/var/tmp/pbs.5076255.sched01/tmp5vb4dkz1/0x5hafel7.sdf

>  <i_m_source_file_index>  (63) 
24

>  <i_lp_mmshare_version>  (63) 
48012

>  <i_f3d_flags>  (63) 
0

>  <s_epik_input>  (63) 
W0NIMl0xW0NIMl1bQ0hdMVtDSDJdTihbQ0BIXTJbQ0gyXTMpW0NIMl1bQ0BAXTQoYzVjKE9bQ0BASF00W0NIXTY3KVtjSF1bY0hdW2NIXVtjSF01KUM2KE9bQ0gzXSlbQ0BIXShbQ0gyXVtDSDJdOClPYzljKFtPSF0pW2NIXWMoYzNjOVtDQEBdMjc4KVtDSDJdW0NIMl1bT0hd

>  <s_epik_cmdline>  (63) 
J2VwaWtfcHl0aG9uJywgJy1waHQnLCAnMi4wJywgJy1waCcsICc3LjAnLCAnLXRuJywgJzgnLCAnLW1hJywgJzIwMCcsICctaW1hZScsICc8aW5maWxlLm1hZT4nLCAnLW9tYWUnLCAnPG91dGZpbGUubWFlPic=

>  <r_lp_tautomer_probability>  (63) 
1

>  <r_epik_Ionization_Penalty>  (63) 
0.165985

>  <r_epik_Ionization_Penalty_Charging>  (63) 
0.16381

>  <r_epik_Ionization_Penalty_Neutral>  (63) 
0.00217508

>  <r_epik_State_Penalty>  (63) 
0.318977

>  <r_epik_Charging_Adjusted_Penalty>  (63) 
0.482787

>  <i_epik_Tot_Q>  (63) 
1

>  <i_epik_Tot_abs_Q>  (63) 
1

>  <s_lp_Force_Field>  (63) 
OPLS3e

>  <r_lp_Energy>  (63) 
276.261

>  <b_lp_Chiralities_Consistent>  (63) 
1

>  <s_lp_Variant>  (63) 
14:0-2

>  <s_i_glide_gridfile>  (63) 
pfpi4k_grid

>  <i_i_glide_lignum>  (63) 
24

>  <i_i_glide_rotatable_bonds>  (63) 
7

>  <r_i_docking_score>  (63) 
-2.0743

>  <r_i_glide_ligand_efficiency>  (63) 
-0.0576193

>  <r_i_glide_ligand_efficiency_sa>  (63) 
-0.190255

>  <r_i_glide_ligand_efficiency_ln>  (63) 
-0.452555

>  <r_i_glide_gscore>  (63) 
-2.0743

>  <r_i_glide_lipo>  (63) 
-0.40726

>  <r_i_glide_hbond>  (63) 
0

>  <r_i_glide_metal>  (63) 
-0

>  <r_i_glide_rewards>  (63) 
-0.0777637

>  <r_i_glide_evdw>  (63) 
-23.474

>  <r_i_glide_ecoul>  (63) 
-5.0415

>  <r_i_glide_erotb>  (63) 
0.34077

>  <r_i_glide_esite>  (63) 
-0.000115343

>  <r_i_glide_emodel>  (63) 
-31.0531

>  <r_i_glide_energy>  (63) 
-28.5155

>  <r_i_glide_einternal>  (63) 
1.3311

>  <r_i_glide_intrahb_reward>  (63) 
-0

>  <i_i_glide_confnum>  (63) 
2

>  <i_i_glide_posenum>  (63) 
32

>  <r_i_glide_eff_state_penalty>  (63) 
0

>  <ligand_id>  (63) 
14

>  <original_smiles>  (63) 
COC12C3CCC45c6c(c(CCO)cc(O)c6O3)CC4N(CC3CC3)CC13c1ccccc1OC3C52

>  <smiles>  (63) 
[H]Oc1c([H])c(C([H])([H])C([H])([H])O[H])c2c3c1OC1([H])C([H])([H])C([H])([H])C34C3([H])C5([H])Oc6c([H])c([H])c([H])c([H])c6C5(C13OC([H])([H])[H])C([H])([H])[N+]([H])(C([H])([H])C1([H])C([H])([H])C1([H])[H])C4([H])C2([H])[H]

$$$$
14:2:0
     RDKit          3D

 69 77  0  0  1  0  0  0  0  0999 V2000
    5.0765   -9.0149    1.7951 C   0  0  0  0  0  0  0  0  0  0  0  0
    3.7702   -8.4065    1.7189 O   0  0  0  0  0  0  0  0  0  0  0  0
    3.6741   -6.9578    1.7764 C   0  0  1  0  0  0  0  0  0  0  0  0
    4.5915   -6.4467    0.6218 C   0  0  2  0  0  0  0  0  0  0  0  0
    6.0299   -5.9502    1.1351 C   0  0  0  0  0  0  0  0  0  0  0  0
    6.0148   -5.0109    2.4164 C   0  0  0  0  0  0  0  0  0  0  0  0
    4.5300   -4.8092    2.7768 C   0  0  2  0  0  0  0  0  0  0  0  0
    4.1986   -3.8505    1.5726 C   0  0  0  0  0  0  0  0  0  0  0  0
    4.2150   -2.5185    1.9901 C   0  0  0  0  0  0  0  0  0  0  0  0
    4.0960   -1.4815    1.0453 C   0  0  0  0  0  0  0  0  0  0  0  0
    4.1972   -0.0319    1.4589 C   0  0  0  0  0  0  0  0  0  0  0  0
    2.8291    0.5719    1.8098 C   0  0  0  0  0  0  0  0  0  0  0  0
    3.0085    1.7199    2.6131 O   0  0  0  0  0  0  0  0  0  0  0  0
    3.8790   -1.8252   -0.3021 C   0  0  0  0  0  0  0  0  0  0  0  0
    3.7907   -3.1774   -0.6956 C   0  0  0  0  0  0  0  0  0  0  0  0
    3.5660   -3.4640   -2.0124 O   0  0  0  0  0  0  0  0  0  0  0  0
    3.9816   -4.2429    0.2357 C   0  0  0  0  0  0  0  0  0  0  0  0
    3.9760   -5.5079   -0.2189 O   0  0  0  0  0  0  0  0  0  0  0  0
    4.3214   -2.5242    3.4819 C   0  0  0  0  0  0  0  0  0  0  0  0
    3.9337   -3.9541    3.8947 C   0  0  1  0  0  0  0  0  0  0  0  0
    2.4475   -4.1838    3.7970 N   0  0  0  0  0  0  0  0  0  0  0  0
    1.5593   -3.2243    4.4602 C   0  0  0  0  0  0  0  0  0  0  0  0
    1.8642   -3.0558    5.9358 C   0  0  0  0  0  0  0  0  0  0  0  0
    1.0420   -3.7792    6.9798 C   0  0  0  0  0  0  0  0  0  0  0  0
    0.8972   -2.2882    6.8106 C   0  0  0  0  0  0  0  0  0  0  0  0
    1.8173   -4.9012    2.6165 C   0  0  0  0  0  0  0  0  0  0  0  0
    2.2274   -6.4390    2.3838 C   0  0  1  0  0  0  0  0  0  0  0  0
    0.9521   -7.1991    2.7133 C   0  0  0  0  0  0  0  0  0  0  0  0
   -0.0430   -7.7257    1.8609 C   0  0  0  0  0  0  0  0  0  0  0  0
   -1.2117   -8.2539    2.4727 C   0  0  0  0  0  0  0  0  0  0  0  0
   -1.3760   -8.2128    3.8793 C   0  0  0  0  0  0  0  0  0  0  0  0
   -0.3690   -7.6712    4.7094 C   0  0  0  0  0  0  0  0  0  0  0  0
    0.8087   -7.2010    4.1016 C   0  0  0  0  0  0  0  0  0  0  0  0
    1.9363   -6.7297    4.7172 O   0  0  0  0  0  0  0  0  0  0  0  0
    2.8729   -6.9579    3.6592 C   0  0  2  0  0  0  0  0  0  0  0  0
    4.1301   -6.2970    3.0612 C   0  0  1  0  0  0  0  0  0  0  0  0
    5.0042  -10.0758    2.0392 H   0  0  0  0  0  0  0  0  0  0  0  0
    5.7172   -8.5677    2.5556 H   0  0  0  0  0  0  0  0  0  0  0  0
    5.6145   -8.9582    0.8457 H   0  0  0  0  0  0  0  0  0  0  0  0
    4.7418   -7.2447   -0.1040 H   0  0  0  0  0  0  0  0  0  0  0  0
    6.6474   -6.8120    1.3858 H   0  0  0  0  0  0  0  0  0  0  0  0
    6.5736   -5.4717    0.3173 H   0  0  0  0  0  0  0  0  0  0  0  0
    6.5747   -5.4791    3.2324 H   0  0  0  0  0  0  0  0  0  0  0  0
    6.5434   -4.0799    2.1974 H   0  0  0  0  0  0  0  0  0  0  0  0
    4.8777    0.0218    2.3083 H   0  0  0  0  0  0  0  0  0  0  0  0
    4.6582    0.5426    0.6532 H   0  0  0  0  0  0  0  0  0  0  0  0
    2.2660    0.8006    0.9008 H   0  0  0  0  0  0  0  0  0  0  0  0
    2.2278   -0.1360    2.3839 H   0  0  0  0  0  0  0  0  0  0  0  0
    3.7065    2.2464    2.2494 H   0  0  0  0  0  0  0  0  0  0  0  0
    3.7743   -1.0642   -1.0546 H   0  0  0  0  0  0  0  0  0  0  0  0
    3.4193   -4.3810   -2.1699 H   0  0  0  0  0  0  0  0  0  0  0  0
    5.3637   -2.3381    3.7471 H   0  0  0  0  0  0  0  0  0  0  0  0
    3.7143   -1.7447    3.9418 H   0  0  0  0  0  0  0  0  0  0  0  0
    4.2876   -4.2344    4.8869 H   0  0  0  0  0  0  0  0  0  0  0  0
    1.5957   -2.2625    3.9547 H   0  0  0  0  0  0  0  0  0  0  0  0
    0.5279   -3.5671    4.3846 H   0  0  0  0  0  0  0  0  0  0  0  0
    2.9110   -2.8738    6.1750 H   0  0  0  0  0  0  0  0  0  0  0  0
    0.2361   -4.4193    6.6220 H   0  0  0  0  0  0  0  0  0  0  0  0
    1.5610   -4.1343    7.8667 H   0  0  0  0  0  0  0  0  0  0  0  0
    1.3069   -1.6650    7.6016 H   0  0  0  0  0  0  0  0  0  0  0  0
   -0.0179   -1.9165    6.3528 H   0  0  0  0  0  0  0  0  0  0  0  0
    0.7492   -4.8884    2.8197 H   0  0  0  0  0  0  0  0  0  0  0  0
    1.8583   -4.3311    1.6918 H   0  0  0  0  0  0  0  0  0  0  0  0
    0.0814   -7.7555    0.7939 H   0  0  0  0  0  0  0  0  0  0  0  0
   -1.9787   -8.7031    1.8616 H   0  0  0  0  0  0  0  0  0  0  0  0
   -2.2604   -8.6351    4.3191 H   0  0  0  0  0  0  0  0  0  0  0  0
   -0.4769   -7.6577    5.7781 H   0  0  0  0  0  0  0  0  0  0  0  0
    3.0448   -8.0332    3.7575 H   0  0  0  0  0  0  0  0  0  0  0  0
    4.9285   -6.8116    3.5952 H   0  0  0  0  0  0  0  0  0  0  0  0
  1  2  1  0
  1 37  1  0
  1 38  1  0
  1 39  1  0
  3  2  1  1
  3 27  1  0
  3 36  1  0
  3  4  1  0
  4 18  1  0
  4  5  1  0
  4 40  1  6
  5  6  1  0
  5 41  1  0
  5 42  1  0
  7  6  1  1
  6 43  1  0
  6 44  1  0
  7 20  1  0
  7 36  1  0
  7  8  1  0
  8 17  2  0
  8  9  1  0
  9 10  2  0
  9 19  1  0
 10 11  1  0
 10 14  1  0
 11 12  1  0
 11 45  1  0
 11 46  1  0
 12 13  1  0
 12 47  1  0
 12 48  1  0
 13 49  1  0
 14 15  2  0
 14 50  1  0
 15 16  1  0
 15 17  1  0
 16 51  1  0
 17 18  1  0
 19 20  1  0
 19 52  1  0
 19 53  1  0
 20 21  1  0
 20 54  1  1
 21 22  1  0
 21 26  1  0
 22 23  1  0
 22 55  1  0
 22 56  1  0
 23 25  1  0
 23 24  1  0
 23 57  1  0
 24 25  1  0
 24 58  1  0
 24 59  1  0
 25 60  1  0
 25 61  1  0
 27 26  1  1
 26 62  1  0
 26 63  1  0
 27 35  1  0
 27 28  1  0
 28 33  2  0
 28 29  1  0
 29 30  2  0
 29 64  1  0
 30 31  1  0
 30 65  1  0
 31 32  2  0
 31 66  1  0
 32 33  1  0
 32 67  1  0
 33 34  1  0
 34 35  1  0
 35 36  1  0
 35 68  1  6
 36 69  1  1
M  END
>  <i_m_ct_stereo_status>  (64) 
1

>  <s_m_source_file>  (64) 
/var/tmp/pbs.5076255.sched01/tmp5vb4dkz1/0x5hafel7.sdf

>  <i_m_source_file_index>  (64) 
25

>  <i_lp_mmshare_version>  (64) 
48012

>  <i_f3d_flags>  (64) 
0

>  <s_epik_input>  (64) 
W0NIMl0xW0NIMl1bQ0hdMVtDSDJdTihbQ0BIXTJbQ0gyXTMpW0NIMl1bQ0BAXTQoYzVjKE9bQ0BASF00W0NIXTY3KVtjSF1bY0hdW2NIXVtjSF01KUM2KE9bQ0gzXSlbQ0BIXShbQ0gyXVtDSDJdOClPYzljKFtPSF0pW2NIXWMoYzNjOVtDQEBdMjc4KVtDSDJdW0NIMl1bT0hd

>  <s_epik_cmdline>  (64) 
J2VwaWtfcHl0aG9uJywgJy1waHQnLCAnMi4wJywgJy1waCcsICc3LjAnLCAnLXRuJywgJzgnLCAnLW1hJywgJzIwMCcsICctaW1hZScsICc8aW5maWxlLm1hZT4nLCAnLW9tYWUnLCAnPG91dGZpbGUubWFlPic=

>  <r_lp_tautomer_probability>  (64) 
1

>  <r_epik_Ionization_Penalty>  (64) 
0.841802

>  <r_epik_Ionization_Penalty_Charging>  (64) 
0

>  <r_epik_Ionization_Penalty_Neutral>  (64) 
0.841802

>  <r_epik_State_Penalty>  (64) 
0.520186

>  <r_epik_Charging_Adjusted_Penalty>  (64) 
0.520186

>  <i_epik_Tot_Q>  (64) 
0

>  <i_epik_Tot_abs_Q>  (64) 
0

>  <s_lp_Force_Field>  (64) 
OPLS3e

>  <r_lp_Energy>  (64) 
206.143

>  <b_lp_Chiralities_Consistent>  (64) 
1

>  <s_lp_Variant>  (64) 
14:0-3

>  <s_i_glide_gridfile>  (64) 
pfpi4k_grid

>  <i_i_glide_lignum>  (64) 
25

>  <i_i_glide_rotatable_bonds>  (64) 
7

>  <r_i_docking_score>  (64) 
-2.86679

>  <r_i_glide_ligand_efficiency>  (64) 
-0.079633

>  <r_i_glide_ligand_efficiency_sa>  (64) 
-0.262942

>  <r_i_glide_ligand_efficiency_ln>  (64) 
-0.625456

>  <r_i_glide_gscore>  (64) 
-2.86679

>  <r_i_glide_lipo>  (64) 
-0.485852

>  <r_i_glide_hbond>  (64) 
-0.304

>  <r_i_glide_metal>  (64) 
-0

>  <r_i_glide_rewards>  (64) 
-0.084636

>  <r_i_glide_evdw>  (64) 
-28.2138

>  <r_i_glide_ecoul>  (64) 
-6.1578

>  <r_i_glide_erotb>  (64) 
0.34206

>  <r_i_glide_esite>  (64) 
0

>  <r_i_glide_emodel>  (64) 
-37.0617

>  <r_i_glide_energy>  (64) 
-34.3716

>  <r_i_glide_einternal>  (64) 
5.64908

>  <r_i_glide_intrahb_reward>  (64) 
-0

>  <i_i_glide_confnum>  (64) 
3

>  <i_i_glide_posenum>  (64) 
30

>  <r_i_glide_eff_state_penalty>  (64) 
0

>  <ligand_id>  (64) 
14

>  <original_smiles>  (64) 
COC12C3CCC45c6c(c(CCO)cc(O)c6O3)CC4N(CC3CC3)CC13c1ccccc1OC3C52

>  <smiles>  (64) 
[H]Oc1c([H])c(C([H])([H])C([H])([H])O[H])c2c3c1OC1([H])C([H])([H])C([H])([H])C34C([H])(N(C([H])([H])C3([H])C([H])([H])C3([H])[H])C([H])([H])C35c6c([H])c([H])c([H])c([H])c6OC3([H])C4([H])C15OC([H])([H])[H])C2([H])[H]

$$$$
14:2:1
     RDKit          3D

 69 77  0  0  1  0  0  0  0  0999 V2000
    4.5922   -8.7601    1.0349 C   0  0  0  0  0  0  0  0  0  0  0  0
    3.3323   -8.1073    1.2837 O   0  0  0  0  0  0  0  0  0  0  0  0
    3.3443   -6.7209    1.7146 C   0  0  1  0  0  0  0  0  0  0  0  0
    4.1422   -5.9548    0.6110 C   0  0  2  0  0  0  0  0  0  0  0  0
    5.6632   -5.6564    1.0334 C   0  0  0  0  0  0  0  0  0  0  0  0
    5.8745   -5.0949    2.5043 C   0  0  0  0  0  0  0  0  0  0  0  0
    4.4637   -4.9413    3.1035 C   0  0  2  0  0  0  0  0  0  0  0  0
    4.0543   -3.6900    2.2466 C   0  0  0  0  0  0  0  0  0  0  0  0
    4.2165   -2.5196    2.9902 C   0  0  0  0  0  0  0  0  0  0  0  0
    4.0426   -1.2671    2.3854 C   0  0  0  0  0  0  0  0  0  0  0  0
    4.2987    0.0184    3.1433 C   0  0  0  0  0  0  0  0  0  0  0  0
    3.0499    0.9119    3.2230 C   0  0  0  0  0  0  0  0  0  0  0  0
    3.4155    2.1895    3.7046 O   0  0  0  0  0  0  0  0  0  0  0  0
    3.6457   -1.2318    1.0327 C   0  0  0  0  0  0  0  0  0  0  0  0
    3.4205   -2.4284    0.3153 C   0  0  0  0  0  0  0  0  0  0  0  0
    3.0162   -2.3420   -0.9820 O   0  0  0  0  0  0  0  0  0  0  0  0
    3.6459   -3.7080    0.8941 C   0  0  0  0  0  0  0  0  0  0  0  0
    3.4784   -4.8099    0.1384 O   0  0  0  0  0  0  0  0  0  0  0  0
    4.5118   -2.9259    4.4021 C   0  0  0  0  0  0  0  0  0  0  0  0
    4.0689   -4.3921    4.4731 C   0  0  1  0  0  0  0  0  0  0  0  0
    2.5673   -4.4885    4.4901 N   0  0  0  0  0  0  0  0  0  0  0  0
    1.8666   -3.7802    5.5612 C   0  0  0  0  0  0  0  0  0  0  0  0
    1.0938   -2.5660    5.0775 C   0  0  0  0  0  0  0  0  0  0  0  0
    0.4536   -1.6406    6.0892 C   0  0  0  0  0  0  0  0  0  0  0  0
   -0.4136   -2.5097    5.2178 C   0  0  0  0  0  0  0  0  0  0  0  0
    1.7346   -4.8971    3.2934 C   0  0  0  0  0  0  0  0  0  0  0  0
    2.0230   -6.3320    2.6258 C   0  0  1  0  0  0  0  0  0  0  0  0
    0.7546   -7.1138    2.9052 C   0  0  0  0  0  0  0  0  0  0  0  0
   -0.3671   -7.3659    2.0827 C   0  0  0  0  0  0  0  0  0  0  0  0
   -1.4870   -7.9826    2.6971 C   0  0  0  0  0  0  0  0  0  0  0  0
   -1.4711   -8.2966    4.0777 C   0  0  0  0  0  0  0  0  0  0  0  0
   -0.3363   -8.0441    4.8771 C   0  0  0  0  0  0  0  0  0  0  0  0
    0.7827   -7.4728    4.2586 C   0  0  0  0  0  0  0  0  0  0  0  0
    2.0028   -7.2057    4.8209 O   0  0  0  0  0  0  0  0  0  0  0  0
    2.7859   -7.1848    3.6279 C   0  0  2  0  0  0  0  0  0  0  0  0
    4.0001   -6.4352    3.0506 C   0  0  1  0  0  0  0  0  0  0  0  0
    4.4791   -9.8447    0.9887 H   0  0  0  0  0  0  0  0  0  0  0  0
    5.3568   -8.5559    1.7871 H   0  0  0  0  0  0  0  0  0  0  0  0
    4.9981   -8.4551    0.0719 H   0  0  0  0  0  0  0  0  0  0  0  0
    4.1600   -6.5375   -0.3110 H   0  0  0  0  0  0  0  0  0  0  0  0
    6.2439   -6.5742    0.9656 H   0  0  0  0  0  0  0  0  0  0  0  0
    6.1356   -4.9977    0.3012 H   0  0  0  0  0  0  0  0  0  0  0  0
    6.4982   -5.7810    3.0855 H   0  0  0  0  0  0  0  0  0  0  0  0
    6.4350   -4.1592    2.4688 H   0  0  0  0  0  0  0  0  0  0  0  0
    4.6658   -0.1899    4.1482 H   0  0  0  0  0  0  0  0  0  0  0  0
    5.1111    0.5263    2.6291 H   0  0  0  0  0  0  0  0  0  0  0  0
    2.6027    1.0574    2.2374 H   0  0  0  0  0  0  0  0  0  0  0  0
    2.2915    0.4594    3.8634 H   0  0  0  0  0  0  0  0  0  0  0  0
    4.0471    2.5400    3.0971 H   0  0  0  0  0  0  0  0  0  0  0  0
    3.5210   -0.2936    0.5245 H   0  0  0  0  0  0  0  0  0  0  0  0
    2.3229   -1.6910   -1.0862 H   0  0  0  0  0  0  0  0  0  0  0  0
    5.5880   -2.8570    4.5664 H   0  0  0  0  0  0  0  0  0  0  0  0
    4.0131   -2.2829    5.1274 H   0  0  0  0  0  0  0  0  0  0  0  0
    4.4949   -4.9431    5.3141 H   0  0  0  0  0  0  0  0  0  0  0  0
    1.1769   -4.4719    6.0409 H   0  0  0  0  0  0  0  0  0  0  0  0
    2.5753   -3.4811    6.3294 H   0  0  0  0  0  0  0  0  0  0  0  0
    1.5246   -2.0627    4.2119 H   0  0  0  0  0  0  0  0  0  0  0  0
    0.5407   -1.9047    7.1423 H   0  0  0  0  0  0  0  0  0  0  0  0
    0.4538   -0.5744    5.8761 H   0  0  0  0  0  0  0  0  0  0  0  0
   -0.9746   -2.0203    4.4253 H   0  0  0  0  0  0  0  0  0  0  0  0
   -0.9080   -3.3625    5.6826 H   0  0  0  0  0  0  0  0  0  0  0  0
    0.7101   -4.9072    3.6714 H   0  0  0  0  0  0  0  0  0  0  0  0
    1.6798   -4.1153    2.5375 H   0  0  0  0  0  0  0  0  0  0  0  0
   -0.3803   -7.1150    1.0352 H   0  0  0  0  0  0  0  0  0  0  0  0
   -2.3610   -8.2338    2.1137 H   0  0  0  0  0  0  0  0  0  0  0  0
   -2.3221   -8.7915    4.5070 H   0  0  0  0  0  0  0  0  0  0  0  0
   -0.3155   -8.3249    5.9181 H   0  0  0  0  0  0  0  0  0  0  0  0
    2.8942   -8.2557    3.4284 H   0  0  0  0  0  0  0  0  0  0  0  0
    4.8202   -7.0971    3.3224 H   0  0  0  0  0  0  0  0  0  0  0  0
  1  2  1  0
  1 37  1  0
  1 38  1  0
  1 39  1  0
  3  2  1  6
  3 27  1  0
  3 36  1  0
  3  4  1  0
  4 18  1  0
  4  5  1  0
  4 40  1  6
  5  6  1  0
  5 41  1  0
  5 42  1  0
  7  6  1  1
  6 43  1  0
  6 44  1  0
  7 20  1  0
  7 36  1  0
  7  8  1  0
  8 17  2  0
  8  9  1  0
  9 10  2  0
  9 19  1  0
 10 11  1  0
 10 14  1  0
 11 12  1  0
 11 45  1  0
 11 46  1  0
 12 13  1  0
 12 47  1  0
 12 48  1  0
 13 49  1  0
 14 15  2  0
 14 50  1  0
 15 16  1  0
 15 17  1  0
 16 51  1  0
 17 18  1  0
 19 20  1  0
 19 52  1  0
 19 53  1  0
 20 21  1  0
 20 54  1  1
 21 22  1  0
 21 26  1  0
 22 23  1  0
 22 55  1  0
 22 56  1  0
 23 25  1  0
 23 24  1  0
 23 57  1  0
 24 25  1  0
 24 58  1  0
 24 59  1  0
 25 60  1  0
 25 61  1  0
 27 26  1  1
 26 62  1  0
 26 63  1  0
 27 35  1  0
 27 28  1  0
 28 33  2  0
 28 29  1  0
 29 30  2  0
 29 64  1  0
 30 31  1  0
 30 65  1  0
 31 32  2  0
 31 66  1  0
 32 33  1  0
 32 67  1  0
 33 34  1  0
 34 35  1  0
 35 36  1  0
 35 68  1  6
 36 69  1  6
M  END
>  <i_m_ct_stereo_status>  (65) 
1

>  <s_m_source_file>  (65) 
/var/tmp/pbs.5076255.sched01/tmp5vb4dkz1/0x5hafel7.sdf

>  <i_m_source_file_index>  (65) 
25

>  <i_lp_mmshare_version>  (65) 
48012

>  <i_f3d_flags>  (65) 
0

>  <s_epik_input>  (65) 
W0NIMl0xW0NIMl1bQ0hdMVtDSDJdTihbQ0BIXTJbQ0gyXTMpW0NIMl1bQ0BAXTQoYzVjKE9bQ0BASF00W0NIXTY3KVtjSF1bY0hdW2NIXVtjSF01KUM2KE9bQ0gzXSlbQ0BIXShbQ0gyXVtDSDJdOClPYzljKFtPSF0pW2NIXWMoYzNjOVtDQEBdMjc4KVtDSDJdW0NIMl1bT0hd

>  <s_epik_cmdline>  (65) 
J2VwaWtfcHl0aG9uJywgJy1waHQnLCAnMi4wJywgJy1waCcsICc3LjAnLCAnLXRuJywgJzgnLCAnLW1hJywgJzIwMCcsICctaW1hZScsICc8aW5maWxlLm1hZT4nLCAnLW9tYWUnLCAnPG91dGZpbGUubWFlPic=

>  <r_lp_tautomer_probability>  (65) 
1

>  <r_epik_Ionization_Penalty>  (65) 
0.841802

>  <r_epik_Ionization_Penalty_Charging>  (65) 
0

>  <r_epik_Ionization_Penalty_Neutral>  (65) 
0.841802

>  <r_epik_State_Penalty>  (65) 
0.520186

>  <r_epik_Charging_Adjusted_Penalty>  (65) 
0.520186

>  <i_epik_Tot_Q>  (65) 
0

>  <i_epik_Tot_abs_Q>  (65) 
0

>  <s_lp_Force_Field>  (65) 
OPLS3e

>  <r_lp_Energy>  (65) 
206.143

>  <b_lp_Chiralities_Consistent>  (65) 
1

>  <s_lp_Variant>  (65) 
14:0-3

>  <s_i_glide_gridfile>  (65) 
pfpi4k_grid

>  <i_i_glide_lignum>  (65) 
25

>  <i_i_glide_rotatable_bonds>  (65) 
7

>  <r_i_docking_score>  (65) 
-2.66331

>  <r_i_glide_ligand_efficiency>  (65) 
-0.0739808

>  <r_i_glide_ligand_efficiency_sa>  (65) 
-0.244279

>  <r_i_glide_ligand_efficiency_ln>  (65) 
-0.581062

>  <r_i_glide_gscore>  (65) 
-2.66331

>  <r_i_glide_lipo>  (65) 
-0.304347

>  <r_i_glide_hbond>  (65) 
-0.304

>  <r_i_glide_metal>  (65) 
-0

>  <r_i_glide_rewards>  (65) 
-0.084636

>  <r_i_glide_evdw>  (65) 
-26.3325

>  <r_i_glide_ecoul>  (65) 
-6.6384

>  <r_i_glide_erotb>  (65) 
0.34206

>  <r_i_glide_esite>  (65) 
0

>  <r_i_glide_emodel>  (65) 
-33.0209

>  <r_i_glide_energy>  (65) 
-32.9709

>  <r_i_glide_einternal>  (65) 
7.84742

>  <r_i_glide_intrahb_reward>  (65) 
-0

>  <i_i_glide_confnum>  (65) 
2

>  <i_i_glide_posenum>  (65) 
24

>  <r_i_glide_eff_state_penalty>  (65) 
0

>  <ligand_id>  (65) 
14

>  <original_smiles>  (65) 
COC12C3CCC45c6c(c(CCO)cc(O)c6O3)CC4N(CC3CC3)CC13c1ccccc1OC3C52

>  <smiles>  (65) 
[H]Oc1c([H])c(C([H])([H])C([H])([H])O[H])c2c3c1OC1([H])C([H])([H])C([H])([H])C34C([H])(N(C([H])([H])C3([H])C([H])([H])C3([H])[H])C([H])([H])C35c6c([H])c([H])c([H])c([H])c6OC3([H])C4([H])C15OC([H])([H])[H])C2([H])[H]

$$$$
14:2:2
     RDKit          3D

 69 77  0  0  1  0  0  0  0  0999 V2000
    3.6658   -8.7563    1.3644 C   0  0  0  0  0  0  0  0  0  0  0  0
    4.0992   -7.9102    2.4226 O   0  0  0  0  0  0  0  0  0  0  0  0
    3.7399   -6.5177    2.3276 C   0  0  1  0  0  0  0  0  0  0  0  0
    4.7990   -5.9505    1.3320 C   0  0  2  0  0  0  0  0  0  0  0  0
    6.0417   -5.2340    2.0386 C   0  0  0  0  0  0  0  0  0  0  0  0
    5.6928   -4.2229    3.2083 C   0  0  0  0  0  0  0  0  0  0  0  0
    4.1614   -4.2234    3.3083 C   0  0  2  0  0  0  0  0  0  0  0  0
    3.9110   -3.3835    1.9996 C   0  0  0  0  0  0  0  0  0  0  0  0
    3.6803   -2.0405    2.3113 C   0  0  0  0  0  0  0  0  0  0  0  0
    3.5796   -1.0830    1.2869 C   0  0  0  0  0  0  0  0  0  0  0  0
    3.4082    0.3869    1.5984 C   0  0  0  0  0  0  0  0  0  0  0  0
    1.9321    0.8129    1.6817 C   0  0  0  0  0  0  0  0  0  0  0  0
    1.8420    2.1723    2.0797 O   0  0  0  0  0  0  0  0  0  0  0  0
    3.6586   -1.5333   -0.0507 C   0  0  0  0  0  0  0  0  0  0  0  0
    3.8064   -2.9063   -0.3486 C   0  0  0  0  0  0  0  0  0  0  0  0
    3.8352   -3.2959   -1.6548 O   0  0  0  0  0  0  0  0  0  0  0  0
    3.9738   -3.8902    0.6745 C   0  0  0  0  0  0  0  0  0  0  0  0
    4.2143   -5.1688    0.3173 O   0  0  0  0  0  0  0  0  0  0  0  0
    3.5349   -1.9473    3.7989 C   0  0  0  0  0  0  0  0  0  0  0  0
    3.2849   -3.3944    4.2532 C   0  0  1  0  0  0  0  0  0  0  0  0
    1.8786   -3.8355    3.9486 N   0  0  0  0  0  0  0  0  0  0  0  0
    0.7734   -2.9713    4.3831 C   0  0  0  0  0  0  0  0  0  0  0  0
    0.8204   -2.6342    5.8635 C   0  0  0  0  0  0  0  0  0  0  0  0
   -0.0838   -3.3467    6.8464 C   0  0  0  0  0  0  0  0  0  0  0  0
   -0.3422   -1.9031    6.5007 C   0  0  0  0  0  0  0  0  0  0  0  0
    1.5493   -4.6973    2.7456 C   0  0  0  0  0  0  0  0  0  0  0  0
    2.1832   -6.1693    2.6979 C   0  0  1  0  0  0  0  0  0  0  0  0
    0.9854   -7.0737    2.8762 C   0  0  0  0  0  0  0  0  0  0  0  0
    0.2227   -7.7759    1.9192 C   0  0  0  0  0  0  0  0  0  0  0  0
   -0.9471   -8.4439    2.3744 C   0  0  0  0  0  0  0  0  0  0  0  0
   -1.3508   -8.3472    3.7269 C   0  0  0  0  0  0  0  0  0  0  0  0
   -0.5694   -7.6262    4.6583 C   0  0  0  0  0  0  0  0  0  0  0  0
    0.6242   -7.0227    4.2169 C   0  0  0  0  0  0  0  0  0  0  0  0
    1.5661   -6.3684    4.9652 O   0  0  0  0  0  0  0  0  0  0  0  0
    2.6863   -6.5338    4.0892 C   0  0  2  0  0  0  0  0  0  0  0  0
    3.9223   -5.7451    3.6174 C   0  0  1  0  0  0  0  0  0  0  0  0
    4.2364   -9.6855    1.3834 H   0  0  0  0  0  0  0  0  0  0  0  0
    3.8309   -8.3167    0.3844 H   0  0  0  0  0  0  0  0  0  0  0  0
    2.6142   -9.0194    1.4528 H   0  0  0  0  0  0  0  0  0  0  0  0
    5.2599   -6.7567    0.7661 H   0  0  0  0  0  0  0  0  0  0  0  0
    6.6842   -6.0113    2.4582 H   0  0  0  0  0  0  0  0  0  0  0  0
    6.6583   -4.7332    1.2897 H   0  0  0  0  0  0  0  0  0  0  0  0
    6.1668   -4.5449    4.1402 H   0  0  0  0  0  0  0  0  0  0  0  0
    6.1031   -3.2347    2.9847 H   0  0  0  0  0  0  0  0  0  0  0  0
    3.9262    0.6152    2.5304 H   0  0  0  0  0  0  0  0  0  0  0  0
    3.9245    0.9443    0.8213 H   0  0  0  0  0  0  0  0  0  0  0  0
    1.4405    0.6766    0.7210 H   0  0  0  0  0  0  0  0  0  0  0  0
    1.3953    0.1970    2.4027 H   0  0  0  0  0  0  0  0  0  0  0  0
    1.1045    2.6045    1.6646 H   0  0  0  0  0  0  0  0  0  0  0  0
    3.5757   -0.8263   -0.8600 H   0  0  0  0  0  0  0  0  0  0  0  0
    3.7653   -4.2291   -1.7684 H   0  0  0  0  0  0  0  0  0  0  0  0
    4.4816   -1.5855    4.2049 H   0  0  0  0  0  0  0  0  0  0  0  0
    2.7640   -1.2345    4.0901 H   0  0  0  0  0  0  0  0  0  0  0  0
    3.5016   -3.5535    5.3055 H   0  0  0  0  0  0  0  0  0  0  0  0
    0.7381   -2.0563    3.7917 H   0  0  0  0  0  0  0  0  0  0  0  0
   -0.1755   -3.4794    4.2087 H   0  0  0  0  0  0  0  0  0  0  0  0
    1.7938   -2.3173    6.2373 H   0  0  0  0  0  0  0  0  0  0  0  0
   -0.7583   -4.1016    6.4432 H   0  0  0  0  0  0  0  0  0  0  0  0
    0.3239   -3.5646    7.8296 H   0  0  0  0  0  0  0  0  0  0  0  0
   -0.1173   -1.1654    7.2662 H   0  0  0  0  0  0  0  0  0  0  0  0
   -1.2018   -1.6768    5.8715 H   0  0  0  0  0  0  0  0  0  0  0  0
    0.4742   -4.8216    2.7914 H   0  0  0  0  0  0  0  0  0  0  0  0
    1.6704   -4.1783    1.8011 H   0  0  0  0  0  0  0  0  0  0  0  0
    0.5240   -7.8359    0.8897 H   0  0  0  0  0  0  0  0  0  0  0  0
   -1.5315   -9.0379    1.6889 H   0  0  0  0  0  0  0  0  0  0  0  0
   -2.2348   -8.8608    4.0647 H   0  0  0  0  0  0  0  0  0  0  0  0
   -0.8491   -7.5699    5.6816 H   0  0  0  0  0  0  0  0  0  0  0  0
    2.9760   -7.5677    4.2926 H   0  0  0  0  0  0  0  0  0  0  0  0
    4.7206   -6.1619    4.2367 H   0  0  0  0  0  0  0  0  0  0  0  0
  1  2  1  0
  1 37  1  0
  1 38  1  0
  1 39  1  0
  3  2  1  1
  3 27  1  0
  3 36  1  0
  3  4  1  0
  4 18  1  0
  4  5  1  0
  4 40  1  6
  5  6  1  0
  5 41  1  0
  5 42  1  0
  7  6  1  1
  6 43  1  0
  6 44  1  0
  7 20  1  0
  7 36  1  0
  7  8  1  0
  8 17  2  0
  8  9  1  0
  9 10  2  0
  9 19  1  0
 10 11  1  0
 10 14  1  0
 11 12  1  0
 11 45  1  0
 11 46  1  0
 12 13  1  0
 12 47  1  0
 12 48  1  0
 13 49  1  0
 14 15  2  0
 14 50  1  0
 15 16  1  0
 15 17  1  0
 16 51  1  0
 17 18  1  0
 19 20  1  0
 19 52  1  0
 19 53  1  0
 20 21  1  0
 20 54  1  1
 21 22  1  0
 21 26  1  0
 22 23  1  0
 22 55  1  0
 22 56  1  0
 23 25  1  0
 23 24  1  0
 23 57  1  0
 24 25  1  0
 24 58  1  0
 24 59  1  0
 25 60  1  0
 25 61  1  0
 27 26  1  1
 26 62  1  0
 26 63  1  0
 27 35  1  0
 27 28  1  0
 28 33  2  0
 28 29  1  0
 29 30  2  0
 29 64  1  0
 30 31  1  0
 30 65  1  0
 31 32  2  0
 31 66  1  0
 32 33  1  0
 32 67  1  0
 33 34  1  0
 34 35  1  0
 35 36  1  0
 35 68  1  6
 36 69  1  1
M  END
>  <i_m_ct_stereo_status>  (66) 
1

>  <s_m_source_file>  (66) 
/var/tmp/pbs.5076255.sched01/tmp5vb4dkz1/0x5hafel7.sdf

>  <i_m_source_file_index>  (66) 
25

>  <i_lp_mmshare_version>  (66) 
48012

>  <i_f3d_flags>  (66) 
0

>  <s_epik_input>  (66) 
W0NIMl0xW0NIMl1bQ0hdMVtDSDJdTihbQ0BIXTJbQ0gyXTMpW0NIMl1bQ0BAXTQoYzVjKE9bQ0BASF00W0NIXTY3KVtjSF1bY0hdW2NIXVtjSF01KUM2KE9bQ0gzXSlbQ0BIXShbQ0gyXVtDSDJdOClPYzljKFtPSF0pW2NIXWMoYzNjOVtDQEBdMjc4KVtDSDJdW0NIMl1bT0hd

>  <s_epik_cmdline>  (66) 
J2VwaWtfcHl0aG9uJywgJy1waHQnLCAnMi4wJywgJy1waCcsICc3LjAnLCAnLXRuJywgJzgnLCAnLW1hJywgJzIwMCcsICctaW1hZScsICc8aW5maWxlLm1hZT4nLCAnLW9tYWUnLCAnPG91dGZpbGUubWFlPic=

>  <r_lp_tautomer_probability>  (66) 
1

>  <r_epik_Ionization_Penalty>  (66) 
0.841802

>  <r_epik_Ionization_Penalty_Charging>  (66) 
0

>  <r_epik_Ionization_Penalty_Neutral>  (66) 
0.841802

>  <r_epik_State_Penalty>  (66) 
0.520186

>  <r_epik_Charging_Adjusted_Penalty>  (66) 
0.520186

>  <i_epik_Tot_Q>  (66) 
0

>  <i_epik_Tot_abs_Q>  (66) 
0

>  <s_lp_Force_Field>  (66) 
OPLS3e

>  <r_lp_Energy>  (66) 
206.143

>  <b_lp_Chiralities_Consistent>  (66) 
1

>  <s_lp_Variant>  (66) 
14:0-3

>  <s_i_glide_gridfile>  (66) 
pfpi4k_grid

>  <i_i_glide_lignum>  (66) 
25

>  <i_i_glide_rotatable_bonds>  (66) 
7

>  <r_i_docking_score>  (66) 
-2.08836

>  <r_i_glide_ligand_efficiency>  (66) 
-0.05801

>  <r_i_glide_ligand_efficiency_sa>  (66) 
-0.191545

>  <r_i_glide_ligand_efficiency_ln>  (66) 
-0.455624

>  <r_i_glide_gscore>  (66) 
-2.08836

>  <r_i_glide_lipo>  (66) 
-0.247098

>  <r_i_glide_hbond>  (66) 
-0.0979837

>  <r_i_glide_metal>  (66) 
-0

>  <r_i_glide_rewards>  (66) 
-0.084636

>  <r_i_glide_evdw>  (66) 
-28.7379

>  <r_i_glide_ecoul>  (66) 
-3.75872

>  <r_i_glide_erotb>  (66) 
0.34206

>  <r_i_glide_esite>  (66) 
0

>  <r_i_glide_emodel>  (66) 
-35.5712

>  <r_i_glide_energy>  (66) 
-32.4966

>  <r_i_glide_einternal>  (66) 
1.72714

>  <r_i_glide_intrahb_reward>  (66) 
-0

>  <i_i_glide_confnum>  (66) 
3

>  <i_i_glide_posenum>  (66) 
22

>  <r_i_glide_eff_state_penalty>  (66) 
0

>  <ligand_id>  (66) 
14

>  <original_smiles>  (66) 
COC12C3CCC45c6c(c(CCO)cc(O)c6O3)CC4N(CC3CC3)CC13c1ccccc1OC3C52

>  <smiles>  (66) 
[H]Oc1c([H])c(C([H])([H])C([H])([H])O[H])c2c3c1OC1([H])C([H])([H])C([H])([H])C34C([H])(N(C([H])([H])C3([H])C([H])([H])C3([H])[H])C([H])([H])C35c6c([H])c([H])c([H])c([H])c6OC3([H])C4([H])C15OC([H])([H])[H])C2([H])[H]

$$$$
14:3:0
     RDKit          3D

 69 77  0  0  1  0  0  0  0  0999 V2000
    3.5202   -9.1779    1.3313 C   0  0  0  0  0  0  0  0  0  0  0  0
    2.7465   -8.5267    2.3364 O   0  0  0  0  0  0  0  0  0  0  0  0
    3.2954   -7.3906    3.0367 C   0  0  2  0  0  0  0  0  0  0  0  0
    4.6160   -7.9289    3.7088 C   0  0  2  0  0  0  0  0  0  0  0  0
    4.8754   -7.2016    4.9929 C   0  0  0  0  0  0  0  0  0  0  0  0
    5.0407   -5.7425    4.6330 C   0  0  0  0  0  0  0  0  0  0  0  0
    4.5878   -5.3314    3.1663 C   0  0  2  0  0  0  0  0  0  0  0  0
    5.7794   -5.4401    2.3523 C   0  0  0  0  0  0  0  0  0  0  0  0
    6.0335   -4.2663    1.6588 C   0  0  0  0  0  0  0  0  0  0  0  0
    7.1359   -4.2957    0.7845 C   0  0  0  0  0  0  0  0  0  0  0  0
    7.4868   -3.0845   -0.0591 C   0  0  0  0  0  0  0  0  0  0  0  0
    6.7126   -3.0527   -1.3925 C   0  0  0  0  0  0  0  0  0  0  0  0
    6.0259   -1.8268   -1.5292 O   0  0  0  0  0  0  0  0  0  0  0  0
    7.8774   -5.5114    0.6872 C   0  0  0  0  0  0  0  0  0  0  0  0
    7.4963   -6.6903    1.3966 C   0  0  0  0  0  0  0  0  0  0  0  0
    8.2067   -7.8413    1.1912 O   0  0  0  0  0  0  0  0  0  0  0  0
    6.3714   -6.7122    2.2684 C   0  0  0  0  0  0  0  0  0  0  0  0
    5.8511   -7.8808    2.8792 O   0  0  0  0  0  0  0  0  0  0  0  0
    4.8680   -3.3136    1.9795 C   0  0  0  0  0  0  0  0  0  0  0  0
    4.2280   -3.8836    3.2786 C   0  0  1  0  0  0  0  0  0  0  0  0
    2.7884   -3.8018    3.6248 N   0  0  0  0  0  0  0  0  0  0  0  0
    2.4196   -2.4781    4.1112 C   0  0  0  0  0  0  0  0  0  0  0  0
    0.9447   -2.2029    3.8964 C   0  0  0  0  0  0  0  0  0  0  0  0
    0.3232   -0.9159    4.3976 C   0  0  0  0  0  0  0  0  0  0  0  0
   -0.0197   -2.2237    5.0594 C   0  0  0  0  0  0  0  0  0  0  0  0
    2.1532   -4.9768    4.3451 C   0  0  0  0  0  0  0  0  0  0  0  0
    2.0863   -6.3567    3.5347 C   0  0  2  0  0  0  0  0  0  0  0  0
    0.7287   -6.9992    3.5943 C   0  0  0  0  0  0  0  0  0  0  0  0
   -0.0041   -7.4660    4.7053 C   0  0  0  0  0  0  0  0  0  0  0  0
   -1.2307   -8.1250    4.4545 C   0  0  0  0  0  0  0  0  0  0  0  0
   -1.6973   -8.3038    3.1330 C   0  0  0  0  0  0  0  0  0  0  0  0
   -0.9359   -7.8471    2.0414 C   0  0  0  0  0  0  0  0  0  0  0  0
    0.2761   -7.1950    2.2911 C   0  0  0  0  0  0  0  0  0  0  0  0
    1.1634   -6.7509    1.3496 O   0  0  0  0  0  0  0  0  0  0  0  0
    2.0967   -5.9308    2.0691 C   0  0  2  0  0  0  0  0  0  0  0  0
    3.6079   -6.1929    2.2513 C   0  0  2  0  0  0  0  0  0  0  0  0
    2.9376  -10.0217    0.9611 H   0  0  0  0  0  0  0  0  0  0  0  0
    4.4543   -9.6038    1.6981 H   0  0  0  0  0  0  0  0  0  0  0  0
    3.7430   -8.5287    0.4836 H   0  0  0  0  0  0  0  0  0  0  0  0
    4.4658   -8.9734    3.9826 H   0  0  0  0  0  0  0  0  0  0  0  0
    4.0186   -7.3448    5.6543 H   0  0  0  0  0  0  0  0  0  0  0  0
    5.7568   -7.5901    5.5037 H   0  0  0  0  0  0  0  0  0  0  0  0
    4.5294   -5.1767    5.4080 H   0  0  0  0  0  0  0  0  0  0  0  0
    6.0830   -5.4572    4.7879 H   0  0  0  0  0  0  0  0  0  0  0  0
    7.2983   -2.1903    0.5400 H   0  0  0  0  0  0  0  0  0  0  0  0
    8.5562   -3.0825   -0.2664 H   0  0  0  0  0  0  0  0  0  0  0  0
    7.3916   -3.1815   -2.2374 H   0  0  0  0  0  0  0  0  0  0  0  0
    5.9735   -3.8543   -1.4661 H   0  0  0  0  0  0  0  0  0  0  0  0
    5.2471   -1.8566   -0.9892 H   0  0  0  0  0  0  0  0  0  0  0  0
    8.7041   -5.5665   -0.0078 H   0  0  0  0  0  0  0  0  0  0  0  0
    9.1740   -7.7691    1.1134 H   0  0  0  0  0  0  0  0  0  0  0  0
    5.2267   -2.2906    2.1048 H   0  0  0  0  0  0  0  0  0  0  0  0
    4.1592   -3.3465    1.1485 H   0  0  0  0  0  0  0  0  0  0  0  0
    4.7926   -3.4345    4.0993 H   0  0  0  0  0  0  0  0  0  0  0  0
    2.6966   -2.3463    5.1584 H   0  0  0  0  0  0  0  0  0  0  0  0
    2.9611   -1.7353    3.5255 H   0  0  0  0  0  0  0  0  0  0  0  0
    0.5785   -2.5333    2.9251 H   0  0  0  0  0  0  0  0  0  0  0  0
    0.9628   -0.2210    4.9403 H   0  0  0  0  0  0  0  0  0  0  0  0
   -0.4555   -0.4556    3.7917 H   0  0  0  0  0  0  0  0  0  0  0  0
   -1.0033   -2.6436    4.8715 H   0  0  0  0  0  0  0  0  0  0  0  0
    0.4020   -2.4330    6.0415 H   0  0  0  0  0  0  0  0  0  0  0  0
    2.5162   -5.1155    5.3562 H   0  0  0  0  0  0  0  0  0  0  0  0
    1.1208   -4.6803    4.5168 H   0  0  0  0  0  0  0  0  0  0  0  0
    0.3721   -7.3665    5.7130 H   0  0  0  0  0  0  0  0  0  0  0  0
   -1.8002   -8.5520    5.2684 H   0  0  0  0  0  0  0  0  0  0  0  0
   -2.6069   -8.8419    2.9546 H   0  0  0  0  0  0  0  0  0  0  0  0
   -1.2541   -8.0329    1.0296 H   0  0  0  0  0  0  0  0  0  0  0  0
    1.8220   -4.9077    1.8094 H   0  0  0  0  0  0  0  0  0  0  0  0
    3.9783   -6.4108    1.2494 H   0  0  0  0  0  0  0  0  0  0  0  0
  1  2  1  0
  1 37  1  0
  1 38  1  0
  1 39  1  0
  3  2  1  6
  3 27  1  0
  3 36  1  0
  3  4  1  0
  4 18  1  0
  4  5  1  0
  4 40  1  1
  5  6  1  0
  5 41  1  0
  5 42  1  0
  7  6  1  1
  6 43  1  0
  6 44  1  0
  7 20  1  0
  7 36  1  0
  7  8  1  0
  8 17  2  0
  8  9  1  0
  9 10  2  0
  9 19  1  0
 10 11  1  0
 10 14  1  0
 11 12  1  0
 11 45  1  0
 11 46  1  0
 12 13  1  0
 12 47  1  0
 12 48  1  0
 13 49  1  0
 14 15  2  0
 14 50  1  0
 15 16  1  0
 15 17  1  0
 16 51  1  0
 17 18  1  0
 19 20  1  0
 19 52  1  0
 19 53  1  0
 20 21  1  0
 20 54  1  1
 21 22  1  0
 21 26  1  0
 22 23  1  0
 22 55  1  0
 22 56  1  0
 23 25  1  0
 23 24  1  0
 23 57  1  0
 24 25  1  0
 24 58  1  0
 24 59  1  0
 25 60  1  0
 25 61  1  0
 27 26  1  1
 26 62  1  0
 26 63  1  0
 27 35  1  0
 27 28  1  0
 28 33  2  0
 28 29  1  0
 29 30  2  0
 29 64  1  0
 30 31  1  0
 30 65  1  0
 31 32  2  0
 31 66  1  0
 32 33  1  0
 32 67  1  0
 33 34  1  0
 34 35  1  0
 35 36  1  0
 35 68  1  1
 36 69  1  6
M  END
>  <i_m_ct_stereo_status>  (67) 
1

>  <s_m_source_file>  (67) 
/var/tmp/pbs.5076255.sched01/tmp5vb4dkz1/0x5hafel7.sdf

>  <i_m_source_file_index>  (67) 
26

>  <i_lp_mmshare_version>  (67) 
48012

>  <i_f3d_flags>  (67) 
2

>  <s_epik_input>  (67) 
W0NIMl0xW0NIMl1bQ0hdMVtDSDJdTihbQ0BIXTJbQ0gyXTMpW0NIMl1bQ0BAXTQoYzVjKE9bQ0BASF00W0NIXTY3KVtjSF1bY0hdW2NIXVtjSF01KUM2KE9bQ0gzXSlbQ0BIXShbQ0gyXVtDSDJdOClPYzljKFtPSF0pW2NIXWMoYzNjOVtDQEBdMjc4KVtDSDJdW0NIMl1bT0hd

>  <s_epik_cmdline>  (67) 
J2VwaWtfcHl0aG9uJywgJy1waHQnLCAnMi4wJywgJy1waCcsICc3LjAnLCAnLXRuJywgJzgnLCAnLW1hJywgJzIwMCcsICctaW1hZScsICc8aW5maWxlLm1hZT4nLCAnLW9tYWUnLCAnPG91dGZpbGUubWFlPic=

>  <r_lp_tautomer_probability>  (67) 
1

>  <r_epik_Ionization_Penalty>  (67) 
0.841802

>  <r_epik_Ionization_Penalty_Charging>  (67) 
0

>  <r_epik_Ionization_Penalty_Neutral>  (67) 
0.841802

>  <r_epik_State_Penalty>  (67) 
0.520186

>  <r_epik_Charging_Adjusted_Penalty>  (67) 
0.520186

>  <i_epik_Tot_Q>  (67) 
0

>  <i_epik_Tot_abs_Q>  (67) 
0

>  <s_lp_Force_Field>  (67) 
OPLS3e

>  <r_lp_Energy>  (67) 
177.811

>  <b_lp_Chiralities_Consistent>  (67) 
0

>  <s_lp_Variant>  (67) 
14:0-4

>  <s_i_glide_gridfile>  (67) 
pfpi4k_grid

>  <i_i_glide_lignum>  (67) 
26

>  <i_i_glide_rotatable_bonds>  (67) 
7

>  <r_i_docking_score>  (67) 
-3.09209

>  <r_i_glide_ligand_efficiency>  (67) 
-0.0858915

>  <r_i_glide_ligand_efficiency_sa>  (67) 
-0.283607

>  <r_i_glide_ligand_efficiency_ln>  (67) 
-0.674611

>  <r_i_glide_gscore>  (67) 
-3.09209

>  <r_i_glide_lipo>  (67) 
-0.596654

>  <r_i_glide_hbond>  (67) 
-0.103968

>  <r_i_glide_metal>  (67) 
-0

>  <r_i_glide_rewards>  (67) 
-0.084636

>  <r_i_glide_evdw>  (67) 
-28.7804

>  <r_i_glide_ecoul>  (67) 
-8.06583

>  <r_i_glide_erotb>  (67) 
0.34206

>  <r_i_glide_esite>  (67) 
0

>  <r_i_glide_emodel>  (67) 
-40.892

>  <r_i_glide_energy>  (67) 
-36.8463

>  <r_i_glide_einternal>  (67) 
5.51052

>  <r_i_glide_intrahb_reward>  (67) 
-0

>  <i_i_glide_confnum>  (67) 
3

>  <i_i_glide_posenum>  (67) 
14

>  <r_i_glide_eff_state_penalty>  (67) 
0

>  <ligand_id>  (67) 
14

>  <original_smiles>  (67) 
COC12C3CCC45c6c(c(CCO)cc(O)c6O3)CC4N(CC3CC3)CC13c1ccccc1OC3C52

>  <smiles>  (67) 
[H]Oc1c([H])c(C([H])([H])C([H])([H])O[H])c2c3c1OC1([H])C([H])([H])C([H])([H])C34C([H])(N(C([H])([H])C3([H])C([H])([H])C3([H])[H])C([H])([H])C35c6c([H])c([H])c([H])c([H])c6OC3([H])C4([H])C15OC([H])([H])[H])C2([H])[H]

$$$$
14:3:1
     RDKit          3D

 69 77  0  0  1  0  0  0  0  0999 V2000
    5.1843   -8.4506    1.4284 C   0  0  0  0  0  0  0  0  0  0  0  0
    4.4326   -8.0922    2.5844 O   0  0  0  0  0  0  0  0  0  0  0  0
    4.3373   -6.7020    2.9620 C   0  0  2  0  0  0  0  0  0  0  0  0
    5.7866   -6.3364    3.4408 C   0  0  2  0  0  0  0  0  0  0  0  0
    5.7218   -5.2968    4.5259 C   0  0  0  0  0  0  0  0  0  0  0  0
    5.0498   -4.0844    3.9228 C   0  0  0  0  0  0  0  0  0  0  0  0
    4.3410   -4.3180    2.5265 C   0  0  2  0  0  0  0  0  0  0  0  0
    5.3361   -3.9800    1.5191 C   0  0  0  0  0  0  0  0  0  0  0  0
    4.8676   -3.0541    0.6195 C   0  0  0  0  0  0  0  0  0  0  0  0
    5.7361   -2.7321   -0.4464 C   0  0  0  0  0  0  0  0  0  0  0  0
    5.3098   -1.7497   -1.5157 C   0  0  0  0  0  0  0  0  0  0  0  0
    4.5607   -2.4296   -2.6700 C   0  0  0  0  0  0  0  0  0  0  0  0
    4.2110   -1.4627   -3.6440 O   0  0  0  0  0  0  0  0  0  0  0  0
    7.0051   -3.3962   -0.4884 C   0  0  0  0  0  0  0  0  0  0  0  0
    7.3743   -4.3984    0.4670 C   0  0  0  0  0  0  0  0  0  0  0  0
    8.5663   -5.0478    0.3211 O   0  0  0  0  0  0  0  0  0  0  0  0
    6.5009   -4.7836    1.5529 C   0  0  0  0  0  0  0  0  0  0  0  0
    6.7428   -5.8632    2.3973 O   0  0  0  0  0  0  0  0  0  0  0  0
    3.4044   -2.7766    0.9955 C   0  0  0  0  0  0  0  0  0  0  0  0
    3.2800   -3.2554    2.4675 C   0  0  1  0  0  0  0  0  0  0  0  0
    2.0674   -3.8238    3.0983 N   0  0  0  0  0  0  0  0  0  0  0  0
    1.0349   -2.8283    3.3868 C   0  0  0  0  0  0  0  0  0  0  0  0
    1.4037   -1.7784    4.4057 C   0  0  0  0  0  0  0  0  0  0  0  0
    0.4460   -0.6291    4.6581 C   0  0  0  0  0  0  0  0  0  0  0  0
    1.7626   -0.3706    3.9742 C   0  0  0  0  0  0  0  0  0  0  0  0
    2.1916   -4.9717    4.0911 C   0  0  0  0  0  0  0  0  0  0  0  0
    2.8102   -6.3375    3.5225 C   0  0  2  0  0  0  0  0  0  0  0  0
    2.0139   -7.5617    3.9341 C   0  0  0  0  0  0  0  0  0  0  0  0
    1.7330   -8.0532    5.2327 C   0  0  0  0  0  0  0  0  0  0  0  0
    1.0160   -9.2826    5.3227 C   0  0  0  0  0  0  0  0  0  0  0  0
    0.6171   -9.9769    4.1535 C   0  0  0  0  0  0  0  0  0  0  0  0
    0.9255   -9.4667    2.8725 C   0  0  0  0  0  0  0  0  0  0  0  0
    1.6364   -8.2479    2.7875 C   0  0  0  0  0  0  0  0  0  0  0  0
    2.0750   -7.6454    1.6486 O   0  0  0  0  0  0  0  0  0  0  0  0
    2.4702   -6.3255    2.0331 C   0  0  2  0  0  0  0  0  0  0  0  0
    3.8920   -5.7224    1.9670 C   0  0  2  0  0  0  0  0  0  0  0  0
    5.1719   -9.5383    1.3341 H   0  0  0  0  0  0  0  0  0  0  0  0
    6.2313   -8.1537    1.4888 H   0  0  0  0  0  0  0  0  0  0  0  0
    4.7513   -8.0533    0.5096 H   0  0  0  0  0  0  0  0  0  0  0  0
    6.2452   -7.2203    3.8878 H   0  0  0  0  0  0  0  0  0  0  0  0
    5.1274   -5.6907    5.3523 H   0  0  0  0  0  0  0  0  0  0  0  0
    6.7081   -5.0550    4.9187 H   0  0  0  0  0  0  0  0  0  0  0  0
    4.3780   -3.6879    4.6811 H   0  0  0  0  0  0  0  0  0  0  0  0
    5.7832   -3.2794    3.8336 H   0  0  0  0  0  0  0  0  0  0  0  0
    4.6931   -0.9743   -1.0599 H   0  0  0  0  0  0  0  0  0  0  0  0
    6.1916   -1.2549   -1.9084 H   0  0  0  0  0  0  0  0  0  0  0  0
    5.1798   -3.1974   -3.1328 H   0  0  0  0  0  0  0  0  0  0  0  0
    3.6530   -2.9203   -2.3126 H   0  0  0  0  0  0  0  0  0  0  0  0
    3.5551   -0.8986   -3.2774 H   0  0  0  0  0  0  0  0  0  0  0  0
    7.6819   -3.1917   -1.3037 H   0  0  0  0  0  0  0  0  0  0  0  0
    8.6445   -5.7832    0.8994 H   0  0  0  0  0  0  0  0  0  0  0  0
    3.1599   -1.7166    0.8835 H   0  0  0  0  0  0  0  0  0  0  0  0
    2.7614   -3.3521    0.3297 H   0  0  0  0  0  0  0  0  0  0  0  0
    3.6030   -2.4064    3.0657 H   0  0  0  0  0  0  0  0  0  0  0  0
    0.7923   -2.3100    2.4567 H   0  0  0  0  0  0  0  0  0  0  0  0
    0.1262   -3.3335    3.7103 H   0  0  0  0  0  0  0  0  0  0  0  0
    1.8926   -2.1647    5.3032 H   0  0  0  0  0  0  0  0  0  0  0  0
   -0.4539   -0.5629    4.0454 H   0  0  0  0  0  0  0  0  0  0  0  0
    0.3419   -0.2521    5.6696 H   0  0  0  0  0  0  0  0  0  0  0  0
    2.5293    0.1484    4.5402 H   0  0  0  0  0  0  0  0  0  0  0  0
    1.7472   -0.1542    2.9046 H   0  0  0  0  0  0  0  0  0  0  0  0
    2.6464   -4.6791    5.0304 H   0  0  0  0  0  0  0  0  0  0  0  0
    1.1639   -5.1810    4.3763 H   0  0  0  0  0  0  0  0  0  0  0  0
    2.0606   -7.5435    6.1148 H   0  0  0  0  0  0  0  0  0  0  0  0
    0.7873   -9.7098    6.2862 H   0  0  0  0  0  0  0  0  0  0  0  0
    0.0896  -10.9092    4.2443 H   0  0  0  0  0  0  0  0  0  0  0  0
    0.6428   -9.9997    1.9835 H   0  0  0  0  0  0  0  0  0  0  0  0
    1.6662   -5.6676    1.6906 H   0  0  0  0  0  0  0  0  0  0  0  0
    4.2360   -5.9441    0.9428 H   0  0  0  0  0  0  0  0  0  0  0  0
  1  2  1  0
  1 37  1  0
  1 38  1  0
  1 39  1  0
  3  2  1  6
  3 27  1  0
  3 36  1  0
  3  4  1  0
  4 18  1  0
  4  5  1  0
  4 40  1  1
  5  6  1  0
  5 41  1  0
  5 42  1  0
  7  6  1  1
  6 43  1  0
  6 44  1  0
  7 20  1  0
  7 36  1  0
  7  8  1  0
  8 17  2  0
  8  9  1  0
  9 10  2  0
  9 19  1  0
 10 11  1  0
 10 14  1  0
 11 12  1  0
 11 45  1  0
 11 46  1  0
 12 13  1  0
 12 47  1  0
 12 48  1  0
 13 49  1  0
 14 15  2  0
 14 50  1  0
 15 16  1  0
 15 17  1  0
 16 51  1  0
 17 18  1  0
 19 20  1  0
 19 52  1  0
 19 53  1  0
 20 21  1  0
 20 54  1  1
 21 22  1  0
 21 26  1  0
 22 23  1  0
 22 55  1  0
 22 56  1  0
 23 25  1  0
 23 24  1  0
 23 57  1  0
 24 25  1  0
 24 58  1  0
 24 59  1  0
 25 60  1  0
 25 61  1  0
 27 26  1  1
 26 62  1  0
 26 63  1  0
 27 35  1  0
 27 28  1  0
 28 33  2  0
 28 29  1  0
 29 30  2  0
 29 64  1  0
 30 31  1  0
 30 65  1  0
 31 32  2  0
 31 66  1  0
 32 33  1  0
 32 67  1  0
 33 34  1  0
 34 35  1  0
 35 36  1  0
 35 68  1  1
 36 69  1  6
M  END
>  <i_m_ct_stereo_status>  (68) 
1

>  <s_m_source_file>  (68) 
/var/tmp/pbs.5076255.sched01/tmp5vb4dkz1/0x5hafel7.sdf

>  <i_m_source_file_index>  (68) 
26

>  <i_lp_mmshare_version>  (68) 
48012

>  <i_f3d_flags>  (68) 
2

>  <s_epik_input>  (68) 
W0NIMl0xW0NIMl1bQ0hdMVtDSDJdTihbQ0BIXTJbQ0gyXTMpW0NIMl1bQ0BAXTQoYzVjKE9bQ0BASF00W0NIXTY3KVtjSF1bY0hdW2NIXVtjSF01KUM2KE9bQ0gzXSlbQ0BIXShbQ0gyXVtDSDJdOClPYzljKFtPSF0pW2NIXWMoYzNjOVtDQEBdMjc4KVtDSDJdW0NIMl1bT0hd

>  <s_epik_cmdline>  (68) 
J2VwaWtfcHl0aG9uJywgJy1waHQnLCAnMi4wJywgJy1waCcsICc3LjAnLCAnLXRuJywgJzgnLCAnLW1hJywgJzIwMCcsICctaW1hZScsICc8aW5maWxlLm1hZT4nLCAnLW9tYWUnLCAnPG91dGZpbGUubWFlPic=

>  <r_lp_tautomer_probability>  (68) 
1

>  <r_epik_Ionization_Penalty>  (68) 
0.841802

>  <r_epik_Ionization_Penalty_Charging>  (68) 
0

>  <r_epik_Ionization_Penalty_Neutral>  (68) 
0.841802

>  <r_epik_State_Penalty>  (68) 
0.520186

>  <r_epik_Charging_Adjusted_Penalty>  (68) 
0.520186

>  <i_epik_Tot_Q>  (68) 
0

>  <i_epik_Tot_abs_Q>  (68) 
0

>  <s_lp_Force_Field>  (68) 
OPLS3e

>  <r_lp_Energy>  (68) 
177.811

>  <b_lp_Chiralities_Consistent>  (68) 
0

>  <s_lp_Variant>  (68) 
14:0-4

>  <s_i_glide_gridfile>  (68) 
pfpi4k_grid

>  <i_i_glide_lignum>  (68) 
26

>  <i_i_glide_rotatable_bonds>  (68) 
7

>  <r_i_docking_score>  (68) 
-2.62196

>  <r_i_glide_ligand_efficiency>  (68) 
-0.0728323

>  <r_i_glide_ligand_efficiency_sa>  (68) 
-0.240487

>  <r_i_glide_ligand_efficiency_ln>  (68) 
-0.572042

>  <r_i_glide_gscore>  (68) 
-2.62196

>  <r_i_glide_lipo>  (68) 
-0.74815

>  <r_i_glide_hbond>  (68) 
0

>  <r_i_glide_metal>  (68) 
-0

>  <r_i_glide_rewards>  (68) 
-0.084636

>  <r_i_glide_evdw>  (68) 
-29.7874

>  <r_i_glide_ecoul>  (68) 
-4.27913

>  <r_i_glide_erotb>  (68) 
0.34206

>  <r_i_glide_esite>  (68) 
0

>  <r_i_glide_emodel>  (68) 
-40.2654

>  <r_i_glide_energy>  (68) 
-34.0665

>  <r_i_glide_einternal>  (68) 
0.294866

>  <r_i_glide_intrahb_reward>  (68) 
-0

>  <i_i_glide_confnum>  (68) 
2

>  <i_i_glide_posenum>  (68) 
12

>  <r_i_glide_eff_state_penalty>  (68) 
0

>  <ligand_id>  (68) 
14

>  <original_smiles>  (68) 
COC12C3CCC45c6c(c(CCO)cc(O)c6O3)CC4N(CC3CC3)CC13c1ccccc1OC3C52

>  <smiles>  (68) 
[H]Oc1c([H])c(C([H])([H])C([H])([H])O[H])c2c3c1OC1([H])C([H])([H])C([H])([H])C34C([H])(N(C([H])([H])C3([H])C([H])([H])C3([H])[H])C([H])([H])C35c6c([H])c([H])c([H])c([H])c6OC3([H])C4([H])C15OC([H])([H])[H])C2([H])[H]

$$$$
14:3:2
     RDKit          3D

 69 77  0  0  1  0  0  0  0  0999 V2000
    3.0272   -5.3825    0.4563 C   0  0  0  0  0  0  0  0  0  0  0  0
    2.8987   -5.9749    1.7428 O   0  0  0  0  0  0  0  0  0  0  0  0
    3.0844   -5.1591    2.9156 C   0  0  2  0  0  0  0  0  0  0  0  0
    4.5859   -4.6907    2.8531 C   0  0  2  0  0  0  0  0  0  0  0  0
    5.1279   -4.5295    4.2424 C   0  0  0  0  0  0  0  0  0  0  0  0
    4.2941   -3.4655    4.9165 C   0  0  0  0  0  0  0  0  0  0  0  0
    2.9400   -3.0806    4.1839 C   0  0  2  0  0  0  0  0  0  0  0  0
    3.2797   -1.9653    3.3270 C   0  0  0  0  0  0  0  0  0  0  0  0
    2.4378   -0.8858    3.5399 C   0  0  0  0  0  0  0  0  0  0  0  0
    2.6213    0.2248    2.6946 C   0  0  0  0  0  0  0  0  0  0  0  0
    1.7554    1.4610    2.8241 C   0  0  0  0  0  0  0  0  0  0  0  0
    0.3586    1.2578    2.2171 C   0  0  0  0  0  0  0  0  0  0  0  0
   -0.4467    2.3961    2.4824 O   0  0  0  0  0  0  0  0  0  0  0  0
    3.6289    0.1329    1.6948 C   0  0  0  0  0  0  0  0  0  0  0  0
    4.4026   -1.0506    1.5027 C   0  0  0  0  0  0  0  0  0  0  0  0
    5.3005   -1.0723    0.4764 O   0  0  0  0  0  0  0  0  0  0  0  0
    4.2391   -2.1990    2.3256 C   0  0  0  0  0  0  0  0  0  0  0  0
    4.8621   -3.4450    2.0877 O   0  0  0  0  0  0  0  0  0  0  0  0
    1.4043   -1.3385    4.5923 C   0  0  0  0  0  0  0  0  0  0  0  0
    2.0424   -2.5875    5.2768 C   0  0  1  0  0  0  0  0  0  0  0  0
    1.3043   -3.7650    5.8156 N   0  0  0  0  0  0  0  0  0  0  0  0
    0.6624   -3.4745    7.0979 C   0  0  0  0  0  0  0  0  0  0  0  0
   -0.4777   -4.4350    7.4466 C   0  0  0  0  0  0  0  0  0  0  0  0
   -1.9224   -4.0409    7.2376 C   0  0  0  0  0  0  0  0  0  0  0  0
   -1.3693   -4.1677    8.6365 C   0  0  0  0  0  0  0  0  0  0  0  0
    1.9414   -5.1413    5.6484 C   0  0  0  0  0  0  0  0  0  0  0  0
    2.1044   -5.6825    4.1503 C   0  0  2  0  0  0  0  0  0  0  0  0
    1.5961   -7.0931    3.9750 C   0  0  0  0  0  0  0  0  0  0  0  0
    2.0030   -8.2868    4.6093 C   0  0  0  0  0  0  0  0  0  0  0  0
    1.3916   -9.4940    4.1914 C   0  0  0  0  0  0  0  0  0  0  0  0
    0.4109   -9.4988    3.1726 C   0  0  0  0  0  0  0  0  0  0  0  0
    0.0179   -8.2942    2.5500 C   0  0  0  0  0  0  0  0  0  0  0  0
    0.6329   -7.0993    2.9682 C   0  0  0  0  0  0  0  0  0  0  0  0
    0.4362   -5.8564    2.4301 O   0  0  0  0  0  0  0  0  0  0  0  0
    1.0291   -4.9405    3.3655 C   0  0  2  0  0  0  0  0  0  0  0  0
    2.2122   -3.9896    3.0900 C   0  0  2  0  0  0  0  0  0  0  0  0
    2.9030   -6.1680   -0.2867 H   0  0  0  0  0  0  0  0  0  0  0  0
    4.0106   -4.9507    0.2796 H   0  0  0  0  0  0  0  0  0  0  0  0
    2.2616   -4.6305    0.2679 H   0  0  0  0  0  0  0  0  0  0  0  0
    5.1716   -5.4810    2.3771 H   0  0  0  0  0  0  0  0  0  0  0  0
    5.0427   -5.4830    4.7672 H   0  0  0  0  0  0  0  0  0  0  0  0
    6.1826   -4.2586    4.2338 H   0  0  0  0  0  0  0  0  0  0  0  0
    4.1433   -3.7941    5.9391 H   0  0  0  0  0  0  0  0  0  0  0  0
    4.9047   -2.5712    5.0580 H   0  0  0  0  0  0  0  0  0  0  0  0
    1.6680    1.7112    3.8833 H   0  0  0  0  0  0  0  0  0  0  0  0
    2.2404    2.3122    2.3413 H   0  0  0  0  0  0  0  0  0  0  0  0
    0.4093    1.0760    1.1401 H   0  0  0  0  0  0  0  0  0  0  0  0
   -0.1311    0.3877    2.6596 H   0  0  0  0  0  0  0  0  0  0  0  0
   -0.1863    3.1099    1.8784 H   0  0  0  0  0  0  0  0  0  0  0  0
    3.7835    0.9686    1.0264 H   0  0  0  0  0  0  0  0  0  0  0  0
    5.2484   -0.2891   -0.0511 H   0  0  0  0  0  0  0  0  0  0  0  0
    1.1854   -0.5398    5.3024 H   0  0  0  0  0  0  0  0  0  0  0  0
    0.4855   -1.6138    4.0718 H   0  0  0  0  0  0  0  0  0  0  0  0
    2.6581   -2.1826    6.0847 H   0  0  0  0  0  0  0  0  0  0  0  0
    1.4025   -3.4487    7.8969 H   0  0  0  0  0  0  0  0  0  0  0  0
    0.2442   -2.4698    7.0370 H   0  0  0  0  0  0  0  0  0  0  0  0
   -0.2499   -5.4951    7.3564 H   0  0  0  0  0  0  0  0  0  0  0  0
   -2.1134   -3.0530    6.8282 H   0  0  0  0  0  0  0  0  0  0  0  0
   -2.5818   -4.8300    6.8800 H   0  0  0  0  0  0  0  0  0  0  0  0
   -1.6661   -5.0447    9.2086 H   0  0  0  0  0  0  0  0  0  0  0  0
   -1.1577   -3.2766    9.2270 H   0  0  0  0  0  0  0  0  0  0  0  0
    2.8381   -5.2722    6.2451 H   0  0  0  0  0  0  0  0  0  0  0  0
    1.2747   -5.8625    6.1058 H   0  0  0  0  0  0  0  0  0  0  0  0
    2.7688   -8.2878    5.3675 H   0  0  0  0  0  0  0  0  0  0  0  0
    1.6863  -10.4327    4.6410 H   0  0  0  0  0  0  0  0  0  0  0  0
   -0.0291  -10.4269    2.8521 H   0  0  0  0  0  0  0  0  0  0  0  0
   -0.7118   -8.2914    1.7570 H   0  0  0  0  0  0  0  0  0  0  0  0
    0.1937   -4.5041    3.9046 H   0  0  0  0  0  0  0  0  0  0  0  0
    1.9595   -3.4748    2.1606 H   0  0  0  0  0  0  0  0  0  0  0  0
  1  2  1  0
  1 37  1  0
  1 38  1  0
  1 39  1  0
  3  2  1  6
  3 27  1  0
  3 36  1  0
  3  4  1  0
  4 18  1  0
  4  5  1  0
  4 40  1  6
  5  6  1  0
  5 41  1  0
  5 42  1  0
  7  6  1  1
  6 43  1  0
  6 44  1  0
  7 20  1  0
  7 36  1  0
  7  8  1  0
  8 17  2  0
  8  9  1  0
  9 10  2  0
  9 19  1  0
 10 11  1  0
 10 14  1  0
 11 12  1  0
 11 45  1  0
 11 46  1  0
 12 13  1  0
 12 47  1  0
 12 48  1  0
 13 49  1  0
 14 15  2  0
 14 50  1  0
 15 16  1  0
 15 17  1  0
 16 51  1  0
 17 18  1  0
 19 20  1  0
 19 52  1  0
 19 53  1  0
 20 21  1  0
 20 54  1  1
 21 22  1  0
 21 26  1  0
 22 23  1  0
 22 55  1  0
 22 56  1  0
 23 25  1  0
 23 24  1  0
 23 57  1  0
 24 25  1  0
 24 58  1  0
 24 59  1  0
 25 60  1  0
 25 61  1  0
 27 26  1  1
 26 62  1  0
 26 63  1  0
 27 35  1  0
 27 28  1  0
 28 33  2  0
 28 29  1  0
 29 30  2  0
 29 64  1  0
 30 31  1  0
 30 65  1  0
 31 32  2  0
 31 66  1  0
 32 33  1  0
 32 67  1  0
 33 34  1  0
 34 35  1  0
 35 36  1  0
 35 68  1  1
 36 69  1  6
M  END
>  <i_m_ct_stereo_status>  (69) 
1

>  <s_m_source_file>  (69) 
/var/tmp/pbs.5076255.sched01/tmp5vb4dkz1/0x5hafel7.sdf

>  <i_m_source_file_index>  (69) 
26

>  <i_lp_mmshare_version>  (69) 
48012

>  <i_f3d_flags>  (69) 
2

>  <s_epik_input>  (69) 
W0NIMl0xW0NIMl1bQ0hdMVtDSDJdTihbQ0BIXTJbQ0gyXTMpW0NIMl1bQ0BAXTQoYzVjKE9bQ0BASF00W0NIXTY3KVtjSF1bY0hdW2NIXVtjSF01KUM2KE9bQ0gzXSlbQ0BIXShbQ0gyXVtDSDJdOClPYzljKFtPSF0pW2NIXWMoYzNjOVtDQEBdMjc4KVtDSDJdW0NIMl1bT0hd

>  <s_epik_cmdline>  (69) 
J2VwaWtfcHl0aG9uJywgJy1waHQnLCAnMi4wJywgJy1waCcsICc3LjAnLCAnLXRuJywgJzgnLCAnLW1hJywgJzIwMCcsICctaW1hZScsICc8aW5maWxlLm1hZT4nLCAnLW9tYWUnLCAnPG91dGZpbGUubWFlPic=

>  <r_lp_tautomer_probability>  (69) 
1

>  <r_epik_Ionization_Penalty>  (69) 
0.841802

>  <r_epik_Ionization_Penalty_Charging>  (69) 
0

>  <r_epik_Ionization_Penalty_Neutral>  (69) 
0.841802

>  <r_epik_State_Penalty>  (69) 
0.520186

>  <r_epik_Charging_Adjusted_Penalty>  (69) 
0.520186

>  <i_epik_Tot_Q>  (69) 
0

>  <i_epik_Tot_abs_Q>  (69) 
0

>  <s_lp_Force_Field>  (69) 
OPLS3e

>  <r_lp_Energy>  (69) 
177.811

>  <b_lp_Chiralities_Consistent>  (69) 
0

>  <s_lp_Variant>  (69) 
14:0-4

>  <s_i_glide_gridfile>  (69) 
pfpi4k_grid

>  <i_i_glide_lignum>  (69) 
26

>  <i_i_glide_rotatable_bonds>  (69) 
7

>  <r_i_docking_score>  (69) 
-2.55157

>  <r_i_glide_ligand_efficiency>  (69) 
-0.070877

>  <r_i_glide_ligand_efficiency_sa>  (69) 
-0.234031

>  <r_i_glide_ligand_efficiency_ln>  (69) 
-0.556684

>  <r_i_glide_gscore>  (69) 
-2.55157

>  <r_i_glide_lipo>  (69) 
-0.102359

>  <r_i_glide_hbond>  (69) 
-0.325461

>  <r_i_glide_metal>  (69) 
-0

>  <r_i_glide_rewards>  (69) 
-0.084636

>  <r_i_glide_evdw>  (69) 
-26.048

>  <r_i_glide_ecoul>  (69) 
-7.19184

>  <r_i_glide_erotb>  (69) 
0.34206

>  <r_i_glide_esite>  (69) 
0

>  <r_i_glide_emodel>  (69) 
-38.8903

>  <r_i_glide_energy>  (69) 
-33.2398

>  <r_i_glide_einternal>  (69) 
0.555583

>  <r_i_glide_intrahb_reward>  (69) 
-0

>  <i_i_glide_confnum>  (69) 
3

>  <i_i_glide_posenum>  (69) 
25

>  <r_i_glide_eff_state_penalty>  (69) 
0

>  <ligand_id>  (69) 
14

>  <original_smiles>  (69) 
COC12C3CCC45c6c(c(CCO)cc(O)c6O3)CC4N(CC3CC3)CC13c1ccccc1OC3C52

>  <smiles>  (69) 
[H]Oc1c([H])c(C([H])([H])C([H])([H])O[H])c2c3c1OC1([H])C([H])([H])C([H])([H])C34C([H])(N(C([H])([H])C3([H])C([H])([H])C3([H])[H])C([H])([H])C35c6c([H])c([H])c([H])c([H])c6OC3([H])C4([H])C15OC([H])([H])[H])C2([H])[H]

$$$$
14:4:0
     RDKit          3D

 69 77  0  0  1  0  0  0  0  0999 V2000
    4.4424   -8.6984    1.0370 C   0  0  0  0  0  0  0  0  0  0  0  0
    3.1724   -8.0782    1.3113 O   0  0  0  0  0  0  0  0  0  0  0  0
    3.1579   -6.7177    1.8198 C   0  0  1  0  0  0  0  0  0  0  0  0
    3.9385   -5.8939    0.7517 C   0  0  2  0  0  0  0  0  0  0  0  0
    5.4669   -5.6227    1.1773 C   0  0  0  0  0  0  0  0  0  0  0  0
    5.6869   -5.1443    2.6781 C   0  0  0  0  0  0  0  0  0  0  0  0
    4.2740   -4.9693    3.2883 C   0  0  2  0  0  0  0  0  0  0  0  0
    3.9516   -3.6916    2.4423 C   0  0  0  0  0  0  0  0  0  0  0  0
    4.3224   -2.5483    3.1651 C   0  0  0  0  0  0  0  0  0  0  0  0
    4.3159   -1.2888    2.5475 C   0  0  0  0  0  0  0  0  0  0  0  0
    4.7832   -0.0557    3.2838 C   0  0  0  0  0  0  0  0  0  0  0  0
    3.6177    0.7946    3.8175 C   0  0  0  0  0  0  0  0  0  0  0  0
    3.0118    1.5366    2.7811 O   0  0  0  0  0  0  0  0  0  0  0  0
    3.8570   -1.2071    1.2144 C   0  0  0  0  0  0  0  0  0  0  0  0
    3.4428   -2.3646    0.5228 C   0  0  0  0  0  0  0  0  0  0  0  0
    3.0220   -2.2596   -0.7689 O   0  0  0  0  0  0  0  0  0  0  0  0
    3.5073   -3.6440    1.1093 C   0  0  0  0  0  0  0  0  0  0  0  0
    3.2309   -4.7427    0.3652 O   0  0  0  0  0  0  0  0  0  0  0  0
    4.5743   -3.0082    4.5880 C   0  0  0  0  0  0  0  0  0  0  0  0
    3.8750   -4.3891    4.6556 C   0  0  2  0  0  0  0  0  0  0  0  0
    2.4225   -4.7348    4.7684 N   0  0  0  0  0  0  0  0  0  0  0  0
    1.7117   -4.4866    6.0359 C   0  0  0  0  0  0  0  0  0  0  0  0
    1.2099   -3.0583    6.1954 C   0  0  0  0  0  0  0  0  0  0  0  0
    0.3700   -2.6978    7.4031 C   0  0  0  0  0  0  0  0  0  0  0  0
   -0.2555   -2.7223    6.0322 C   0  0  0  0  0  0  0  0  0  0  0  0
    1.5747   -4.9915    3.5341 C   0  0  0  0  0  0  0  0  0  0  0  0
    1.8394   -6.3779    2.7550 C   0  0  1  0  0  0  0  0  0  0  0  0
    0.5748   -7.1815    2.9715 C   0  0  0  0  0  0  0  0  0  0  0  0
   -0.5326   -7.3912    2.1266 C   0  0  0  0  0  0  0  0  0  0  0  0
   -1.6519   -8.0574    2.6802 C   0  0  0  0  0  0  0  0  0  0  0  0
   -1.6461   -8.4698    4.0321 C   0  0  0  0  0  0  0  0  0  0  0  0
   -0.5223   -8.2644    4.8589 C   0  0  0  0  0  0  0  0  0  0  0  0
    0.5951   -7.6421    4.2934 C   0  0  0  0  0  0  0  0  0  0  0  0
    1.8153   -7.4193    4.8806 O   0  0  0  0  0  0  0  0  0  0  0  0
    2.6056   -7.2920    3.6958 C   0  0  2  0  0  0  0  0  0  0  0  0
    3.8173   -6.4899    3.1683 C   0  0  1  0  0  0  0  0  0  0  0  0
    4.3422   -9.7843    0.9689 H   0  0  0  0  0  0  0  0  0  0  0  0
    5.1933   -8.5082    1.8060 H   0  0  0  0  0  0  0  0  0  0  0  0
    4.8548   -8.3679    0.0811 H   0  0  0  0  0  0  0  0  0  0  0  0
    3.9459   -6.4341   -0.1938 H   0  0  0  0  0  0  0  0  0  0  0  0
    6.0538   -6.5281    1.0575 H   0  0  0  0  0  0  0  0  0  0  0  0
    5.9289   -4.9181    0.4832 H   0  0  0  0  0  0  0  0  0  0  0  0
    6.2877   -5.8709    3.2344 H   0  0  0  0  0  0  0  0  0  0  0  0
    6.2889   -4.2338    2.6802 H   0  0  0  0  0  0  0  0  0  0  0  0
    5.4198   -0.3619    4.1155 H   0  0  0  0  0  0  0  0  0  0  0  0
    5.4299    0.5261    2.6303 H   0  0  0  0  0  0  0  0  0  0  0  0
    2.8792    0.1601    4.3187 H   0  0  0  0  0  0  0  0  0  0  0  0
    3.9919    1.5062    4.5581 H   0  0  0  0  0  0  0  0  0  0  0  0
    3.6661    2.1357    2.4300 H   0  0  0  0  0  0  0  0  0  0  0  0
    3.8452   -0.2567    0.7098 H   0  0  0  0  0  0  0  0  0  0  0  0
    2.3126   -1.6144   -0.8447 H   0  0  0  0  0  0  0  0  0  0  0  0
    5.6481   -3.1357    4.7329 H   0  0  0  0  0  0  0  0  0  0  0  0
    4.2300   -2.2855    5.3354 H   0  0  0  0  0  0  0  0  0  0  0  0
    3.1131   -3.6248    4.5602 H   0  0  0  0  0  0  0  0  0  0  0  0
    0.8677   -5.1735    6.1283 H   0  0  0  0  0  0  0  0  0  0  0  0
    2.3916   -4.7120    6.8560 H   0  0  0  0  0  0  0  0  0  0  0  0
    1.9270   -2.2888    5.9160 H   0  0  0  0  0  0  0  0  0  0  0  0
    0.1042   -3.4932    8.0979 H   0  0  0  0  0  0  0  0  0  0  0  0
    0.5210   -1.7201    7.8564 H   0  0  0  0  0  0  0  0  0  0  0  0
   -0.4943   -1.7656    5.5710 H   0  0  0  0  0  0  0  0  0  0  0  0
   -0.9280   -3.5432    5.7894 H   0  0  0  0  0  0  0  0  0  0  0  0
    0.5441   -5.0035    3.8943 H   0  0  0  0  0  0  0  0  0  0  0  0
    1.5603   -4.1443    2.8489 H   0  0  0  0  0  0  0  0  0  0  0  0
   -0.5295   -7.0667    1.0978 H   0  0  0  0  0  0  0  0  0  0  0  0
   -2.5188   -8.2698    2.0726 H   0  0  0  0  0  0  0  0  0  0  0  0
   -2.4962   -9.0020    4.4258 H   0  0  0  0  0  0  0  0  0  0  0  0
   -0.5072   -8.6260    5.8740 H   0  0  0  0  0  0  0  0  0  0  0  0
    2.7385   -8.3470    3.4343 H   0  0  0  0  0  0  0  0  0  0  0  0
    4.6404   -7.1535    3.4189 H   0  0  0  0  0  0  0  0  0  0  0  0
  1  2  1  0
  1 37  1  0
  1 38  1  0
  1 39  1  0
  3  2  1  6
  3 27  1  0
  3 36  1  0
  3  4  1  0
  4 18  1  0
  4  5  1  0
  4 40  1  6
  5  6  1  0
  5 41  1  0
  5 42  1  0
  7  6  1  1
  6 43  1  0
  6 44  1  0
  7 20  1  0
  7 36  1  0
  7  8  1  0
  8 17  2  0
  8  9  1  0
  9 10  2  0
  9 19  1  0
 10 11  1  0
 10 14  1  0
 11 12  1  0
 11 45  1  0
 11 46  1  0
 12 13  1  0
 12 47  1  0
 12 48  1  0
 13 49  1  0
 14 15  2  0
 14 50  1  0
 15 16  1  0
 15 17  1  0
 16 51  1  0
 17 18  1  0
 19 20  1  0
 19 52  1  0
 19 53  1  0
 20 21  1  0
 20 54  1  1
 21 22  1  0
 21 26  1  0
 22 23  1  0
 22 55  1  0
 22 56  1  0
 23 25  1  0
 23 24  1  0
 23 57  1  0
 24 25  1  0
 24 58  1  0
 24 59  1  0
 25 60  1  0
 25 61  1  0
 27 26  1  1
 26 62  1  0
 26 63  1  0
 27 35  1  0
 27 28  1  0
 28 33  2  0
 28 29  1  0
 29 30  2  0
 29 64  1  0
 30 31  1  0
 30 65  1  0
 31 32  2  0
 31 66  1  0
 32 33  1  0
 32 67  1  0
 33 34  1  0
 34 35  1  0
 35 36  1  0
 35 68  1  6
 36 69  1  6
M  END
>  <i_m_ct_stereo_status>  (70) 
1

>  <s_m_source_file>  (70) 
/var/tmp/pbs.5076255.sched01/tmp5vb4dkz1/0x5hafel7.sdf

>  <i_m_source_file_index>  (70) 
27

>  <i_lp_mmshare_version>  (70) 
48012

>  <i_f3d_flags>  (70) 
0

>  <s_epik_input>  (70) 
W0NIMl0xW0NIMl1bQ0hdMVtDSDJdTihbQ0BIXTJbQ0gyXTMpW0NIMl1bQ0BAXTQoYzVjKE9bQ0BASF00W0NIXTY3KVtjSF1bY0hdW2NIXVtjSF01KUM2KE9bQ0gzXSlbQ0BIXShbQ0gyXVtDSDJdOClPYzljKFtPSF0pW2NIXWMoYzNjOVtDQEBdMjc4KVtDSDJdW0NIMl1bT0hd

>  <s_epik_cmdline>  (70) 
J2VwaWtfcHl0aG9uJywgJy1waHQnLCAnMi4wJywgJy1waCcsICc3LjAnLCAnLXRuJywgJzgnLCAnLW1hJywgJzIwMCcsICctaW1hZScsICc8aW5maWxlLm1hZT4nLCAnLW9tYWUnLCAnPG91dGZpbGUubWFlPic=

>  <r_lp_tautomer_probability>  (70) 
1

>  <r_epik_Ionization_Penalty>  (70) 
0.841802

>  <r_epik_Ionization_Penalty_Charging>  (70) 
0

>  <r_epik_Ionization_Penalty_Neutral>  (70) 
0.841802

>  <r_epik_State_Penalty>  (70) 
0.520186

>  <r_epik_Charging_Adjusted_Penalty>  (70) 
0.520186

>  <i_epik_Tot_Q>  (70) 
0

>  <i_epik_Tot_abs_Q>  (70) 
0

>  <s_lp_Force_Field>  (70) 
OPLS3e

>  <r_lp_Energy>  (70) 
281.899

>  <b_lp_Chiralities_Consistent>  (70) 
1

>  <s_lp_Variant>  (70) 
14:0-5

>  <s_i_glide_gridfile>  (70) 
pfpi4k_grid

>  <i_i_glide_lignum>  (70) 
27

>  <i_i_glide_rotatable_bonds>  (70) 
7

>  <r_i_docking_score>  (70) 
-2.45273

>  <r_i_glide_ligand_efficiency>  (70) 
-0.0681313

>  <r_i_glide_ligand_efficiency_sa>  (70) 
-0.224965

>  <r_i_glide_ligand_efficiency_ln>  (70) 
-0.535119

>  <r_i_glide_gscore>  (70) 
-2.45273

>  <r_i_glide_lipo>  (70) 
-0.317585

>  <r_i_glide_hbond>  (70) 
-0.304

>  <r_i_glide_metal>  (70) 
-0

>  <r_i_glide_rewards>  (70) 
-0.084636

>  <r_i_glide_evdw>  (70) 
-25.3642

>  <r_i_glide_ecoul>  (70) 
-5.46903

>  <r_i_glide_erotb>  (70) 
0.34206

>  <r_i_glide_esite>  (70) 
0

>  <r_i_glide_emodel>  (70) 
-30.762

>  <r_i_glide_energy>  (70) 
-30.8333

>  <r_i_glide_einternal>  (70) 
6.81531

>  <r_i_glide_intrahb_reward>  (70) 
-0

>  <i_i_glide_confnum>  (70) 
2

>  <i_i_glide_posenum>  (70) 
1

>  <r_i_glide_eff_state_penalty>  (70) 
0

>  <ligand_id>  (70) 
14

>  <original_smiles>  (70) 
COC12C3CCC45c6c(c(CCO)cc(O)c6O3)CC4N(CC3CC3)CC13c1ccccc1OC3C52

>  <smiles>  (70) 
[H]Oc1c([H])c(C([H])([H])C([H])([H])O[H])c2c3c1OC1([H])C([H])([H])C([H])([H])C34C([H])(N(C([H])([H])C3([H])C([H])([H])C3([H])[H])C([H])([H])C35c6c([H])c([H])c([H])c([H])c6OC3([H])C4([H])C15OC([H])([H])[H])C2([H])[H]

$$$$
14:4:1
     RDKit          3D

 69 77  0  0  1  0  0  0  0  0999 V2000
    4.9717   -9.0199    1.9104 C   0  0  0  0  0  0  0  0  0  0  0  0
    3.6417   -8.4672    1.8671 O   0  0  0  0  0  0  0  0  0  0  0  0
    3.4908   -7.0221    1.9653 C   0  0  1  0  0  0  0  0  0  0  0  0
    4.3463   -6.4575    0.7982 C   0  0  2  0  0  0  0  0  0  0  0  0
    5.7954   -5.9367    1.2804 C   0  0  0  0  0  0  0  0  0  0  0  0
    5.7974   -5.0425    2.5943 C   0  0  0  0  0  0  0  0  0  0  0  0
    4.3085   -4.8426    2.9736 C   0  0  2  0  0  0  0  0  0  0  0  0
    4.0229   -3.8789    1.7753 C   0  0  0  0  0  0  0  0  0  0  0  0
    4.2387   -2.5483    2.1719 C   0  0  0  0  0  0  0  0  0  0  0  0
    4.2205   -1.5175    1.2183 C   0  0  0  0  0  0  0  0  0  0  0  0
    4.5110   -0.0835    1.6019 C   0  0  0  0  0  0  0  0  0  0  0  0
    3.3919    0.5546    2.4454 C   0  0  0  0  0  0  0  0  0  0  0  0
    2.2703    0.8467    1.6425 O   0  0  0  0  0  0  0  0  0  0  0  0
    3.9320   -1.8558   -0.1216 C   0  0  0  0  0  0  0  0  0  0  0  0
    3.6712   -3.1898   -0.4961 C   0  0  0  0  0  0  0  0  0  0  0  0
    3.4182   -3.4560   -1.8095 O   0  0  0  0  0  0  0  0  0  0  0  0
    3.7356   -4.2455    0.4457 C   0  0  0  0  0  0  0  0  0  0  0  0
    3.6153   -5.5296    0.0403 O   0  0  0  0  0  0  0  0  0  0  0  0
    4.3623   -2.5976    3.6901 C   0  0  0  0  0  0  0  0  0  0  0  0
    3.7101   -3.9502    4.0705 C   0  0  2  0  0  0  0  0  0  0  0  0
    2.2676   -4.3614    4.1159 N   0  0  0  0  0  0  0  0  0  0  0  0
    1.3791   -3.8431    5.1766 C   0  0  0  0  0  0  0  0  0  0  0  0
    1.0680   -2.3531    5.0635 C   0  0  0  0  0  0  0  0  0  0  0  0
    0.0208   -1.7283    5.9565 C   0  0  0  0  0  0  0  0  0  0  0  0
   -0.2333   -1.8603    4.4769 C   0  0  0  0  0  0  0  0  0  0  0  0
    1.6034   -5.0363    2.9261 C   0  0  0  0  0  0  0  0  0  0  0  0
    2.0479   -6.5558    2.6178 C   0  0  1  0  0  0  0  0  0  0  0  0
    0.8096   -7.3681    2.9280 C   0  0  0  0  0  0  0  0  0  0  0  0
   -0.1782   -7.8818    2.0669 C   0  0  0  0  0  0  0  0  0  0  0  0
   -1.3116   -8.4878    2.6572 C   0  0  0  0  0  0  0  0  0  0  0  0
   -1.4506   -8.5181    4.0618 C   0  0  0  0  0  0  0  0  0  0  0  0
   -0.4533   -7.9975    4.9104 C   0  0  0  0  0  0  0  0  0  0  0  0
    0.6917   -7.4493    4.3144 C   0  0  0  0  0  0  0  0  0  0  0  0
    1.8123   -6.9603    4.9392 O   0  0  0  0  0  0  0  0  0  0  0  0
    2.7357   -7.0963    3.8571 C   0  0  2  0  0  0  0  0  0  0  0  0
    3.9578   -6.3690    3.2517 C   0  0  1  0  0  0  0  0  0  0  0  0
    4.9399  -10.0847    2.1451 H   0  0  0  0  0  0  0  0  0  0  0  0
    5.6100   -8.5530    2.6628 H   0  0  0  0  0  0  0  0  0  0  0  0
    5.4777   -8.9357    0.9445 H   0  0  0  0  0  0  0  0  0  0  0  0
    4.5037   -7.2310    0.0498 H   0  0  0  0  0  0  0  0  0  0  0  0
    6.4495   -6.7812    1.4888 H   0  0  0  0  0  0  0  0  0  0  0  0
    6.2924   -5.4077    0.4631 H   0  0  0  0  0  0  0  0  0  0  0  0
    6.3553   -5.5278    3.3986 H   0  0  0  0  0  0  0  0  0  0  0  0
    6.3392   -4.1111    2.4054 H   0  0  0  0  0  0  0  0  0  0  0  0
    5.4481   -0.0961    2.1566 H   0  0  0  0  0  0  0  0  0  0  0  0
    4.6990    0.5168    0.7071 H   0  0  0  0  0  0  0  0  0  0  0  0
    3.0707   -0.0738    3.2713 H   0  0  0  0  0  0  0  0  0  0  0  0
    3.7568    1.4797    2.8947 H   0  0  0  0  0  0  0  0  0  0  0  0
    2.0028    0.0636    1.1767 H   0  0  0  0  0  0  0  0  0  0  0  0
    3.9196   -1.0973   -0.8895 H   0  0  0  0  0  0  0  0  0  0  0  0
    3.2660   -4.3824   -1.9703 H   0  0  0  0  0  0  0  0  0  0  0  0
    5.4229   -2.6000    3.9513 H   0  0  0  0  0  0  0  0  0  0  0  0
    3.9298   -1.7463    4.2063 H   0  0  0  0  0  0  0  0  0  0  0  0
    2.9269   -3.3129    3.6695 H   0  0  0  0  0  0  0  0  0  0  0  0
    0.4412   -4.4054    5.1962 H   0  0  0  0  0  0  0  0  0  0  0  0
    1.8648   -4.0239    6.1347 H   0  0  0  0  0  0  0  0  0  0  0  0
    1.9360   -1.7132    4.9355 H   0  0  0  0  0  0  0  0  0  0  0  0
   -0.5248   -2.3810    6.6364 H   0  0  0  0  0  0  0  0  0  0  0  0
    0.2251   -0.7271    6.3293 H   0  0  0  0  0  0  0  0  0  0  0  0
   -0.1770   -0.9581    3.8701 H   0  0  0  0  0  0  0  0  0  0  0  0
   -0.9372   -2.6163    4.1367 H   0  0  0  0  0  0  0  0  0  0  0  0
    0.5386   -5.0442    3.1530 H   0  0  0  0  0  0  0  0  0  0  0  0
    1.6411   -4.4217    2.0310 H   0  0  0  0  0  0  0  0  0  0  0  0
   -0.0670   -7.8336    0.9950 H   0  0  0  0  0  0  0  0  0  0  0  0
   -2.0723   -8.9461    2.0410 H   0  0  0  0  0  0  0  0  0  0  0  0
   -2.3170   -8.9984    4.4859 H   0  0  0  0  0  0  0  0  0  0  0  0
   -0.5404   -8.0595    5.9797 H   0  0  0  0  0  0  0  0  0  0  0  0
    2.9597   -8.1650    3.9250 H   0  0  0  0  0  0  0  0  0  0  0  0
    4.7829   -6.8614    3.7687 H   0  0  0  0  0  0  0  0  0  0  0  0
  1  2  1  0
  1 37  1  0
  1 38  1  0
  1 39  1  0
  3  2  1  1
  3 27  1  0
  3 36  1  0
  3  4  1  0
  4 18  1  0
  4  5  1  0
  4 40  1  6
  5  6  1  0
  5 41  1  0
  5 42  1  0
  7  6  1  1
  6 43  1  0
  6 44  1  0
  7 20  1  0
  7 36  1  0
  7  8  1  0
  8 17  2  0
  8  9  1  0
  9 10  2  0
  9 19  1  0
 10 11  1  0
 10 14  1  0
 11 12  1  0
 11 45  1  0
 11 46  1  0
 12 13  1  0
 12 47  1  0
 12 48  1  0
 13 49  1  0
 14 15  2  0
 14 50  1  0
 15 16  1  0
 15 17  1  0
 16 51  1  0
 17 18  1  0
 19 20  1  0
 19 52  1  0
 19 53  1  0
 20 21  1  0
 20 54  1  1
 21 22  1  0
 21 26  1  0
 22 23  1  0
 22 55  1  0
 22 56  1  0
 23 25  1  0
 23 24  1  0
 23 57  1  0
 24 25  1  0
 24 58  1  0
 24 59  1  0
 25 60  1  0
 25 61  1  0
 27 26  1  1
 26 62  1  0
 26 63  1  0
 27 35  1  0
 27 28  1  0
 28 33  2  0
 28 29  1  0
 29 30  2  0
 29 64  1  0
 30 31  1  0
 30 65  1  0
 31 32  2  0
 31 66  1  0
 32 33  1  0
 32 67  1  0
 33 34  1  0
 34 35  1  0
 35 36  1  0
 35 68  1  6
 36 69  1  1
M  END
>  <i_m_ct_stereo_status>  (71) 
1

>  <s_m_source_file>  (71) 
/var/tmp/pbs.5076255.sched01/tmp5vb4dkz1/0x5hafel7.sdf

>  <i_m_source_file_index>  (71) 
27

>  <i_lp_mmshare_version>  (71) 
48012

>  <i_f3d_flags>  (71) 
0

>  <s_epik_input>  (71) 
W0NIMl0xW0NIMl1bQ0hdMVtDSDJdTihbQ0BIXTJbQ0gyXTMpW0NIMl1bQ0BAXTQoYzVjKE9bQ0BASF00W0NIXTY3KVtjSF1bY0hdW2NIXVtjSF01KUM2KE9bQ0gzXSlbQ0BIXShbQ0gyXVtDSDJdOClPYzljKFtPSF0pW2NIXWMoYzNjOVtDQEBdMjc4KVtDSDJdW0NIMl1bT0hd

>  <s_epik_cmdline>  (71) 
J2VwaWtfcHl0aG9uJywgJy1waHQnLCAnMi4wJywgJy1waCcsICc3LjAnLCAnLXRuJywgJzgnLCAnLW1hJywgJzIwMCcsICctaW1hZScsICc8aW5maWxlLm1hZT4nLCAnLW9tYWUnLCAnPG91dGZpbGUubWFlPic=

>  <r_lp_tautomer_probability>  (71) 
1

>  <r_epik_Ionization_Penalty>  (71) 
0.841802

>  <r_epik_Ionization_Penalty_Charging>  (71) 
0

>  <r_epik_Ionization_Penalty_Neutral>  (71) 
0.841802

>  <r_epik_State_Penalty>  (71) 
0.520186

>  <r_epik_Charging_Adjusted_Penalty>  (71) 
0.520186

>  <i_epik_Tot_Q>  (71) 
0

>  <i_epik_Tot_abs_Q>  (71) 
0

>  <s_lp_Force_Field>  (71) 
OPLS3e

>  <r_lp_Energy>  (71) 
281.899

>  <b_lp_Chiralities_Consistent>  (71) 
1

>  <s_lp_Variant>  (71) 
14:0-5

>  <s_i_glide_gridfile>  (71) 
pfpi4k_grid

>  <i_i_glide_lignum>  (71) 
27

>  <i_i_glide_rotatable_bonds>  (71) 
7

>  <r_i_docking_score>  (71) 
-2.21698

>  <r_i_glide_ligand_efficiency>  (71) 
-0.0615827

>  <r_i_glide_ligand_efficiency_sa>  (71) 
-0.203341

>  <r_i_glide_ligand_efficiency_ln>  (71) 
-0.483684

>  <r_i_glide_gscore>  (71) 
-2.21698

>  <r_i_glide_lipo>  (71) 
-0.441799

>  <r_i_glide_hbond>  (71) 
0

>  <r_i_glide_metal>  (71) 
-0

>  <r_i_glide_rewards>  (71) 
-0.084636

>  <r_i_glide_evdw>  (71) 
-28.7121

>  <r_i_glide_ecoul>  (71) 
-3.97997

>  <r_i_glide_erotb>  (71) 
0.34206

>  <r_i_glide_esite>  (71) 
0

>  <r_i_glide_emodel>  (71) 
-33.5619

>  <r_i_glide_energy>  (71) 
-32.6921

>  <r_i_glide_einternal>  (71) 
4.87848

>  <r_i_glide_intrahb_reward>  (71) 
-0

>  <i_i_glide_confnum>  (71) 
2

>  <i_i_glide_posenum>  (71) 
25

>  <r_i_glide_eff_state_penalty>  (71) 
0

>  <ligand_id>  (71) 
14

>  <original_smiles>  (71) 
COC12C3CCC45c6c(c(CCO)cc(O)c6O3)CC4N(CC3CC3)CC13c1ccccc1OC3C52

>  <smiles>  (71) 
[H]Oc1c([H])c(C([H])([H])C([H])([H])O[H])c2c3c1OC1([H])C([H])([H])C([H])([H])C34C([H])(N(C([H])([H])C3([H])C([H])([H])C3([H])[H])C([H])([H])C35c6c([H])c([H])c([H])c([H])c6OC3([H])C4([H])C15OC([H])([H])[H])C2([H])[H]

$$$$
14:4:2
     RDKit          3D

 69 77  0  0  1  0  0  0  0  0999 V2000
    4.8236   -9.4246    1.6344 C   0  0  0  0  0  0  0  0  0  0  0  0
    3.5555   -8.7419    1.6387 O   0  0  0  0  0  0  0  0  0  0  0  0
    3.5546   -7.3041    1.8520 C   0  0  1  0  0  0  0  0  0  0  0  0
    4.4738   -6.7413    0.7307 C   0  0  2  0  0  0  0  0  0  0  0  0
    5.9686   -6.4234    1.2471 C   0  0  0  0  0  0  0  0  0  0  0  0
    6.0630   -5.6400    2.6264 C   0  0  0  0  0  0  0  0  0  0  0  0
    4.6004   -5.3160    3.0283 C   0  0  2  0  0  0  0  0  0  0  0  0
    4.4156   -4.2311    1.9146 C   0  0  0  0  0  0  0  0  0  0  0  0
    4.7604   -2.9668    2.4252 C   0  0  0  0  0  0  0  0  0  0  0  0
    4.8697   -1.8677    1.5537 C   0  0  0  0  0  0  0  0  0  0  0  0
    5.3217   -0.5082    2.0419 C   0  0  0  0  0  0  0  0  0  0  0  0
    4.3373    0.1451    3.0359 C   0  0  0  0  0  0  0  0  0  0  0  0
    3.1724    0.5808    2.3658 O   0  0  0  0  0  0  0  0  0  0  0  0
    4.5567   -2.0684    0.1860 C   0  0  0  0  0  0  0  0  0  0  0  0
    4.1518   -3.3318   -0.2949 C   0  0  0  0  0  0  0  0  0  0  0  0
    3.8704   -3.4795   -1.6251 O   0  0  0  0  0  0  0  0  0  0  0  0
    4.1007   -4.4583    0.5601 C   0  0  0  0  0  0  0  0  0  0  0  0
    3.8516   -5.6849    0.0470 O   0  0  0  0  0  0  0  0  0  0  0  0
    4.8618   -3.1553    3.9414 C   0  0  0  0  0  0  0  0  0  0  0  0
    4.0895   -4.4658    4.1995 C   0  0  2  0  0  0  0  0  0  0  0  0
    2.6147   -4.7243    4.2206 N   0  0  0  0  0  0  0  0  0  0  0  0
    1.7950   -4.1864    5.3238 C   0  0  0  0  0  0  0  0  0  0  0  0
    1.4575   -2.7060    5.1905 C   0  0  0  0  0  0  0  0  0  0  0  0
    0.4716   -2.0782    6.1546 C   0  0  0  0  0  0  0  0  0  0  0  0
    0.0987   -2.2600    4.7068 C   0  0  0  0  0  0  0  0  0  0  0  0
    1.8821   -5.2154    2.9827 C   0  0  0  0  0  0  0  0  0  0  0  0
    2.1658   -6.7440    2.5485 C   0  0  1  0  0  0  0  0  0  0  0  0
    0.8485   -7.4467    2.8027 C   0  0  0  0  0  0  0  0  0  0  0  0
   -0.1860   -7.7967    1.9139 C   0  0  0  0  0  0  0  0  0  0  0  0
   -1.3784   -8.3147    2.4701 C   0  0  0  0  0  0  0  0  0  0  0  0
   -1.5261   -8.4339    3.8693 C   0  0  0  0  0  0  0  0  0  0  0  0
   -0.4785   -8.0856    4.7457 C   0  0  0  0  0  0  0  0  0  0  0  0
    0.7190   -7.6191    4.1818 C   0  0  0  0  0  0  0  0  0  0  0  0
    1.8851   -7.3019    4.8327 O   0  0  0  0  0  0  0  0  0  0  0  0
    2.7922   -7.4519    3.7374 C   0  0  2  0  0  0  0  0  0  0  0  0
    4.0883   -6.8146    3.1840 C   0  0  1  0  0  0  0  0  0  0  0  0
    4.6892  -10.4927    1.7976 H   0  0  0  0  0  0  0  0  0  0  0  0
    5.5045   -9.0815    2.4146 H   0  0  0  0  0  0  0  0  0  0  0  0
    5.3367   -9.3206    0.6747 H   0  0  0  0  0  0  0  0  0  0  0  0
    4.5549   -7.4634   -0.0785 H   0  0  0  0  0  0  0  0  0  0  0  0
    6.5231   -7.3500    1.3844 H   0  0  0  0  0  0  0  0  0  0  0  0
    6.5268   -5.8913    0.4731 H   0  0  0  0  0  0  0  0  0  0  0  0
    6.5686   -6.2413    3.3866 H   0  0  0  0  0  0  0  0  0  0  0  0
    6.7028   -4.7609    2.5040 H   0  0  0  0  0  0  0  0  0  0  0  0
    6.2961   -0.6486    2.5093 H   0  0  0  0  0  0  0  0  0  0  0  0
    5.5000    0.1461    1.1852 H   0  0  0  0  0  0  0  0  0  0  0  0
    4.0248   -0.5149    3.8357 H   0  0  0  0  0  0  0  0  0  0  0  0
    4.8223    0.9889    3.5305 H   0  0  0  0  0  0  0  0  0  0  0  0
    3.3762    1.3415    1.8402 H   0  0  0  0  0  0  0  0  0  0  0  0
    4.6329   -1.2516   -0.5167 H   0  0  0  0  0  0  0  0  0  0  0  0
    3.5931   -4.3631   -1.8480 H   0  0  0  0  0  0  0  0  0  0  0  0
    5.9078   -3.2946    4.2033 H   0  0  0  0  0  0  0  0  0  0  0  0
    4.5045   -2.3374    4.5619 H   0  0  0  0  0  0  0  0  0  0  0  0
    3.3805   -3.7188    3.8592 H   0  0  0  0  0  0  0  0  0  0  0  0
    0.8676   -4.7575    5.4105 H   0  0  0  0  0  0  0  0  0  0  0  0
    2.3374   -4.3357    6.2565 H   0  0  0  0  0  0  0  0  0  0  0  0
    2.2999   -2.0623    4.9460 H   0  0  0  0  0  0  0  0  0  0  0  0
   -0.0079   -2.7246    6.8880 H   0  0  0  0  0  0  0  0  0  0  0  0
    0.6629   -1.0604    6.4866 H   0  0  0  0  0  0  0  0  0  0  0  0
    0.0645   -1.3719    4.0789 H   0  0  0  0  0  0  0  0  0  0  0  0
   -0.6082   -3.0451    4.4547 H   0  0  0  0  0  0  0  0  0  0  0  0
    0.8224   -5.1239    3.2251 H   0  0  0  0  0  0  0  0  0  0  0  0
    1.9791   -4.5315    2.1418 H   0  0  0  0  0  0  0  0  0  0  0  0
   -0.0731   -7.6959    0.8456 H   0  0  0  0  0  0  0  0  0  0  0  0
   -2.1807   -8.6378    1.8233 H   0  0  0  0  0  0  0  0  0  0  0  0
   -2.4372   -8.8479    4.2666 H   0  0  0  0  0  0  0  0  0  0  0  0
   -0.5755   -8.2153    5.8081 H   0  0  0  0  0  0  0  0  0  0  0  0
    2.9007   -8.5408    3.7221 H   0  0  0  0  0  0  0  0  0  0  0  0
    4.8583   -7.4338    3.6474 H   0  0  0  0  0  0  0  0  0  0  0  0
  1  2  1  0
  1 37  1  0
  1 38  1  0
  1 39  1  0
  3  2  1  1
  3 27  1  0
  3 36  1  0
  3  4  1  0
  4 18  1  0
  4  5  1  0
  4 40  1  6
  5  6  1  0
  5 41  1  0
  5 42  1  0
  7  6  1  1
  6 43  1  0
  6 44  1  0
  7 20  1  0
  7 36  1  0
  7  8  1  0
  8 17  2  0
  8  9  1  0
  9 10  2  0
  9 19  1  0
 10 11  1  0
 10 14  1  0
 11 12  1  0
 11 45  1  0
 11 46  1  0
 12 13  1  0
 12 47  1  0
 12 48  1  0
 13 49  1  0
 14 15  2  0
 14 50  1  0
 15 16  1  0
 15 17  1  0
 16 51  1  0
 17 18  1  0
 19 20  1  0
 19 52  1  0
 19 53  1  0
 20 21  1  0
 20 54  1  1
 21 22  1  0
 21 26  1  0
 22 23  1  0
 22 55  1  0
 22 56  1  0
 23 25  1  0
 23 24  1  0
 23 57  1  0
 24 25  1  0
 24 58  1  0
 24 59  1  0
 25 60  1  0
 25 61  1  0
 27 26  1  1
 26 62  1  0
 26 63  1  0
 27 35  1  0
 27 28  1  0
 28 33  2  0
 28 29  1  0
 29 30  2  0
 29 64  1  0
 30 31  1  0
 30 65  1  0
 31 32  2  0
 31 66  1  0
 32 33  1  0
 32 67  1  0
 33 34  1  0
 34 35  1  0
 35 36  1  0
 35 68  1  6
 36 69  1  1
M  END
>  <i_m_ct_stereo_status>  (72) 
1

>  <s_m_source_file>  (72) 
/var/tmp/pbs.5076255.sched01/tmp5vb4dkz1/0x5hafel7.sdf

>  <i_m_source_file_index>  (72) 
27

>  <i_lp_mmshare_version>  (72) 
48012

>  <i_f3d_flags>  (72) 
0

>  <s_epik_input>  (72) 
W0NIMl0xW0NIMl1bQ0hdMVtDSDJdTihbQ0BIXTJbQ0gyXTMpW0NIMl1bQ0BAXTQoYzVjKE9bQ0BASF00W0NIXTY3KVtjSF1bY0hdW2NIXVtjSF01KUM2KE9bQ0gzXSlbQ0BIXShbQ0gyXVtDSDJdOClPYzljKFtPSF0pW2NIXWMoYzNjOVtDQEBdMjc4KVtDSDJdW0NIMl1bT0hd

>  <s_epik_cmdline>  (72) 
J2VwaWtfcHl0aG9uJywgJy1waHQnLCAnMi4wJywgJy1waCcsICc3LjAnLCAnLXRuJywgJzgnLCAnLW1hJywgJzIwMCcsICctaW1hZScsICc8aW5maWxlLm1hZT4nLCAnLW9tYWUnLCAnPG91dGZpbGUubWFlPic=

>  <r_lp_tautomer_probability>  (72) 
1

>  <r_epik_Ionization_Penalty>  (72) 
0.841802

>  <r_epik_Ionization_Penalty_Charging>  (72) 
0

>  <r_epik_Ionization_Penalty_Neutral>  (72) 
0.841802

>  <r_epik_State_Penalty>  (72) 
0.520186

>  <r_epik_Charging_Adjusted_Penalty>  (72) 
0.520186

>  <i_epik_Tot_Q>  (72) 
0

>  <i_epik_Tot_abs_Q>  (72) 
0

>  <s_lp_Force_Field>  (72) 
OPLS3e

>  <r_lp_Energy>  (72) 
281.899

>  <b_lp_Chiralities_Consistent>  (72) 
1

>  <s_lp_Variant>  (72) 
14:0-5

>  <s_i_glide_gridfile>  (72) 
pfpi4k_grid

>  <i_i_glide_lignum>  (72) 
27

>  <i_i_glide_rotatable_bonds>  (72) 
7

>  <r_i_docking_score>  (72) 
-2.1312

>  <r_i_glide_ligand_efficiency>  (72) 
-0.0591999

>  <r_i_glide_ligand_efficiency_sa>  (72) 
-0.195474

>  <r_i_glide_ligand_efficiency_ln>  (72) 
-0.46497

>  <r_i_glide_gscore>  (72) 
-2.1312

>  <r_i_glide_lipo>  (72) 
-0.64731

>  <r_i_glide_hbond>  (72) 
0

>  <r_i_glide_metal>  (72) 
-0

>  <r_i_glide_rewards>  (72) 
-0.084636

>  <r_i_glide_evdw>  (72) 
-28.8554

>  <r_i_glide_ecoul>  (72) 
-1.99029

>  <r_i_glide_erotb>  (72) 
0.34206

>  <r_i_glide_esite>  (72) 
0

>  <r_i_glide_emodel>  (72) 
-31.5785

>  <r_i_glide_energy>  (72) 
-30.8457

>  <r_i_glide_einternal>  (72) 
4.67773

>  <r_i_glide_intrahb_reward>  (72) 
-0

>  <i_i_glide_confnum>  (72) 
2

>  <i_i_glide_posenum>  (72) 
17

>  <r_i_glide_eff_state_penalty>  (72) 
0

>  <ligand_id>  (72) 
14

>  <original_smiles>  (72) 
COC12C3CCC45c6c(c(CCO)cc(O)c6O3)CC4N(CC3CC3)CC13c1ccccc1OC3C52

>  <smiles>  (72) 
[H]Oc1c([H])c(C([H])([H])C([H])([H])O[H])c2c3c1OC1([H])C([H])([H])C([H])([H])C34C([H])(N(C([H])([H])C3([H])C([H])([H])C3([H])[H])C([H])([H])C35c6c([H])c([H])c([H])c([H])c6OC3([H])C4([H])C15OC([H])([H])[H])C2([H])[H]

$$$$
15:0:0
     RDKit          3D

 56 60  0  0  1  0  0  0  0  0999 V2000
    4.0771  -10.5387    2.9243 C   0  0  0  0  0  0  0  0  0  0  0  0
    3.8949   -9.0090    2.9038 C   0  0  2  0  0  0  0  0  0  0  0  0
    4.8320   -8.3900    3.9767 C   0  0  0  0  0  0  0  0  0  0  0  0
    4.6321   -6.8824    4.2232 C   0  0  0  0  0  0  0  0  0  0  0  0
    3.6134   -6.2914    3.2343 C   0  0  2  0  0  0  0  0  0  0  0  0
    3.4638   -4.7592    3.1869 C   0  0  1  0  0  0  0  0  0  0  0  0
    4.8185   -4.0046    3.2096 C   0  0  0  0  0  0  0  0  0  0  0  0
    2.6517   -4.4149    1.8851 C   0  0  1  0  0  0  0  0  0  0  0  0
    3.5461   -4.0894    0.8729 O   0  0  0  0  0  0  0  0  0  0  0  0
    2.9315   -3.5999   -0.3068 C   0  0  0  0  0  0  0  0  0  0  0  0
    3.9969   -3.0650   -1.2621 C   0  0  0  0  0  0  0  0  0  0  0  0
    4.8047   -1.5933   -0.5448 S   0  0  0  0  0  0  0  0  0  0  0  0
    6.4982   -2.1374   -0.2206 C   0  0  0  0  0  0  0  0  0  0  0  0
    7.0128   -3.2559   -0.7486 N   0  0  0  0  0  0  0  0  0  0  0  0
    8.2122   -3.3449   -0.2608 C   0  0  0  0  0  0  0  0  0  0  0  0
    9.0354   -4.2550   -0.3685 O   0  0  0  0  0  0  0  0  0  0  0  0
    8.4739   -2.2360    0.4747 O   0  0  0  0  0  0  0  0  0  0  0  0
    7.3003   -1.4546    0.4778 N   0  0  0  0  0  0  0  0  0  0  0  0
    1.8279   -5.4964    1.4832 O   0  0  0  0  0  0  0  0  0  0  0  0
    1.2159   -6.1431    2.5572 C   0  0  1  0  0  0  0  0  0  0  0  0
    0.0372   -6.8058    2.2612 O   0  0  0  0  0  0  0  0  0  0  0  0
   -0.3465   -7.7051    3.3012 C   0  0  1  0  0  0  0  0  0  0  0  0
   -1.8695   -7.6283    3.4098 C   0  0  0  0  0  0  0  0  0  0  0  0
    0.0189   -9.1260    2.8488 C   0  0  0  0  0  0  0  0  0  0  0  0
    1.3891   -9.1869    2.2052 C   0  0  0  0  0  0  0  0  0  0  0  0
    2.4196   -8.5547    3.1374 C   0  0  2  0  0  0  0  0  0  0  0  0
    2.2349   -7.0000    3.3792 C   0  0  1  0  0  0  0  0  0  0  0  0
    1.6571   -6.9263    4.6694 O   0  0  0  0  0  0  0  0  0  0  0  0
    0.1655   -7.3722    4.6257 O   0  0  0  0  0  0  0  0  0  0  0  0
    3.6619  -10.9682    3.8291 H   0  0  0  0  0  0  0  0  0  0  0  0
    5.1225  -10.8296    2.8588 H   0  0  0  0  0  0  0  0  0  0  0  0
    3.5806  -11.0280    2.0945 H   0  0  0  0  0  0  0  0  0  0  0  0
    4.2130   -8.6540    1.9212 H   0  0  0  0  0  0  0  0  0  0  0  0
    4.6995   -8.9115    4.9253 H   0  0  0  0  0  0  0  0  0  0  0  0
    5.8698   -8.5636    3.6849 H   0  0  0  0  0  0  0  0  0  0  0  0
    4.3080   -6.7086    5.2506 H   0  0  0  0  0  0  0  0  0  0  0  0
    5.6072   -6.4044    4.1290 H   0  0  0  0  0  0  0  0  0  0  0  0
    4.0138   -6.5149    2.2432 H   0  0  0  0  0  0  0  0  0  0  0  0
    2.8659   -4.4378    4.0446 H   0  0  0  0  0  0  0  0  0  0  0  0
    5.4999   -4.4112    2.4617 H   0  0  0  0  0  0  0  0  0  0  0  0
    5.3174   -4.0929    4.1731 H   0  0  0  0  0  0  0  0  0  0  0  0
    4.7022   -2.9418    3.0000 H   0  0  0  0  0  0  0  0  0  0  0  0
    2.0191   -3.5476    2.0773 H   0  0  0  0  0  0  0  0  0  0  0  0
    2.4058   -4.4166   -0.7951 H   0  0  0  0  0  0  0  0  0  0  0  0
    2.2137   -2.8089   -0.0813 H   0  0  0  0  0  0  0  0  0  0  0  0
    4.6853   -3.8764   -1.4990 H   0  0  0  0  0  0  0  0  0  0  0  0
    3.5567   -2.7671   -2.2157 H   0  0  0  0  0  0  0  0  0  0  0  0
    0.8394   -5.3349    3.1910 H   0  0  0  0  0  0  0  0  0  0  0  0
   -2.1874   -6.6383    3.7190 H   0  0  0  0  0  0  0  0  0  0  0  0
   -2.2225   -8.3447    4.1484 H   0  0  0  0  0  0  0  0  0  0  0  0
   -2.3501   -7.8641    2.4598 H   0  0  0  0  0  0  0  0  0  0  0  0
   -0.0452   -9.8134    3.6943 H   0  0  0  0  0  0  0  0  0  0  0  0
   -0.6855   -9.5011    2.1072 H   0  0  0  0  0  0  0  0  0  0  0  0
    1.5471  -10.2473    2.0278 H   0  0  0  0  0  0  0  0  0  0  0  0
    1.4095   -8.6962    1.2329 H   0  0  0  0  0  0  0  0  0  0  0  0
    2.2214   -9.0169    4.1072 H   0  0  0  0  0  0  0  0  0  0  0  0
  1  2  1  0
  1 30  1  0
  1 31  1  0
  1 32  1  0
  2 26  1  0
  2  3  1  0
  2 33  1  6
  3  4  1  0
  3 34  1  0
  3 35  1  0
  4  5  1  0
  4 36  1  0
  4 37  1  0
  5 27  1  0
  5  6  1  0
  5 38  1  6
  6  7  1  0
  6  8  1  0
  6 39  1  1
  7 40  1  0
  7 41  1  0
  7 42  1  0
  8  9  1  0
  8 19  1  0
  8 43  1  1
  9 10  1  0
 10 11  1  0
 10 44  1  0
 10 45  1  0
 11 12  1  0
 11 46  1  0
 11 47  1  0
 12 13  1  0
 13 14  1  0
 13 18  2  0
 14 15  1  0
 15 16  2  0
 15 17  1  0
 17 18  1  0
 19 20  1  0
 20 27  1  0
 20 21  1  0
 20 48  1  1
 21 22  1  0
 22 29  1  0
 22 23  1  1
 22 24  1  0
 23 49  1  0
 23 50  1  0
 23 51  1  0
 24 25  1  0
 24 52  1  0
 24 53  1  0
 25 26  1  0
 25 54  1  0
 25 55  1  0
 26 27  1  0
 26 56  1  1
 27 28  1  1
 28 29  1  0
M  CHG  1  14  -1
M  END
>  <i_m_ct_stereo_status>  (73) 
1

>  <s_m_source_file>  (73) 
/var/tmp/pbs.5076255.sched01/tmp5vb4dkz1/0x5hafel7.sdf

>  <i_m_source_file_index>  (73) 
28

>  <i_lp_mmshare_version>  (73) 
48012

>  <i_f3d_flags>  (73) 
0

>  <s_epik_input>  (73) 
W0NAXTEyM1tDQEBIXTRbQ0gyXVtDSDJdW0NAQEhdKFtDSDNdKVtDQEBIXTJbQ0gyXVtDSDJdW0NAQF0oW0NIM10pKE9PMylPW0NAQEhdMU9bQ0BASF0oW0NAQEhdNFtDSDNdKU9bQ0gyXVtDSDJdU2M1bmMoPU8pb1tuSF01

>  <s_epik_cmdline>  (73) 
J2VwaWtfcHl0aG9uJywgJy1waHQnLCAnMi4wJywgJy1waCcsICc3LjAnLCAnLXRuJywgJzgnLCAnLW1hJywgJzIwMCcsICctaW1hZScsICc8aW5maWxlLm1hZT4nLCAnLW9tYWUnLCAnPG91dGZpbGUubWFlPic=

>  <r_lp_tautomer_probability>  (73) 
1

>  <r_epik_Ionization_Penalty>  (73) 
4.21855e-05

>  <r_epik_Ionization_Penalty_Charging>  (73) 
1.83067e-09

>  <r_epik_Ionization_Penalty_Neutral>  (73) 
4.21837e-05

>  <r_epik_State_Penalty>  (73) 
-0

>  <r_epik_Charging_Adjusted_Penalty>  (73) 
1.83067e-09

>  <i_epik_Tot_Q>  (73) 
-1

>  <i_epik_Tot_abs_Q>  (73) 
1

>  <s_epik_Chemistry_Notes>  (73) 
This compound contains an acetal/aminal-like group ( X-CH(R)-Y where X, Y are N, S, or O) that may be acid/base labile, releasing an aldehyde.

>  <s_lp_Force_Field>  (73) 
OPLS3e

>  <r_lp_Energy>  (73) 
48.82

>  <b_lp_Chiralities_Consistent>  (73) 
1

>  <s_lp_Variant>  (73) 
15:0-1

>  <s_i_glide_gridfile>  (73) 
pfpi4k_grid

>  <i_i_glide_lignum>  (73) 
28

>  <i_i_glide_rotatable_bonds>  (73) 
5

>  <r_i_docking_score>  (73) 
-2.89523

>  <r_i_glide_ligand_efficiency>  (73) 
-0.0998357

>  <r_i_glide_ligand_efficiency_sa>  (73) 
-0.306727

>  <r_i_glide_ligand_efficiency_ln>  (73) 
-0.662935

>  <r_i_glide_gscore>  (73) 
-2.89523

>  <r_i_glide_lipo>  (73) 
-0.265036

>  <r_i_glide_hbond>  (73) 
-0.25808

>  <r_i_glide_metal>  (73) 
-0

>  <r_i_glide_rewards>  (73) 
-0.494367

>  <r_i_glide_evdw>  (73) 
-28.6526

>  <r_i_glide_ecoul>  (73) 
-4.77188

>  <r_i_glide_erotb>  (73) 
0.434591

>  <r_i_glide_esite>  (73) 
-0.163931

>  <r_i_glide_emodel>  (73) 
-38.5281

>  <r_i_glide_energy>  (73) 
-33.4245

>  <r_i_glide_einternal>  (73) 
3.39771

>  <r_i_glide_intrahb_reward>  (73) 
-0

>  <i_i_glide_confnum>  (73) 
5

>  <i_i_glide_posenum>  (73) 
1

>  <r_i_glide_eff_state_penalty>  (73) 
0

>  <ligand_id>  (73) 
15

>  <original_smiles>  (73) 
CC1CCC2C(C)C(OCCSc3nc(=O)o[nH]3)OC3OC4(C)CCC1C32OO4

>  <smiles>  (73) 
[H]C([H])([H])C12OOC34C([H])(OC([H])(OC([H])([H])C([H])([H])Sc5noc(=O)[n-]5)C([H])(C([H])([H])[H])C3([H])C([H])([H])C([H])([H])C([H])(C([H])([H])[H])C4([H])C([H])([H])C1([H])[H])O2

$$$$
15:0:1
     RDKit          3D

 56 60  0  0  1  0  0  0  0  0999 V2000
    4.1516   -9.6857    1.8388 C   0  0  0  0  0  0  0  0  0  0  0  0
    3.8743   -8.2826    2.4120 C   0  0  2  0  0  0  0  0  0  0  0  0
    4.8527   -8.0251    3.5865 C   0  0  0  0  0  0  0  0  0  0  0  0
    4.5773   -6.7411    4.3935 C   0  0  0  0  0  0  0  0  0  0  0  0
    3.4450   -5.9214    3.7575 C   0  0  2  0  0  0  0  0  0  0  0  0
    3.1925   -4.5059    4.3010 C   0  0  1  0  0  0  0  0  0  0  0  0
    4.4901   -3.6910    4.5307 C   0  0  0  0  0  0  0  0  0  0  0  0
    2.2549   -3.7800    3.2749 C   0  0  1  0  0  0  0  0  0  0  0  0
    3.0391   -3.0438    2.3900 O   0  0  0  0  0  0  0  0  0  0  0  0
    2.4504   -1.8278    1.9524 C   0  0  0  0  0  0  0  0  0  0  0  0
    3.1768   -1.3104    0.7122 C   0  0  0  0  0  0  0  0  0  0  0  0
    4.9854   -1.1877    0.9724 S   0  0  0  0  0  0  0  0  0  0  0  0
    5.6638   -1.9838   -0.5134 C   0  0  0  0  0  0  0  0  0  0  0  0
    4.9117   -2.3270   -1.5704 N   0  0  0  0  0  0  0  0  0  0  0  0
    5.7018   -2.9511   -2.3924 C   0  0  0  0  0  0  0  0  0  0  0  0
    5.4627   -3.4780   -3.4802 O   0  0  0  0  0  0  0  0  0  0  0  0
    6.9769   -2.9077   -1.8839 O   0  0  0  0  0  0  0  0  0  0  0  0
    6.8926   -2.2583   -0.6325 N   0  0  0  0  0  0  0  0  0  0  0  0
    1.4774   -4.7042    2.5353 O   0  0  0  0  0  0  0  0  0  0  0  0
    0.9961   -5.7580    3.3099 C   0  0  1  0  0  0  0  0  0  0  0  0
   -0.1392   -6.3832    2.8237 O   0  0  0  0  0  0  0  0  0  0  0  0
   -0.3960   -7.6170    3.4907 C   0  0  1  0  0  0  0  0  0  0  0  0
   -1.9113   -7.7076    3.7049 C   0  0  0  0  0  0  0  0  0  0  0  0
    0.0206   -8.7304    2.5234 C   0  0  0  0  0  0  0  0  0  0  0  0
    1.3375   -8.4222    1.8322 C   0  0  0  0  0  0  0  0  0  0  0  0
    2.3980   -8.0851    2.8757 C   0  0  2  0  0  0  0  0  0  0  0  0
    2.1349   -6.7559    3.6961 C   0  0  1  0  0  0  0  0  0  0  0  0
    1.6598   -7.2183    4.9466 O   0  0  0  0  0  0  0  0  0  0  0  0
    0.2013   -7.7467    4.8154 O   0  0  0  0  0  0  0  0  0  0  0  0
    3.8424  -10.4607    2.5405 H   0  0  0  0  0  0  0  0  0  0  0  0
    5.2092   -9.8396    1.6260 H   0  0  0  0  0  0  0  0  0  0  0  0
    3.6335   -9.8527    0.8975 H   0  0  0  0  0  0  0  0  0  0  0  0
    4.0838   -7.5627    1.6195 H   0  0  0  0  0  0  0  0  0  0  0  0
    4.8336   -8.8697    4.2761 H   0  0  0  0  0  0  0  0  0  0  0  0
    5.8722   -7.9826    3.1984 H   0  0  0  0  0  0  0  0  0  0  0  0
    4.3280   -6.9901    5.4274 H   0  0  0  0  0  0  0  0  0  0  0  0
    5.5073   -6.1725    4.4358 H   0  0  0  0  0  0  0  0  0  0  0  0
    3.7734   -5.7240    2.7336 H   0  0  0  0  0  0  0  0  0  0  0  0
    2.6514   -4.5801    5.2471 H   0  0  0  0  0  0  0  0  0  0  0  0
    5.1299   -3.7290    3.6456 H   0  0  0  0  0  0  0  0  0  0  0  0
    5.0724   -4.0829    5.3623 H   0  0  0  0  0  0  0  0  0  0  0  0
    4.2834   -2.6401    4.7409 H   0  0  0  0  0  0  0  0  0  0  0  0
    1.5802   -3.1180    3.8213 H   0  0  0  0  0  0  0  0  0  0  0  0
    1.4108   -1.9921    1.6737 H   0  0  0  0  0  0  0  0  0  0  0  0
    2.4734   -1.0897    2.7563 H   0  0  0  0  0  0  0  0  0  0  0  0
    2.9153   -2.0063   -0.0837 H   0  0  0  0  0  0  0  0  0  0  0  0
    2.7969   -0.3347    0.4045 H   0  0  0  0  0  0  0  0  0  0  0  0
    0.6053   -5.2813    4.2138 H   0  0  0  0  0  0  0  0  0  0  0  0
   -2.2654   -6.9171    4.3642 H   0  0  0  0  0  0  0  0  0  0  0  0
   -2.1757   -8.6661    4.1538 H   0  0  0  0  0  0  0  0  0  0  0  0
   -2.4520   -7.6332    2.7595 H   0  0  0  0  0  0  0  0  0  0  0  0
    0.0742   -9.6842    3.0510 H   0  0  0  0  0  0  0  0  0  0  0  0
   -0.7225   -8.8652    1.7364 H   0  0  0  0  0  0  0  0  0  0  0  0
    1.5613   -9.3265    1.2813 H   0  0  0  0  0  0  0  0  0  0  0  0
    1.2426   -7.6216    1.0967 H   0  0  0  0  0  0  0  0  0  0  0  0
    2.3093   -8.8894    3.6091 H   0  0  0  0  0  0  0  0  0  0  0  0
  1  2  1  0
  1 30  1  0
  1 31  1  0
  1 32  1  0
  2 26  1  0
  2  3  1  0
  2 33  1  6
  3  4  1  0
  3 34  1  0
  3 35  1  0
  4  5  1  0
  4 36  1  0
  4 37  1  0
  5 27  1  0
  5  6  1  0
  5 38  1  6
  6  7  1  0
  6  8  1  0
  6 39  1  1
  7 40  1  0
  7 41  1  0
  7 42  1  0
  8  9  1  0
  8 19  1  0
  8 43  1  1
  9 10  1  0
 10 11  1  0
 10 44  1  0
 10 45  1  0
 11 12  1  0
 11 46  1  0
 11 47  1  0
 12 13  1  0
 13 14  1  0
 13 18  2  0
 14 15  1  0
 15 16  2  0
 15 17  1  0
 17 18  1  0
 19 20  1  0
 20 27  1  0
 20 21  1  0
 20 48  1  1
 21 22  1  0
 22 29  1  0
 22 23  1  1
 22 24  1  0
 23 49  1  0
 23 50  1  0
 23 51  1  0
 24 25  1  0
 24 52  1  0
 24 53  1  0
 25 26  1  0
 25 54  1  0
 25 55  1  0
 26 27  1  0
 26 56  1  1
 27 28  1  1
 28 29  1  0
M  CHG  1  14  -1
M  END
>  <i_m_ct_stereo_status>  (74) 
1

>  <s_m_source_file>  (74) 
/var/tmp/pbs.5076255.sched01/tmp5vb4dkz1/0x5hafel7.sdf

>  <i_m_source_file_index>  (74) 
28

>  <i_lp_mmshare_version>  (74) 
48012

>  <i_f3d_flags>  (74) 
0

>  <s_epik_input>  (74) 
W0NAXTEyM1tDQEBIXTRbQ0gyXVtDSDJdW0NAQEhdKFtDSDNdKVtDQEBIXTJbQ0gyXVtDSDJdW0NAQF0oW0NIM10pKE9PMylPW0NAQEhdMU9bQ0BASF0oW0NAQEhdNFtDSDNdKU9bQ0gyXVtDSDJdU2M1bmMoPU8pb1tuSF01

>  <s_epik_cmdline>  (74) 
J2VwaWtfcHl0aG9uJywgJy1waHQnLCAnMi4wJywgJy1waCcsICc3LjAnLCAnLXRuJywgJzgnLCAnLW1hJywgJzIwMCcsICctaW1hZScsICc8aW5maWxlLm1hZT4nLCAnLW9tYWUnLCAnPG91dGZpbGUubWFlPic=

>  <r_lp_tautomer_probability>  (74) 
1

>  <r_epik_Ionization_Penalty>  (74) 
4.21855e-05

>  <r_epik_Ionization_Penalty_Charging>  (74) 
1.83067e-09

>  <r_epik_Ionization_Penalty_Neutral>  (74) 
4.21837e-05

>  <r_epik_State_Penalty>  (74) 
-0

>  <r_epik_Charging_Adjusted_Penalty>  (74) 
1.83067e-09

>  <i_epik_Tot_Q>  (74) 
-1

>  <i_epik_Tot_abs_Q>  (74) 
1

>  <s_epik_Chemistry_Notes>  (74) 
This compound contains an acetal/aminal-like group ( X-CH(R)-Y where X, Y are N, S, or O) that may be acid/base labile, releasing an aldehyde.

>  <s_lp_Force_Field>  (74) 
OPLS3e

>  <r_lp_Energy>  (74) 
48.82

>  <b_lp_Chiralities_Consistent>  (74) 
1

>  <s_lp_Variant>  (74) 
15:0-1

>  <s_i_glide_gridfile>  (74) 
pfpi4k_grid

>  <i_i_glide_lignum>  (74) 
28

>  <i_i_glide_rotatable_bonds>  (74) 
5

>  <r_i_docking_score>  (74) 
-2.51069

>  <r_i_glide_ligand_efficiency>  (74) 
-0.0865755

>  <r_i_glide_ligand_efficiency_sa>  (74) 
-0.265987

>  <r_i_glide_ligand_efficiency_ln>  (74) 
-0.574884

>  <r_i_glide_gscore>  (74) 
-2.51069

>  <r_i_glide_lipo>  (74) 
-0.241731

>  <r_i_glide_hbond>  (74) 
-0.157631

>  <r_i_glide_metal>  (74) 
-0

>  <r_i_glide_rewards>  (74) 
-0.494367

>  <r_i_glide_evdw>  (74) 
-27.4588

>  <r_i_glide_ecoul>  (74) 
-3.27006

>  <r_i_glide_erotb>  (74) 
0.434591

>  <r_i_glide_esite>  (74) 
-0.1881

>  <r_i_glide_emodel>  (74) 
-34.389

>  <r_i_glide_energy>  (74) 
-30.7289

>  <r_i_glide_einternal>  (74) 
4.56071

>  <r_i_glide_intrahb_reward>  (74) 
-0

>  <i_i_glide_confnum>  (74) 
5

>  <i_i_glide_posenum>  (74) 
27

>  <r_i_glide_eff_state_penalty>  (74) 
0

>  <ligand_id>  (74) 
15

>  <original_smiles>  (74) 
CC1CCC2C(C)C(OCCSc3nc(=O)o[nH]3)OC3OC4(C)CCC1C32OO4

>  <smiles>  (74) 
[H]C([H])([H])C12OOC34C([H])(OC([H])(OC([H])([H])C([H])([H])Sc5noc(=O)[n-]5)C([H])(C([H])([H])[H])C3([H])C([H])([H])C([H])([H])C([H])(C([H])([H])[H])C4([H])C([H])([H])C1([H])[H])O2

$$$$
15:0:2
     RDKit          3D

 56 60  0  0  1  0  0  0  0  0999 V2000
    5.6280   -2.2711    5.9519 C   0  0  0  0  0  0  0  0  0  0  0  0
    4.1757   -2.0650    5.4849 C   0  0  2  0  0  0  0  0  0  0  0  0
    3.3267   -3.2669    5.9680 C   0  0  0  0  0  0  0  0  0  0  0  0
    1.8876   -3.3000    5.4208 C   0  0  0  0  0  0  0  0  0  0  0  0
    1.5768   -2.0362    4.6024 C   0  0  2  0  0  0  0  0  0  0  0  0
    0.1266   -1.8015    4.1711 C   0  0  1  0  0  0  0  0  0  0  0  0
   -0.9026   -2.0715    5.2937 C   0  0  0  0  0  0  0  0  0  0  0  0
    0.0371   -0.3061    3.6883 C   0  0  1  0  0  0  0  0  0  0  0  0
   -0.4027    0.4776    4.7501 O   0  0  0  0  0  0  0  0  0  0  0  0
   -0.9401    1.7276    4.3534 C   0  0  0  0  0  0  0  0  0  0  0  0
   -1.1970    2.5930    5.5917 C   0  0  0  0  0  0  0  0  0  0  0  0
   -2.1902    1.7482    6.8622 S   0  0  0  0  0  0  0  0  0  0  0  0
   -2.4245    3.0581    8.0696 C   0  0  0  0  0  0  0  0  0  0  0  0
   -1.9680    4.3035    7.8651 N   0  0  0  0  0  0  0  0  0  0  0  0
   -2.3391    5.0076    8.9160 C   0  0  0  0  0  0  0  0  0  0  0  0
   -2.2005    6.1972    9.1895 O   0  0  0  0  0  0  0  0  0  0  0  0
   -2.9856    4.1771    9.7596 O   0  0  0  0  0  0  0  0  0  0  0  0
   -3.0251    2.9052    9.1559 N   0  0  0  0  0  0  0  0  0  0  0  0
    1.2868    0.1709    3.2327 O   0  0  0  0  0  0  0  0  0  0  0  0
    1.9913   -0.7711    2.4841 C   0  0  1  0  0  0  0  0  0  0  0  0
    2.9340   -0.2604    1.6174 O   0  0  0  0  0  0  0  0  0  0  0  0
    3.8093   -1.2688    1.1240 C   0  0  1  0  0  0  0  0  0  0  0  0
    4.0448   -0.9887   -0.3643 C   0  0  0  0  0  0  0  0  0  0  0  0
    5.1415   -1.0672    1.8606 C   0  0  0  0  0  0  0  0  0  0  0  0
    4.9420   -0.7861    3.3431 C   0  0  0  0  0  0  0  0  0  0  0  0
    4.0481   -1.8745    3.9442 C   0  0  2  0  0  0  0  0  0  0  0  0
    2.5581   -1.9055    3.4007 C   0  0  1  0  0  0  0  0  0  0  0  0
    2.5468   -3.0019    2.5042 O   0  0  0  0  0  0  0  0  0  0  0  0
    3.3130   -2.6395    1.1999 O   0  0  0  0  0  0  0  0  0  0  0  0
    6.1000   -3.0899    5.4079 H   0  0  0  0  0  0  0  0  0  0  0  0
    5.6886   -2.5154    7.0130 H   0  0  0  0  0  0  0  0  0  0  0  0
    6.2242   -1.3740    5.8011 H   0  0  0  0  0  0  0  0  0  0  0  0
    3.8173   -1.1598    5.9758 H   0  0  0  0  0  0  0  0  0  0  0  0
    3.8191   -4.2015    5.6957 H   0  0  0  0  0  0  0  0  0  0  0  0
    3.2872   -3.2584    7.0590 H   0  0  0  0  0  0  0  0  0  0  0  0
    1.7392   -4.1906    4.8065 H   0  0  0  0  0  0  0  0  0  0  0  0
    1.2109   -3.3991    6.2701 H   0  0  0  0  0  0  0  0  0  0  0  0
    1.7615   -1.2008    5.2827 H   0  0  0  0  0  0  0  0  0  0  0  0
   -0.0947   -2.4463    3.3239 H   0  0  0  0  0  0  0  0  0  0  0  0
   -0.6144   -1.5598    6.2157 H   0  0  0  0  0  0  0  0  0  0  0  0
   -0.9732   -3.1297    5.5332 H   0  0  0  0  0  0  0  0  0  0  0  0
   -1.9016   -1.7256    5.0320 H   0  0  0  0  0  0  0  0  0  0  0  0
   -0.6843   -0.2317    2.8723 H   0  0  0  0  0  0  0  0  0  0  0  0
   -0.2396    2.2546    3.7049 H   0  0  0  0  0  0  0  0  0  0  0  0
   -1.8637    1.5852    3.7911 H   0  0  0  0  0  0  0  0  0  0  0  0
   -0.2503    2.8949    6.0462 H   0  0  0  0  0  0  0  0  0  0  0  0
   -1.7178    3.5017    5.2925 H   0  0  0  0  0  0  0  0  0  0  0  0
    1.2595   -1.1860    1.7804 H   0  0  0  0  0  0  0  0  0  0  0  0
    3.1241   -1.0718   -0.9395 H   0  0  0  0  0  0  0  0  0  0  0  0
    4.7706   -1.6869   -0.7831 H   0  0  0  0  0  0  0  0  0  0  0  0
    4.4401    0.0168   -0.5113 H   0  0  0  0  0  0  0  0  0  0  0  0
    5.7809   -1.9393    1.7170 H   0  0  0  0  0  0  0  0  0  0  0  0
    5.6926   -0.2189    1.4520 H   0  0  0  0  0  0  0  0  0  0  0  0
    5.9408   -0.7665    3.7721 H   0  0  0  0  0  0  0  0  0  0  0  0
    4.5093    0.2035    3.5157 H   0  0  0  0  0  0  0  0  0  0  0  0
    4.4956   -2.8054    3.5905 H   0  0  0  0  0  0  0  0  0  0  0  0
  1  2  1  0
  1 30  1  0
  1 31  1  0
  1 32  1  0
  2 26  1  0
  2  3  1  0
  2 33  1  1
  3  4  1  0
  3 34  1  0
  3 35  1  0
  4  5  1  0
  4 36  1  0
  4 37  1  0
  5 27  1  0
  5  6  1  0
  5 38  1  1
  6  7  1  0
  6  8  1  0
  6 39  1  6
  7 40  1  0
  7 41  1  0
  7 42  1  0
  8  9  1  0
  8 19  1  0
  8 43  1  6
  9 10  1  0
 10 11  1  0
 10 44  1  0
 10 45  1  0
 11 12  1  0
 11 46  1  0
 11 47  1  0
 12 13  1  0
 13 14  1  0
 13 18  2  0
 14 15  1  0
 15 16  2  0
 15 17  1  0
 17 18  1  0
 19 20  1  0
 20 27  1  0
 20 21  1  0
 20 48  1  6
 21 22  1  0
 22 29  1  0
 22 23  1  6
 22 24  1  0
 23 49  1  0
 23 50  1  0
 23 51  1  0
 24 25  1  0
 24 52  1  0
 24 53  1  0
 25 26  1  0
 25 54  1  0
 25 55  1  0
 26 27  1  0
 26 56  1  6
 27 28  1  6
 28 29  1  0
M  CHG  1  14  -1
M  END
>  <i_m_ct_stereo_status>  (75) 
1

>  <s_m_source_file>  (75) 
/var/tmp/pbs.5076255.sched01/tmp5vb4dkz1/0x5hafel7.sdf

>  <i_m_source_file_index>  (75) 
28

>  <i_lp_mmshare_version>  (75) 
48012

>  <i_f3d_flags>  (75) 
0

>  <s_epik_input>  (75) 
W0NAXTEyM1tDQEBIXTRbQ0gyXVtDSDJdW0NAQEhdKFtDSDNdKVtDQEBIXTJbQ0gyXVtDSDJdW0NAQF0oW0NIM10pKE9PMylPW0NAQEhdMU9bQ0BASF0oW0NAQEhdNFtDSDNdKU9bQ0gyXVtDSDJdU2M1bmMoPU8pb1tuSF01

>  <s_epik_cmdline>  (75) 
J2VwaWtfcHl0aG9uJywgJy1waHQnLCAnMi4wJywgJy1waCcsICc3LjAnLCAnLXRuJywgJzgnLCAnLW1hJywgJzIwMCcsICctaW1hZScsICc8aW5maWxlLm1hZT4nLCAnLW9tYWUnLCAnPG91dGZpbGUubWFlPic=

>  <r_lp_tautomer_probability>  (75) 
1

>  <r_epik_Ionization_Penalty>  (75) 
4.21855e-05

>  <r_epik_Ionization_Penalty_Charging>  (75) 
1.83067e-09

>  <r_epik_Ionization_Penalty_Neutral>  (75) 
4.21837e-05

>  <r_epik_State_Penalty>  (75) 
-0

>  <r_epik_Charging_Adjusted_Penalty>  (75) 
1.83067e-09

>  <i_epik_Tot_Q>  (75) 
-1

>  <i_epik_Tot_abs_Q>  (75) 
1

>  <s_epik_Chemistry_Notes>  (75) 
This compound contains an acetal/aminal-like group ( X-CH(R)-Y where X, Y are N, S, or O) that may be acid/base labile, releasing an aldehyde.

>  <s_lp_Force_Field>  (75) 
OPLS3e

>  <r_lp_Energy>  (75) 
48.82

>  <b_lp_Chiralities_Consistent>  (75) 
1

>  <s_lp_Variant>  (75) 
15:0-1

>  <s_i_glide_gridfile>  (75) 
pfpi4k_grid

>  <i_i_glide_lignum>  (75) 
28

>  <i_i_glide_rotatable_bonds>  (75) 
5

>  <r_i_docking_score>  (75) 
-2.07069

>  <r_i_glide_ligand_efficiency>  (75) 
-0.0714031

>  <r_i_glide_ligand_efficiency_sa>  (75) 
-0.219373

>  <r_i_glide_ligand_efficiency_ln>  (75) 
-0.474136

>  <r_i_glide_gscore>  (75) 
-2.07069

>  <r_i_glide_lipo>  (75) 
-0.267406

>  <r_i_glide_hbond>  (75) 
0

>  <r_i_glide_metal>  (75) 
-0

>  <r_i_glide_rewards>  (75) 
-0.58401

>  <r_i_glide_evdw>  (75) 
-25.0909

>  <r_i_glide_ecoul>  (75) 
-2.01004

>  <r_i_glide_erotb>  (75) 
0.434591

>  <r_i_glide_esite>  (75) 
-0.0978128

>  <r_i_glide_emodel>  (75) 
-30.7981

>  <r_i_glide_energy>  (75) 
-27.101

>  <r_i_glide_einternal>  (75) 
2.33834

>  <r_i_glide_intrahb_reward>  (75) 
-0

>  <i_i_glide_confnum>  (75) 
5

>  <i_i_glide_posenum>  (75) 
7

>  <r_i_glide_eff_state_penalty>  (75) 
0

>  <ligand_id>  (75) 
15

>  <original_smiles>  (75) 
CC1CCC2C(C)C(OCCSc3nc(=O)o[nH]3)OC3OC4(C)CCC1C32OO4

>  <smiles>  (75) 
[H]C([H])([H])C12OOC34C([H])(OC([H])(OC([H])([H])C([H])([H])Sc5noc(=O)[n-]5)C([H])(C([H])([H])[H])C3([H])C([H])([H])C([H])([H])C([H])(C([H])([H])[H])C4([H])C([H])([H])C1([H])[H])O2

$$$$
16:0:0
     RDKit          3D

 80 85  0  0  1  0  0  0  0  0999 V2000
    4.2113   -1.9683   -1.9061 C   0  0  0  0  0  0  0  0  0  0  0  0
    4.5773   -1.3104   -0.5703 C   0  0  2  0  0  0  0  0  0  0  0  0
    5.9297   -1.7968   -0.0437 C   0  0  0  0  0  0  0  0  0  0  0  0
    6.2522   -1.0611    1.2630 C   0  0  0  0  0  0  0  0  0  0  0  0
    5.1762   -1.2232    2.3692 C   0  0  1  0  0  0  0  0  0  0  0  0
    5.1659   -2.7090    2.8251 C   0  0  0  0  0  0  0  0  0  0  0  0
    5.5259   -0.3027    3.5658 C   0  0  0  0  0  0  0  0  0  0  0  0
    4.4606   -0.3019    4.6759 C   0  0  0  0  0  0  0  0  0  0  0  0
    3.0469    0.1005    4.1796 C   0  0  2  0  0  0  0  0  0  0  0  0
    3.0656    1.6185    3.8652 C   0  0  0  0  0  0  0  0  0  0  0  0
    1.9671   -0.0976    5.2729 C   0  0  0  0  0  0  0  0  0  0  0  0
    2.2637   -0.3693    6.5652 C   0  0  0  0  0  0  0  0  0  0  0  0
    1.2515   -0.4357    7.6817 C   0  0  0  0  0  0  0  0  0  0  0  0
   -0.0862    0.2569    7.3387 C   0  0  2  0  0  0  0  0  0  0  0  0
   -0.5616   -0.1924    5.9162 C   0  0  1  0  0  0  0  0  0  0  0  0
   -0.8650   -1.7201    5.9668 C   0  0  0  0  0  0  0  0  0  0  0  0
   -1.8972    0.5127    5.6060 C   0  0  0  0  0  0  0  0  0  0  0  0
   -1.8785    2.0414    5.8051 C   0  0  0  0  0  0  0  0  0  0  0  0
   -1.5327    2.3764    7.2728 C   0  0  0  0  0  0  0  0  0  0  0  0
   -2.5230    1.8291    8.0861 O   0  0  0  0  0  0  0  0  0  0  0  0
   -3.3877    2.8898    8.4433 C   0  0  0  0  0  0  0  0  0  0  0  0
   -2.4643    4.0877    8.4591 C   0  0  0  0  0  0  0  0  0  0  0  0
   -1.5630    3.7707    7.4138 O   0  0  0  0  0  0  0  0  0  0  0  0
   -0.1373    1.7969    7.6928 C   0  0  0  0  0  0  0  0  0  0  0  0
    0.0218    1.9776    9.2268 C   0  0  0  0  0  0  0  0  0  0  0  0
    0.9743    2.6350    7.0213 C   0  0  0  0  0  0  0  0  0  0  0  0
    0.5169    0.0982    4.8116 C   0  0  2  0  0  0  0  0  0  0  0  0
    0.2518   -0.6519    3.4928 C   0  0  0  0  0  0  0  0  0  0  0  0
    1.3012   -0.4165    2.4051 C   0  0  0  0  0  0  0  0  0  0  0  0
    2.7044   -0.7712    2.9173 C   0  0  1  0  0  0  0  0  0  0  0  0
    3.8147   -0.7420    1.8128 C   0  0  2  0  0  0  0  0  0  0  0  0
    3.4993   -1.4925    0.5059 C   0  0  0  0  0  0  0  0  0  0  0  0
    4.0960   -3.0487   -1.8053 H   0  0  0  0  0  0  0  0  0  0  0  0
    4.9739   -1.7733   -2.6636 H   0  0  0  0  0  0  0  0  0  0  0  0
    3.2711   -1.5615   -2.2788 H   0  0  0  0  0  0  0  0  0  0  0  0
    4.6633   -0.2452   -0.7704 H   0  0  0  0  0  0  0  0  0  0  0  0
    5.9228   -2.8800    0.0998 H   0  0  0  0  0  0  0  0  0  0  0  0
    6.7152   -1.5886   -0.7740 H   0  0  0  0  0  0  0  0  0  0  0  0
    7.2303   -1.3808    1.6243 H   0  0  0  0  0  0  0  0  0  0  0  0
    6.3225   -0.0082    0.9994 H   0  0  0  0  0  0  0  0  0  0  0  0
    4.4741   -2.9087    3.6433 H   0  0  0  0  0  0  0  0  0  0  0  0
    6.1564   -3.0034    3.1668 H   0  0  0  0  0  0  0  0  0  0  0  0
    4.9056   -3.3973    2.0220 H   0  0  0  0  0  0  0  0  0  0  0  0
    6.4772   -0.5880    3.9907 H   0  0  0  0  0  0  0  0  0  0  0  0
    5.6910    0.7195    3.2394 H   0  0  0  0  0  0  0  0  0  0  0  0
    4.4274   -1.2902    5.1329 H   0  0  0  0  0  0  0  0  0  0  0  0
    4.7915    0.3818    5.4585 H   0  0  0  0  0  0  0  0  0  0  0  0
    3.8019    1.8555    3.1097 H   0  0  0  0  0  0  0  0  0  0  0  0
    3.3287    2.1931    4.7531 H   0  0  0  0  0  0  0  0  0  0  0  0
    2.1102    2.0155    3.5233 H   0  0  0  0  0  0  0  0  0  0  0  0
    3.2772   -0.4977    6.8964 H   0  0  0  0  0  0  0  0  0  0  0  0
    1.0877   -1.4850    7.9202 H   0  0  0  0  0  0  0  0  0  0  0  0
    1.7055    0.0005    8.5649 H   0  0  0  0  0  0  0  0  0  0  0  0
   -0.8035   -0.1771    8.0355 H   0  0  0  0  0  0  0  0  0  0  0  0
   -1.4453   -2.0485    5.1016 H   0  0  0  0  0  0  0  0  0  0  0  0
   -1.4252   -2.0039    6.8516 H   0  0  0  0  0  0  0  0  0  0  0  0
    0.0433   -2.3216    5.9985 H   0  0  0  0  0  0  0  0  0  0  0  0
   -2.2182    0.2924    4.5888 H   0  0  0  0  0  0  0  0  0  0  0  0
   -2.6839    0.0953    6.2340 H   0  0  0  0  0  0  0  0  0  0  0  0
   -1.1842    2.5313    5.1189 H   0  0  0  0  0  0  0  0  0  0  0  0
   -2.8631    2.4596    5.5789 H   0  0  0  0  0  0  0  0  0  0  0  0
   -4.1729    2.9587    7.6918 H   0  0  0  0  0  0  0  0  0  0  0  0
   -3.8561    2.7041    9.4070 H   0  0  0  0  0  0  0  0  0  0  0  0
   -2.9749    5.0381    8.3078 H   0  0  0  0  0  0  0  0  0  0  0  0
   -1.9446    4.1387    9.4135 H   0  0  0  0  0  0  0  0  0  0  0  0
   -0.1061    3.0167    9.5259 H   0  0  0  0  0  0  0  0  0  0  0  0
    1.0186    1.7078    9.5794 H   0  0  0  0  0  0  0  0  0  0  0  0
   -0.6953    1.3735    9.7894 H   0  0  0  0  0  0  0  0  0  0  0  0
    0.9234    3.6737    7.3447 H   0  0  0  0  0  0  0  0  0  0  0  0
    0.9189    2.6496    5.9368 H   0  0  0  0  0  0  0  0  0  0  0  0
    1.9674    2.2780    7.2964 H   0  0  0  0  0  0  0  0  0  0  0  0
    0.4276    1.1429    4.5453 H   0  0  0  0  0  0  0  0  0  0  0  0
    0.2198   -1.7291    3.6547 H   0  0  0  0  0  0  0  0  0  0  0  0
   -0.7153   -0.3443    3.1029 H   0  0  0  0  0  0  0  0  0  0  0  0
    1.0393   -1.0662    1.5727 H   0  0  0  0  0  0  0  0  0  0  0  0
    1.2497    0.6047    2.0283 H   0  0  0  0  0  0  0  0  0  0  0  0
    2.6267   -1.8039    3.2566 H   0  0  0  0  0  0  0  0  0  0  0  0
    3.9382    0.2976    1.5221 H   0  0  0  0  0  0  0  0  0  0  0  0
    2.6128   -1.0583    0.0766 H   0  0  0  0  0  0  0  0  0  0  0  0
    3.3203   -2.5489    0.6892 H   0  0  0  0  0  0  0  0  0  0  0  0
  1  2  1  0
  1 33  1  0
  1 34  1  0
  1 35  1  0
  2 32  1  0
  2  3  1  0
  2 36  1  6
  3  4  1  0
  3 37  1  0
  3 38  1  0
  4  5  1  0
  4 39  1  0
  4 40  1  0
  5 31  1  0
  5  6  1  1
  5  7  1  0
  6 41  1  0
  6 42  1  0
  6 43  1  0
  7  8  1  0
  7 44  1  0
  7 45  1  0
  8  9  1  0
  8 46  1  0
  8 47  1  0
  9 30  1  0
  9 10  1  6
  9 11  1  0
 10 48  1  0
 10 49  1  0
 10 50  1  0
 11 27  1  0
 11 12  2  0
 12 13  1  0
 12 51  1  0
 13 14  1  0
 13 52  1  0
 13 53  1  0
 14 24  1  0
 14 15  1  0
 14 54  1  1
 15 16  1  1
 15 17  1  0
 15 27  1  0
 16 55  1  0
 16 56  1  0
 16 57  1  0
 17 18  1  0
 17 58  1  0
 17 59  1  0
 18 19  1  0
 18 60  1  0
 18 61  1  0
 19 23  1  0
 19 20  1  0
 19 24  1  0
 20 21  1  0
 21 22  1  0
 21 62  1  0
 21 63  1  0
 22 23  1  0
 22 64  1  0
 22 65  1  0
 24 25  1  0
 24 26  1  0
 25 66  1  0
 25 67  1  0
 25 68  1  0
 26 69  1  0
 26 70  1  0
 26 71  1  0
 27 28  1  0
 27 72  1  6
 28 29  1  0
 28 73  1  0
 28 74  1  0
 29 30  1  0
 29 75  1  0
 29 76  1  0
 30 31  1  0
 30 77  1  1
 31 32  1  0
 31 78  1  6
 32 79  1  0
 32 80  1  0
M  END
>  <i_m_ct_stereo_status>  (76) 
1

>  <s_m_source_file>  (76) 
/var/tmp/pbs.5076255.sched01/tmp5vb4dkz1/0x5hafel7.sdf

>  <i_m_source_file_index>  (76) 
29

>  <i_lp_mmshare_version>  (76) 
48012

>  <i_f3d_flags>  (76) 
0

>  <s_epik_input>  (76) 
W0NIM11bQ0BASF0oW0NIMl0xKVtDSDJdW0NIMl1bQ0BAXShbQ0gzXSkoW0NIMl1bQ0gyXTIpW0NAQEhdMVtDQEhdKFtDSDJdW0NIMl1bQ0BIXTM0KVtDQEBdMihbQ0gzXSlDMz1bQ0hdW0NIMl1bQ0BASF0oQzUoW0NIM10pW0NIM10pW0NAQF00KFtDSDNdKVtDSDJdW0NIMl1DNTZPW0NIMl1bQ0gyXU82

>  <s_epik_cmdline>  (76) 
J2VwaWtfcHl0aG9uJywgJy1waHQnLCAnMi4wJywgJy1waCcsICc3LjAnLCAnLXRuJywgJzgnLCAnLW1hJywgJzIwMCcsICctaW1hZScsICc8aW5maWxlLm1hZT4nLCAnLW9tYWUnLCAnPG91dGZpbGUubWFlPic=

>  <r_lp_tautomer_probability>  (76) 
1

>  <r_epik_Ionization_Penalty>  (76) 
5.85829e-13

>  <r_epik_Ionization_Penalty_Charging>  (76) 
0

>  <r_epik_Ionization_Penalty_Neutral>  (76) 
5.85829e-13

>  <r_epik_State_Penalty>  (76) 
-0

>  <r_epik_Charging_Adjusted_Penalty>  (76) 
0

>  <i_epik_Tot_Q>  (76) 
0

>  <i_epik_Tot_abs_Q>  (76) 
0

>  <s_lp_Force_Field>  (76) 
OPLS3e

>  <r_lp_Energy>  (76) 
63.6036

>  <b_lp_Chiralities_Consistent>  (76) 
1

>  <s_lp_Variant>  (76) 
16:0-1

>  <s_i_glide_gridfile>  (76) 
pfpi4k_grid

>  <i_i_glide_lignum>  (76) 
29

>  <i_i_glide_rotatable_bonds>  (76) 
0

>  <r_i_docking_score>  (76) 
-2.26828

>  <r_i_glide_ligand_efficiency>  (76) 
-0.0708837

>  <r_i_glide_ligand_efficiency_sa>  (76) 
-0.225042

>  <r_i_glide_ligand_efficiency_ln>  (76) 
-0.507929

>  <r_i_glide_gscore>  (76) 
-2.26828

>  <r_i_glide_lipo>  (76) 
-0.513356

>  <r_i_glide_hbond>  (76) 
-0.000101308

>  <r_i_glide_metal>  (76) 
-0

>  <r_i_glide_rewards>  (76) 
-0.404312

>  <r_i_glide_evdw>  (76) 
-23.5026

>  <r_i_glide_ecoul>  (76) 
-1.14002

>  <r_i_glide_erotb>  (76) 
0

>  <r_i_glide_esite>  (76) 
-0.00437697

>  <r_i_glide_emodel>  (76) 
-28.3383

>  <r_i_glide_energy>  (76) 
-24.6426

>  <r_i_glide_einternal>  (76) 
0

>  <r_i_glide_intrahb_reward>  (76) 
-0

>  <i_i_glide_confnum>  (76) 
4

>  <i_i_glide_posenum>  (76) 
28

>  <r_i_glide_eff_state_penalty>  (76) 
0

>  <ligand_id>  (76) 
16

>  <original_smiles>  (76) 
CC1CCC2(C)CCC3(C)C4=CCC5C(C)(CCC6(OCCO6)C5(C)C)C4CCC3C2C1

>  <smiles>  (76) 
[H]C1=C2C([H])(C([H])([H])C([H])([H])C3([H])C4([H])C([H])([H])C([H])(C([H])([H])[H])C([H])([H])C([H])([H])C4(C([H])([H])[H])C([H])([H])C([H])([H])C23C([H])([H])[H])C2(C([H])([H])[H])C([H])([H])C([H])([H])C3(OC([H])([H])C([H])([H])O3)C(C([H])([H])[H])(C([H])([H])[H])C2([H])C1([H])[H]

$$$$
16:0:1
     RDKit          3D

 80 85  0  0  1  0  0  0  0  0999 V2000
    4.1742   -1.1574   -2.8727 C   0  0  0  0  0  0  0  0  0  0  0  0
    4.6514   -1.6950   -1.5159 C   0  0  2  0  0  0  0  0  0  0  0  0
    5.2356   -3.1136   -1.6312 C   0  0  0  0  0  0  0  0  0  0  0  0
    5.7221   -3.6094   -0.2597 C   0  0  0  0  0  0  0  0  0  0  0  0
    4.6148   -3.5899    0.8317 C   0  0  1  0  0  0  0  0  0  0  0  0
    3.5532   -4.6631    0.4788 C   0  0  0  0  0  0  0  0  0  0  0  0
    5.2564   -3.9244    2.1958 C   0  0  0  0  0  0  0  0  0  0  0  0
    4.2768   -3.7887    3.3784 C   0  0  0  0  0  0  0  0  0  0  0  0
    3.5963   -2.3929    3.5004 C   0  0  2  0  0  0  0  0  0  0  0  0
    4.6854   -1.3872    3.9724 C   0  0  0  0  0  0  0  0  0  0  0  0
    2.4723   -2.3831    4.5706 C   0  0  0  0  0  0  0  0  0  0  0  0
    2.2755   -3.3834    5.4585 C   0  0  0  0  0  0  0  0  0  0  0  0
    1.2925   -3.3610    6.6027 C   0  0  0  0  0  0  0  0  0  0  0  0
    0.8099   -1.9334    6.9738 C   0  0  2  0  0  0  0  0  0  0  0  0
    0.4252   -1.1593    5.6706 C   0  0  1  0  0  0  0  0  0  0  0  0
   -0.8192   -1.8548    5.0629 C   0  0  0  0  0  0  0  0  0  0  0  0
   -0.0529    0.2569    6.0490 C   0  0  0  0  0  0  0  0  0  0  0  0
    0.9285    1.0289    6.9388 C   0  0  0  0  0  0  0  0  0  0  0  0
    1.1294    0.2553    8.2643 C   0  0  0  0  0  0  0  0  0  0  0  0
   -0.1063    0.1913    8.8989 O   0  0  0  0  0  0  0  0  0  0  0  0
   -0.2005    1.3003    9.7743 C   0  0  0  0  0  0  0  0  0  0  0  0
    1.1338    2.0231    9.6185 C   0  0  0  0  0  0  0  0  0  0  0  0
    1.9644    1.0213    9.0826 O   0  0  0  0  0  0  0  0  0  0  0  0
    1.7111   -1.1671    8.0446 C   0  0  0  0  0  0  0  0  0  0  0  0
    1.6725   -1.9402    9.3928 C   0  0  0  0  0  0  0  0  0  0  0  0
    3.2059   -1.0870    7.6345 C   0  0  0  0  0  0  0  0  0  0  0  0
    1.6009   -1.1031    4.6246 C   0  0  2  0  0  0  0  0  0  0  0  0
    1.1485   -0.6829    3.2046 C   0  0  0  0  0  0  0  0  0  0  0  0
    2.2799   -0.6488    2.1803 C   0  0  0  0  0  0  0  0  0  0  0  0
    2.9906   -2.0137    2.0992 C   0  0  1  0  0  0  0  0  0  0  0  0
    4.0305   -2.1419    0.9324 C   0  0  2  0  0  0  0  0  0  0  0  0
    3.5326   -1.6775   -0.4567 C   0  0  0  0  0  0  0  0  0  0  0  0
    3.3613   -1.7548   -3.2872 H   0  0  0  0  0  0  0  0  0  0  0  0
    4.9907   -1.1558   -3.5950 H   0  0  0  0  0  0  0  0  0  0  0  0
    3.8209   -0.1293   -2.7782 H   0  0  0  0  0  0  0  0  0  0  0  0
    5.4441   -1.0310   -1.1752 H   0  0  0  0  0  0  0  0  0  0  0  0
    4.4909   -3.7928   -2.0443 H   0  0  0  0  0  0  0  0  0  0  0  0
    6.0683   -3.1159   -2.3357 H   0  0  0  0  0  0  0  0  0  0  0  0
    6.1244   -4.6189   -0.3602 H   0  0  0  0  0  0  0  0  0  0  0  0
    6.5541   -2.9814    0.0526 H   0  0  0  0  0  0  0  0  0  0  0  0
    2.7679   -4.7467    1.2277 H   0  0  0  0  0  0  0  0  0  0  0  0
    4.0135   -5.6485    0.3947 H   0  0  0  0  0  0  0  0  0  0  0  0
    3.0545   -4.4672   -0.4676 H   0  0  0  0  0  0  0  0  0  0  0  0
    5.6563   -4.9392    2.1745 H   0  0  0  0  0  0  0  0  0  0  0  0
    6.1163   -3.2783    2.3622 H   0  0  0  0  0  0  0  0  0  0  0  0
    3.5148   -4.5610    3.2894 H   0  0  0  0  0  0  0  0  0  0  0  0
    4.8218   -4.0122    4.2956 H   0  0  0  0  0  0  0  0  0  0  0  0
    5.5378   -1.3311    3.2977 H   0  0  0  0  0  0  0  0  0  0  0  0
    5.0746   -1.6842    4.9458 H   0  0  0  0  0  0  0  0  0  0  0  0
    4.3163   -0.3716    4.0887 H   0  0  0  0  0  0  0  0  0  0  0  0
    2.8763   -4.2811    5.4290 H   0  0  0  0  0  0  0  0  0  0  0  0
    0.4432   -3.9845    6.3203 H   0  0  0  0  0  0  0  0  0  0  0  0
    1.7510   -3.8553    7.4530 H   0  0  0  0  0  0  0  0  0  0  0  0
   -0.1285   -2.0895    7.5143 H   0  0  0  0  0  0  0  0  0  0  0  0
   -1.3015   -1.2350    4.3113 H   0  0  0  0  0  0  0  0  0  0  0  0
   -1.5807   -2.0566    5.8169 H   0  0  0  0  0  0  0  0  0  0  0  0
   -0.5714   -2.8082    4.5896 H   0  0  0  0  0  0  0  0  0  0  0  0
   -0.2611    0.8376    5.1549 H   0  0  0  0  0  0  0  0  0  0  0  0
   -1.0086    0.1880    6.5695 H   0  0  0  0  0  0  0  0  0  0  0  0
    1.8849    1.1859    6.4340 H   0  0  0  0  0  0  0  0  0  0  0  0
    0.5167    2.0181    7.1387 H   0  0  0  0  0  0  0  0  0  0  0  0
   -1.0418    1.9298    9.4910 H   0  0  0  0  0  0  0  0  0  0  0  0
   -0.3547    0.9643   10.7984 H   0  0  0  0  0  0  0  0  0  0  0  0
    1.0453    2.8214    8.8785 H   0  0  0  0  0  0  0  0  0  0  0  0
    1.5155    2.4460   10.5540 H   0  0  0  0  0  0  0  0  0  0  0  0
    2.1510   -1.3617   10.1890 H   0  0  0  0  0  0  0  0  0  0  0  0
    2.2035   -2.8883    9.3540 H   0  0  0  0  0  0  0  0  0  0  0  0
    0.6553   -2.1583    9.7197 H   0  0  0  0  0  0  0  0  0  0  0  0
    3.7961   -0.6263    8.4318 H   0  0  0  0  0  0  0  0  0  0  0  0
    3.3798   -0.4908    6.7443 H   0  0  0  0  0  0  0  0  0  0  0  0
    3.6466   -2.0653    7.4628 H   0  0  0  0  0  0  0  0  0  0  0  0
    2.2798   -0.3233    4.9348 H   0  0  0  0  0  0  0  0  0  0  0  0
    0.4001   -1.3756    2.8285 H   0  0  0  0  0  0  0  0  0  0  0  0
    0.6755    0.3004    3.2312 H   0  0  0  0  0  0  0  0  0  0  0  0
    1.8154   -0.4009    1.2275 H   0  0  0  0  0  0  0  0  0  0  0  0
    2.9800    0.1590    2.3913 H   0  0  0  0  0  0  0  0  0  0  0  0
    2.1971   -2.7312    1.8904 H   0  0  0  0  0  0  0  0  0  0  0  0
    4.8496   -1.4694    1.1766 H   0  0  0  0  0  0  0  0  0  0  0  0
    3.1742   -0.6520   -0.3897 H   0  0  0  0  0  0  0  0  0  0  0  0
    2.6856   -2.2737   -0.7866 H   0  0  0  0  0  0  0  0  0  0  0  0
  1  2  1  0
  1 33  1  0
  1 34  1  0
  1 35  1  0
  2 32  1  0
  2  3  1  0
  2 36  1  1
  3  4  1  0
  3 37  1  0
  3 38  1  0
  4  5  1  0
  4 39  1  0
  4 40  1  0
  5 31  1  0
  5  6  1  6
  5  7  1  0
  6 41  1  0
  6 42  1  0
  6 43  1  0
  7  8  1  0
  7 44  1  0
  7 45  1  0
  8  9  1  0
  8 46  1  0
  8 47  1  0
  9 30  1  0
  9 10  1  1
  9 11  1  0
 10 48  1  0
 10 49  1  0
 10 50  1  0
 11 27  1  0
 11 12  2  0
 12 13  1  0
 12 51  1  0
 13 14  1  0
 13 52  1  0
 13 53  1  0
 14 24  1  0
 14 15  1  0
 14 54  1  1
 15 16  1  6
 15 17  1  0
 15 27  1  0
 16 55  1  0
 16 56  1  0
 16 57  1  0
 17 18  1  0
 17 58  1  0
 17 59  1  0
 18 19  1  0
 18 60  1  0
 18 61  1  0
 19 23  1  0
 19 20  1  0
 19 24  1  0
 20 21  1  0
 21 22  1  0
 21 62  1  0
 21 63  1  0
 22 23  1  0
 22 64  1  0
 22 65  1  0
 24 25  1  0
 24 26  1  0
 25 66  1  0
 25 67  1  0
 25 68  1  0
 26 69  1  0
 26 70  1  0
 26 71  1  0
 27 28  1  0
 27 72  1  1
 28 29  1  0
 28 73  1  0
 28 74  1  0
 29 30  1  0
 29 75  1  0
 29 76  1  0
 30 31  1  0
 30 77  1  6
 31 32  1  0
 31 78  1  1
 32 79  1  0
 32 80  1  0
M  END
>  <i_m_ct_stereo_status>  (77) 
1

>  <s_m_source_file>  (77) 
/var/tmp/pbs.5076255.sched01/tmp5vb4dkz1/0x5hafel7.sdf

>  <i_m_source_file_index>  (77) 
29

>  <i_lp_mmshare_version>  (77) 
48012

>  <i_f3d_flags>  (77) 
0

>  <s_epik_input>  (77) 
W0NIM11bQ0BASF0oW0NIMl0xKVtDSDJdW0NIMl1bQ0BAXShbQ0gzXSkoW0NIMl1bQ0gyXTIpW0NAQEhdMVtDQEhdKFtDSDJdW0NIMl1bQ0BIXTM0KVtDQEBdMihbQ0gzXSlDMz1bQ0hdW0NIMl1bQ0BASF0oQzUoW0NIM10pW0NIM10pW0NAQF00KFtDSDNdKVtDSDJdW0NIMl1DNTZPW0NIMl1bQ0gyXU82

>  <s_epik_cmdline>  (77) 
J2VwaWtfcHl0aG9uJywgJy1waHQnLCAnMi4wJywgJy1waCcsICc3LjAnLCAnLXRuJywgJzgnLCAnLW1hJywgJzIwMCcsICctaW1hZScsICc8aW5maWxlLm1hZT4nLCAnLW9tYWUnLCAnPG91dGZpbGUubWFlPic=

>  <r_lp_tautomer_probability>  (77) 
1

>  <r_epik_Ionization_Penalty>  (77) 
5.85829e-13

>  <r_epik_Ionization_Penalty_Charging>  (77) 
0

>  <r_epik_Ionization_Penalty_Neutral>  (77) 
5.85829e-13

>  <r_epik_State_Penalty>  (77) 
-0

>  <r_epik_Charging_Adjusted_Penalty>  (77) 
0

>  <i_epik_Tot_Q>  (77) 
0

>  <i_epik_Tot_abs_Q>  (77) 
0

>  <s_lp_Force_Field>  (77) 
OPLS3e

>  <r_lp_Energy>  (77) 
63.6036

>  <b_lp_Chiralities_Consistent>  (77) 
1

>  <s_lp_Variant>  (77) 
16:0-1

>  <s_i_glide_gridfile>  (77) 
pfpi4k_grid

>  <i_i_glide_lignum>  (77) 
29

>  <i_i_glide_rotatable_bonds>  (77) 
0

>  <r_i_docking_score>  (77) 
-2.16889

>  <r_i_glide_ligand_efficiency>  (77) 
-0.0677778

>  <r_i_glide_ligand_efficiency_sa>  (77) 
-0.215181

>  <r_i_glide_ligand_efficiency_ln>  (77) 
-0.485674

>  <r_i_glide_gscore>  (77) 
-2.16889

>  <r_i_glide_lipo>  (77) 
-0.235046

>  <r_i_glide_hbond>  (77) 
0

>  <r_i_glide_metal>  (77) 
-0

>  <r_i_glide_rewards>  (77) 
-0.404312

>  <r_i_glide_evdw>  (77) 
-26.6685

>  <r_i_glide_ecoul>  (77) 
-1.29401

>  <r_i_glide_erotb>  (77) 
0

>  <r_i_glide_esite>  (77) 
-0.00200582

>  <r_i_glide_emodel>  (77) 
-31.3663

>  <r_i_glide_energy>  (77) 
-27.9625

>  <r_i_glide_einternal>  (77) 
0

>  <r_i_glide_intrahb_reward>  (77) 
-0

>  <i_i_glide_confnum>  (77) 
3

>  <i_i_glide_posenum>  (77) 
2

>  <r_i_glide_eff_state_penalty>  (77) 
0

>  <ligand_id>  (77) 
16

>  <original_smiles>  (77) 
CC1CCC2(C)CCC3(C)C4=CCC5C(C)(CCC6(OCCO6)C5(C)C)C4CCC3C2C1

>  <smiles>  (77) 
[H]C1=C2C([H])(C([H])([H])C([H])([H])C3([H])C4([H])C([H])([H])C([H])(C([H])([H])[H])C([H])([H])C([H])([H])C4(C([H])([H])[H])C([H])([H])C([H])([H])C23C([H])([H])[H])C2(C([H])([H])[H])C([H])([H])C([H])([H])C3(OC([H])([H])C([H])([H])O3)C(C([H])([H])[H])(C([H])([H])[H])C2([H])C1([H])[H]

$$$$
16:0:2
     RDKit          3D

 80 85  0  0  1  0  0  0  0  0999 V2000
   -4.5389    3.3431    9.1919 C   0  0  0  0  0  0  0  0  0  0  0  0
   -3.1224    2.8429    9.3956 C   0  0  2  0  0  0  0  0  0  0  0  0
   -2.3331    3.5778   10.4767 C   0  0  0  0  0  0  0  0  0  0  0  0
   -0.9442    2.9366   10.6398 C   0  0  0  0  0  0  0  0  0  0  0  0
   -0.1423    2.8962    9.3132 C   0  0  1  0  0  0  0  0  0  0  0  0
    0.2099    4.3580    8.9218 C   0  0  0  0  0  0  0  0  0  0  0  0
    1.1627    2.1030    9.5405 C   0  0  0  0  0  0  0  0  0  0  0  0
    1.9691    1.8858    8.2436 C   0  0  0  0  0  0  0  0  0  0  0  0
    1.1720    1.1987    7.0956 C   0  0  2  0  0  0  0  0  0  0  0  0
    0.9686   -0.2873    7.4980 C   0  0  0  0  0  0  0  0  0  0  0  0
    1.9611    1.1903    5.7657 C   0  0  0  0  0  0  0  0  0  0  0  0
    3.2694    1.5182    5.6976 C   0  0  0  0  0  0  0  0  0  0  0  0
    4.1050    1.4131    4.4572 C   0  0  0  0  0  0  0  0  0  0  0  0
    3.5135    0.4876    3.3692 C   0  0  2  0  0  0  0  0  0  0  0  0
    1.9958    0.8132    3.1704 C   0  0  1  0  0  0  0  0  0  0  0  0
    1.8989    2.2355    2.5582 C   0  0  0  0  0  0  0  0  0  0  0  0
    1.4369   -0.1364    2.0914 C   0  0  0  0  0  0  0  0  0  0  0  0
    1.7390   -1.6202    2.3410 C   0  0  0  0  0  0  0  0  0  0  0  0
    3.2520   -1.8661    2.3736 C   0  0  0  0  0  0  0  0  0  0  0  0
    3.7934   -1.5032    1.1391 O   0  0  0  0  0  0  0  0  0  0  0  0
    3.9772   -2.6944    0.4149 C   0  0  0  0  0  0  0  0  0  0  0  0
    4.2840   -3.6972    1.5170 C   0  0  0  0  0  0  0  0  0  0  0  0
    3.4822   -3.2236    2.5783 O   0  0  0  0  0  0  0  0  0  0  0  0
    3.9431   -1.0093    3.5140 C   0  0  0  0  0  0  0  0  0  0  0  0
    5.4636   -1.1319    3.3151 C   0  0  0  0  0  0  0  0  0  0  0  0
    3.6117   -1.6454    4.8862 C   0  0  0  0  0  0  0  0  0  0  0  0
    1.1849    0.7284    4.5163 C   0  0  2  0  0  0  0  0  0  0  0  0
   -0.2027    1.4068    4.4290 C   0  0  0  0  0  0  0  0  0  0  0  0
   -0.9915    1.3503    5.7414 C   0  0  0  0  0  0  0  0  0  0  0  0
   -0.1762    1.9715    6.8965 C   0  0  1  0  0  0  0  0  0  0  0  0
   -0.9743    2.1472    8.2271 C   0  0  2  0  0  0  0  0  0  0  0  0
   -2.3659    2.7954    8.0631 C   0  0  0  0  0  0  0  0  0  0  0  0
   -4.5594    4.3936    8.8870 H   0  0  0  0  0  0  0  0  0  0  0  0
   -5.0840    3.2601   10.1283 H   0  0  0  0  0  0  0  0  0  0  0  0
   -5.0875    2.7813    8.4418 H   0  0  0  0  0  0  0  0  0  0  0  0
   -3.2429    1.8348    9.7720 H   0  0  0  0  0  0  0  0  0  0  0  0
   -2.2577    4.6486   10.2643 H   0  0  0  0  0  0  0  0  0  0  0  0
   -2.8645    3.4958   11.4252 H   0  0  0  0  0  0  0  0  0  0  0  0
   -0.3861    3.4664   11.4101 H   0  0  0  0  0  0  0  0  0  0  0  0
   -1.0747    1.9210   11.0214 H   0  0  0  0  0  0  0  0  0  0  0  0
    0.8205    4.4246    8.0227 H   0  0  0  0  0  0  0  0  0  0  0  0
    0.7685    4.8460    9.7219 H   0  0  0  0  0  0  0  0  0  0  0  0
   -0.6750    4.9640    8.7371 H   0  0  0  0  0  0  0  0  0  0  0  0
    1.7873    2.6135   10.2716 H   0  0  0  0  0  0  0  0  0  0  0  0
    0.9292    1.1337    9.9852 H   0  0  0  0  0  0  0  0  0  0  0  0
    2.3474    2.8505    7.9073 H   0  0  0  0  0  0  0  0  0  0  0  0
    2.8507    1.2920    8.4905 H   0  0  0  0  0  0  0  0  0  0  0  0
    0.4428   -0.4069    8.4397 H   0  0  0  0  0  0  0  0  0  0  0  0
    1.9377   -0.7782    7.6120 H   0  0  0  0  0  0  0  0  0  0  0  0
    0.4256   -0.8640    6.7528 H   0  0  0  0  0  0  0  0  0  0  0  0
    3.8254    1.8577    6.5496 H   0  0  0  0  0  0  0  0  0  0  0  0
    4.1960    2.4327    4.0832 H   0  0  0  0  0  0  0  0  0  0  0  0
    5.1088    1.1165    4.7406 H   0  0  0  0  0  0  0  0  0  0  0  0
    3.9860    0.7932    2.4334 H   0  0  0  0  0  0  0  0  0  0  0  0
    0.9112    2.4496    2.1521 H   0  0  0  0  0  0  0  0  0  0  0  0
    2.5876    2.3466    1.7222 H   0  0  0  0  0  0  0  0  0  0  0  0
    2.1361    3.0199    3.2797 H   0  0  0  0  0  0  0  0  0  0  0  0
    0.3583    0.0006    1.9839 H   0  0  0  0  0  0  0  0  0  0  0  0
    1.8436    0.1390    1.1160 H   0  0  0  0  0  0  0  0  0  0  0  0
    1.2627   -1.9897    3.2515 H   0  0  0  0  0  0  0  0  0  0  0  0
    1.3360   -2.1955    1.5109 H   0  0  0  0  0  0  0  0  0  0  0  0
    3.0672   -2.9635   -0.1266 H   0  0  0  0  0  0  0  0  0  0  0  0
    4.7906   -2.5978   -0.3030 H   0  0  0  0  0  0  0  0  0  0  0  0
    4.0666   -4.7293    1.2496 H   0  0  0  0  0  0  0  0  0  0  0  0
    5.3422   -3.6436    1.7863 H   0  0  0  0  0  0  0  0  0  0  0  0
    5.7895   -2.1673    3.3309 H   0  0  0  0  0  0  0  0  0  0  0  0
    6.0095   -0.6412    4.1231 H   0  0  0  0  0  0  0  0  0  0  0  0
    5.8045   -0.6776    2.3790 H   0  0  0  0  0  0  0  0  0  0  0  0
    3.9805   -2.6666    4.9473 H   0  0  0  0  0  0  0  0  0  0  0  0
    2.5487   -1.6864    5.1047 H   0  0  0  0  0  0  0  0  0  0  0  0
    4.0951   -1.1007    5.6973 H   0  0  0  0  0  0  0  0  0  0  0  0
    0.9734   -0.3229    4.6897 H   0  0  0  0  0  0  0  0  0  0  0  0
   -0.0991    2.4615    4.1712 H   0  0  0  0  0  0  0  0  0  0  0  0
   -0.8009    0.9538    3.6399 H   0  0  0  0  0  0  0  0  0  0  0  0
   -1.9059    1.9114    5.5668 H   0  0  0  0  0  0  0  0  0  0  0  0
   -1.2879    0.3273    5.9647 H   0  0  0  0  0  0  0  0  0  0  0  0
    0.0781    2.9731    6.5505 H   0  0  0  0  0  0  0  0  0  0  0  0
   -1.1718    1.1439    8.6066 H   0  0  0  0  0  0  0  0  0  0  0  0
   -2.9781    2.2178    7.3806 H   0  0  0  0  0  0  0  0  0  0  0  0
   -2.2824    3.8004    7.6413 H   0  0  0  0  0  0  0  0  0  0  0  0
  1  2  1  0
  1 33  1  0
  1 34  1  0
  1 35  1  0
  2 32  1  0
  2  3  1  0
  2 36  1  1
  3  4  1  0
  3 37  1  0
  3 38  1  0
  4  5  1  0
  4 39  1  0
  4 40  1  0
  5 31  1  0
  5  6  1  6
  5  7  1  0
  6 41  1  0
  6 42  1  0
  6 43  1  0
  7  8  1  0
  7 44  1  0
  7 45  1  0
  8  9  1  0
  8 46  1  0
  8 47  1  0
  9 30  1  0
  9 10  1  1
  9 11  1  0
 10 48  1  0
 10 49  1  0
 10 50  1  0
 11 27  1  0
 11 12  2  0
 12 13  1  0
 12 51  1  0
 13 14  1  0
 13 52  1  0
 13 53  1  0
 14 24  1  0
 14 15  1  0
 14 54  1  6
 15 16  1  6
 15 17  1  0
 15 27  1  0
 16 55  1  0
 16 56  1  0
 16 57  1  0
 17 18  1  0
 17 58  1  0
 17 59  1  0
 18 19  1  0
 18 60  1  0
 18 61  1  0
 19 23  1  0
 19 20  1  0
 19 24  1  0
 20 21  1  0
 21 22  1  0
 21 62  1  0
 21 63  1  0
 22 23  1  0
 22 64  1  0
 22 65  1  0
 24 25  1  0
 24 26  1  0
 25 66  1  0
 25 67  1  0
 25 68  1  0
 26 69  1  0
 26 70  1  0
 26 71  1  0
 27 28  1  0
 27 72  1  1
 28 29  1  0
 28 73  1  0
 28 74  1  0
 29 30  1  0
 29 75  1  0
 29 76  1  0
 30 31  1  0
 30 77  1  6
 31 32  1  0
 31 78  1  1
 32 79  1  0
 32 80  1  0
M  END
>  <i_m_ct_stereo_status>  (78) 
1

>  <s_m_source_file>  (78) 
/var/tmp/pbs.5076255.sched01/tmp5vb4dkz1/0x5hafel7.sdf

>  <i_m_source_file_index>  (78) 
29

>  <i_lp_mmshare_version>  (78) 
48012

>  <i_f3d_flags>  (78) 
0

>  <s_epik_input>  (78) 
W0NIM11bQ0BASF0oW0NIMl0xKVtDSDJdW0NIMl1bQ0BAXShbQ0gzXSkoW0NIMl1bQ0gyXTIpW0NAQEhdMVtDQEhdKFtDSDJdW0NIMl1bQ0BIXTM0KVtDQEBdMihbQ0gzXSlDMz1bQ0hdW0NIMl1bQ0BASF0oQzUoW0NIM10pW0NIM10pW0NAQF00KFtDSDNdKVtDSDJdW0NIMl1DNTZPW0NIMl1bQ0gyXU82

>  <s_epik_cmdline>  (78) 
J2VwaWtfcHl0aG9uJywgJy1waHQnLCAnMi4wJywgJy1waCcsICc3LjAnLCAnLXRuJywgJzgnLCAnLW1hJywgJzIwMCcsICctaW1hZScsICc8aW5maWxlLm1hZT4nLCAnLW9tYWUnLCAnPG91dGZpbGUubWFlPic=

>  <r_lp_tautomer_probability>  (78) 
1

>  <r_epik_Ionization_Penalty>  (78) 
5.85829e-13

>  <r_epik_Ionization_Penalty_Charging>  (78) 
0

>  <r_epik_Ionization_Penalty_Neutral>  (78) 
5.85829e-13

>  <r_epik_State_Penalty>  (78) 
-0

>  <r_epik_Charging_Adjusted_Penalty>  (78) 
0

>  <i_epik_Tot_Q>  (78) 
0

>  <i_epik_Tot_abs_Q>  (78) 
0

>  <s_lp_Force_Field>  (78) 
OPLS3e

>  <r_lp_Energy>  (78) 
63.6036

>  <b_lp_Chiralities_Consistent>  (78) 
1

>  <s_lp_Variant>  (78) 
16:0-1

>  <s_i_glide_gridfile>  (78) 
pfpi4k_grid

>  <i_i_glide_lignum>  (78) 
29

>  <i_i_glide_rotatable_bonds>  (78) 
0

>  <r_i_docking_score>  (78) 
-1.74738

>  <r_i_glide_ligand_efficiency>  (78) 
-0.0546056

>  <r_i_glide_ligand_efficiency_sa>  (78) 
-0.173362

>  <r_i_glide_ligand_efficiency_ln>  (78) 
-0.391286

>  <r_i_glide_gscore>  (78) 
-1.74738

>  <r_i_glide_lipo>  (78) 
-0.163921

>  <r_i_glide_hbond>  (78) 
0

>  <r_i_glide_metal>  (78) 
-0

>  <r_i_glide_rewards>  (78) 
-0.404312

>  <r_i_glide_evdw>  (78) 
-23.0581

>  <r_i_glide_ecoul>  (78) 
-0.163397

>  <r_i_glide_erotb>  (78) 
0

>  <r_i_glide_esite>  (78) 
-0.00173067

>  <r_i_glide_emodel>  (78) 
-26.0373

>  <r_i_glide_energy>  (78) 
-23.2215

>  <r_i_glide_einternal>  (78) 
0

>  <r_i_glide_intrahb_reward>  (78) 
-0

>  <i_i_glide_confnum>  (78) 
1

>  <i_i_glide_posenum>  (78) 
12

>  <r_i_glide_eff_state_penalty>  (78) 
0

>  <ligand_id>  (78) 
16

>  <original_smiles>  (78) 
CC1CCC2(C)CCC3(C)C4=CCC5C(C)(CCC6(OCCO6)C5(C)C)C4CCC3C2C1

>  <smiles>  (78) 
[H]C1=C2C([H])(C([H])([H])C([H])([H])C3([H])C4([H])C([H])([H])C([H])(C([H])([H])[H])C([H])([H])C([H])([H])C4(C([H])([H])[H])C([H])([H])C([H])([H])C23C([H])([H])[H])C2(C([H])([H])[H])C([H])([H])C([H])([H])C3(OC([H])([H])C([H])([H])O3)C(C([H])([H])[H])(C([H])([H])[H])C2([H])C1([H])[H]

$$$$
17:0:0
     RDKit          3D

 42 46  0  0  1  0  0  0  0  0999 V2000
    4.7591   -5.9861    1.5301 C   0  0  0  0  0  0  0  0  0  0  0  0
    4.5771   -4.5024    1.2301 C   0  0  0  0  0  0  0  0  0  0  0  0
    5.5803   -3.6933    0.7983 C   0  0  0  0  0  0  0  0  0  0  0  0
    6.9841   -4.2219    0.5501 C   0  0  0  0  0  0  0  0  0  0  0  0
    7.8652   -3.4550   -0.4218 C   0  0  0  0  0  0  0  0  0  0  0  0
    8.9812   -3.9165   -0.6599 O   0  0  0  0  0  0  0  0  0  0  0  0
    7.3880   -2.2650   -0.9193 O   0  0  0  0  0  0  0  0  0  0  0  0
    6.0117   -1.8770   -0.8292 C   0  0  1  0  0  0  0  0  0  0  0  0
    5.2192   -2.3282   -2.0470 C   0  0  0  0  0  0  0  0  0  0  0  0
    4.0953   -1.6734   -2.6668 C   0  0  0  0  0  0  0  0  0  0  0  0
    3.7212   -2.4501   -3.7081 C   0  0  0  0  0  0  0  0  0  0  0  0
    4.5539   -3.5113   -3.8577 O   0  0  0  0  0  0  0  0  0  0  0  0
    5.4321   -3.4200   -2.8263 C   0  0  0  0  0  0  0  0  0  0  0  0
    5.3955   -2.1816    0.5607 C   0  0  2  0  0  0  0  0  0  0  0  0
    6.1692   -1.4266    1.6490 C   0  0  0  0  0  0  0  0  0  0  0  0
    3.9375   -1.7170    0.6334 C   0  0  2  0  0  0  0  0  0  0  0  0
    3.4860   -1.0649    1.8426 O   0  0  0  0  0  0  0  0  0  0  0  0
    2.2380   -1.7842    1.7442 C   0  0  2  0  0  0  0  0  0  0  0  0
    1.9689   -2.5785    2.8899 O   0  0  0  0  0  0  0  0  0  0  0  0
    2.9156   -3.6107    2.9477 C   0  0  1  0  0  0  0  0  0  0  0  0
    2.5109   -4.6807    3.7548 O   0  0  0  0  0  0  0  0  0  0  0  0
    3.1677   -4.0170    1.4821 C   0  0  1  0  0  0  0  0  0  0  0  0
    2.8603   -2.7569    0.7480 C   0  0  2  0  0  0  0  0  0  0  0  0
    2.2317   -3.0516   -0.4710 O   0  0  0  0  0  0  0  0  0  0  0  0
    4.3546   -6.2155    2.5156 H   0  0  0  0  0  0  0  0  0  0  0  0
    5.7952   -6.3032    1.5444 H   0  0  0  0  0  0  0  0  0  0  0  0
    4.2229   -6.5921    0.7994 H   0  0  0  0  0  0  0  0  0  0  0  0
    7.5247   -4.2387    1.4997 H   0  0  0  0  0  0  0  0  0  0  0  0
    6.9502   -5.2404    0.1541 H   0  0  0  0  0  0  0  0  0  0  0  0
    6.0151   -0.7920   -0.9270 H   0  0  0  0  0  0  0  0  0  0  0  0
    3.5928   -0.7615   -2.3757 H   0  0  0  0  0  0  0  0  0  0  0  0
    2.9108   -2.3914   -4.4273 H   0  0  0  0  0  0  0  0  0  0  0  0
    6.1779   -4.2090   -2.8237 H   0  0  0  0  0  0  0  0  0  0  0  0
    6.0973   -0.3419    1.5439 H   0  0  0  0  0  0  0  0  0  0  0  0
    7.2192   -1.6744    1.6175 H   0  0  0  0  0  0  0  0  0  0  0  0
    5.8121   -1.7080    2.6406 H   0  0  0  0  0  0  0  0  0  0  0  0
    3.6717   -1.0301   -0.1620 H   0  0  0  0  0  0  0  0  0  0  0  0
    1.4192   -1.1644    1.3530 H   0  0  0  0  0  0  0  0  0  0  0  0
    3.8157   -3.1806    3.4039 H   0  0  0  0  0  0  0  0  0  0  0  0
    1.8088   -5.1452    3.3056 H   0  0  0  0  0  0  0  0  0  0  0  0
    2.4421   -4.7902    1.2032 H   0  0  0  0  0  0  0  0  0  0  0  0
    1.6970   -2.2968   -0.7003 H   0  0  0  0  0  0  0  0  0  0  0  0
  1  2  1  0
  1 25  1  0
  1 26  1  0
  1 27  1  0
  2 22  1  0
  2  3  2  0
  3 14  1  0
  3  4  1  0
  4  5  1  0
  4 28  1  0
  4 29  1  0
  5  6  2  0
  5  7  1  0
  7  8  1  0
  8  9  1  0
  8 14  1  0
  8 30  1  6
  9 13  2  0
  9 10  1  0
 10 11  2  0
 10 31  1  0
 11 12  1  0
 11 32  1  0
 12 13  1  0
 13 33  1  0
 14 15  1  1
 14 16  1  0
 15 34  1  0
 15 35  1  0
 15 36  1  0
 16 23  1  0
 16 17  1  0
 16 37  1  6
 17 18  1  0
 18 23  1  0
 18 19  1  0
 18 38  1  6
 19 20  1  0
 20 21  1  0
 20 22  1  0
 20 39  1  1
 21 40  1  0
 22 23  1  0
 22 41  1  6
 23 24  1  6
 24 42  1  0
M  END
>  <i_m_ct_stereo_status>  (79) 
1

>  <s_m_source_file>  (79) 
/var/tmp/pbs.5076255.sched01/tmp5vb4dkz1/0x5hafel7.sdf

>  <i_m_source_file_index>  (79) 
30

>  <i_lp_mmshare_version>  (79) 
48012

>  <i_f3d_flags>  (79) 
0

>  <s_epik_input>  (79) 
W09IXVtDQEBIXTFPW0NASF0yT1tDQEBIXTNbQ0BAXTIoW09IXSlbQ0BIXTFDKFtDSDNdKT1DKFtDQF0zNFtDSDNdKVtDSDJdQyg9TylPW0NASF00YzVbY0hdW2NIXW9bY0hdNQ==

>  <s_epik_cmdline>  (79) 
J2VwaWtfcHl0aG9uJywgJy1waHQnLCAnMi4wJywgJy1waCcsICc3LjAnLCAnLXRuJywgJzgnLCAnLW1hJywgJzIwMCcsICctaW1hZScsICc8aW5maWxlLm1hZT4nLCAnLW9tYWUnLCAnPG91dGZpbGUubWFlPic=

>  <r_lp_tautomer_probability>  (79) 
1

>  <r_epik_Ionization_Penalty>  (79) 
3.92802e-05

>  <r_epik_Ionization_Penalty_Charging>  (79) 
0

>  <r_epik_Ionization_Penalty_Neutral>  (79) 
3.92802e-05

>  <r_epik_State_Penalty>  (79) 
-0

>  <r_epik_Charging_Adjusted_Penalty>  (79) 
0

>  <i_epik_Tot_Q>  (79) 
0

>  <i_epik_Tot_abs_Q>  (79) 
0

>  <s_epik_Chemistry_Notes>  (79) 
This compound has an ester and may undergo hydrolysis at high or low pH. This compound contains an acetal/aminal-like group ( X-CH(R)-Y where X, Y are N, S, or O) that may be acid/base labile, releasing an aldehyde.

>  <s_lp_Force_Field>  (79) 
OPLS3e

>  <r_lp_Energy>  (79) 
30.6967

>  <b_lp_Chiralities_Consistent>  (79) 
1

>  <s_lp_Variant>  (79) 
17:0-1

>  <s_i_glide_gridfile>  (79) 
pfpi4k_grid

>  <i_i_glide_lignum>  (79) 
30

>  <i_i_glide_rotatable_bonds>  (79) 
3

>  <r_i_docking_score>  (79) 
-4.86735

>  <r_i_glide_ligand_efficiency>  (79) 
-0.202806

>  <r_i_glide_ligand_efficiency_sa>  (79) 
-0.584994

>  <r_i_glide_ligand_efficiency_ln>  (79) 
-1.16498

>  <r_i_glide_gscore>  (79) 
-4.86735

>  <r_i_glide_lipo>  (79) 
-0.916966

>  <r_i_glide_hbond>  (79) 
-0.275788

>  <r_i_glide_metal>  (79) 
-0

>  <r_i_glide_rewards>  (79) 
-1.40156

>  <r_i_glide_evdw>  (79) 
-27.0988

>  <r_i_glide_ecoul>  (79) 
-6.55687

>  <r_i_glide_erotb>  (79) 
0.118111

>  <r_i_glide_esite>  (79) 
-0.0526736

>  <r_i_glide_emodel>  (79) 
-42.5258

>  <r_i_glide_energy>  (79) 
-33.6556

>  <r_i_glide_einternal>  (79) 
0.617567

>  <r_i_glide_intrahb_reward>  (79) 
-0

>  <i_i_glide_confnum>  (79) 
1

>  <i_i_glide_posenum>  (79) 
31

>  <r_i_glide_eff_state_penalty>  (79) 
0

>  <ligand_id>  (79) 
17

>  <original_smiles>  (79) 
CC1=C2CC(=O)OC(c3ccoc3)C2(C)C2OC3OC(O)C1C32O

>  <smiles>  (79) 
[H]OC1([H])OC2([H])OC3([H])C2(O[H])C1([H])C(C([H])([H])[H])=C1C([H])([H])C(=O)OC([H])(c2c([H])oc([H])c2[H])C13C([H])([H])[H]

$$$$
17:0:1
     RDKit          3D

 42 46  0  0  1  0  0  0  0  0999 V2000
    4.7500   -5.9885    1.5161 C   0  0  0  0  0  0  0  0  0  0  0  0
    4.5680   -4.5088    1.2217 C   0  0  0  0  0  0  0  0  0  0  0  0
    5.5652   -3.6906    0.7989 C   0  0  0  0  0  0  0  0  0  0  0  0
    6.9783   -4.2270    0.5527 C   0  0  0  0  0  0  0  0  0  0  0  0
    7.8654   -3.4599   -0.4143 C   0  0  0  0  0  0  0  0  0  0  0  0
    8.9692   -3.9317   -0.6345 O   0  0  0  0  0  0  0  0  0  0  0  0
    7.3825   -2.2836   -0.9143 O   0  0  0  0  0  0  0  0  0  0  0  0
    6.0108   -1.8812   -0.8322 C   0  0  1  0  0  0  0  0  0  0  0  0
    5.2123   -2.3137   -2.0485 C   0  0  0  0  0  0  0  0  0  0  0  0
    4.1201   -1.6491   -2.6828 C   0  0  0  0  0  0  0  0  0  0  0  0
    3.7328   -2.4284   -3.7302 C   0  0  0  0  0  0  0  0  0  0  0  0
    4.5479   -3.5020   -3.8575 O   0  0  0  0  0  0  0  0  0  0  0  0
    5.4183   -3.4327   -2.8203 C   0  0  0  0  0  0  0  0  0  0  0  0
    5.3880   -2.1884    0.5533 C   0  0  2  0  0  0  0  0  0  0  0  0
    6.1519   -1.4253    1.6441 C   0  0  0  0  0  0  0  0  0  0  0  0
    3.9248   -1.7309    0.6160 C   0  0  2  0  0  0  0  0  0  0  0  0
    3.4827   -1.0758    1.8254 O   0  0  0  0  0  0  0  0  0  0  0  0
    2.2298   -1.7927    1.7254 C   0  0  2  0  0  0  0  0  0  0  0  0
    1.9646   -2.5801    2.8814 O   0  0  0  0  0  0  0  0  0  0  0  0
    2.9098   -3.6089    2.9300 C   0  0  1  0  0  0  0  0  0  0  0  0
    2.5008   -4.6859    3.7557 O   0  0  0  0  0  0  0  0  0  0  0  0
    3.1478   -4.0360    1.4685 C   0  0  1  0  0  0  0  0  0  0  0  0
    2.8490   -2.7714    0.7421 C   0  0  2  0  0  0  0  0  0  0  0  0
    2.2129   -3.0658   -0.4672 O   0  0  0  0  0  0  0  0  0  0  0  0
    4.3408   -6.2246    2.4946 H   0  0  0  0  0  0  0  0  0  0  0  0
    5.7892   -6.3076    1.5255 H   0  0  0  0  0  0  0  0  0  0  0  0
    4.2118   -6.5899    0.7854 H   0  0  0  0  0  0  0  0  0  0  0  0
    7.5191   -4.2469    1.5041 H   0  0  0  0  0  0  0  0  0  0  0  0
    6.9412   -5.2395    0.1463 H   0  0  0  0  0  0  0  0  0  0  0  0
    6.0097   -0.7955   -0.9307 H   0  0  0  0  0  0  0  0  0  0  0  0
    3.6295   -0.7199   -2.4151 H   0  0  0  0  0  0  0  0  0  0  0  0
    2.9372   -2.3575   -4.4557 H   0  0  0  0  0  0  0  0  0  0  0  0
    6.1376   -4.2293   -2.7953 H   0  0  0  0  0  0  0  0  0  0  0  0
    6.0844   -0.3416    1.5403 H   0  0  0  0  0  0  0  0  0  0  0  0
    7.2012   -1.6744    1.6147 H   0  0  0  0  0  0  0  0  0  0  0  0
    5.7918   -1.7115    2.6366 H   0  0  0  0  0  0  0  0  0  0  0  0
    3.6518   -1.0456   -0.1779 H   0  0  0  0  0  0  0  0  0  0  0  0
    1.4203   -1.1671    1.3284 H   0  0  0  0  0  0  0  0  0  0  0  0
    3.8112   -3.1796    3.3786 H   0  0  0  0  0  0  0  0  0  0  0  0
    3.1887   -5.3313    3.7699 H   0  0  0  0  0  0  0  0  0  0  0  0
    2.4263   -4.7961    1.1901 H   0  0  0  0  0  0  0  0  0  0  0  0
    1.7545   -2.2335   -0.6951 H   0  0  0  0  0  0  0  0  0  0  0  0
  1  2  1  0
  1 25  1  0
  1 26  1  0
  1 27  1  0
  2 22  1  0
  2  3  2  0
  3 14  1  0
  3  4  1  0
  4  5  1  0
  4 28  1  0
  4 29  1  0
  5  6  2  0
  5  7  1  0
  7  8  1  0
  8  9  1  0
  8 14  1  0
  8 30  1  6
  9 13  2  0
  9 10  1  0
 10 11  2  0
 10 31  1  0
 11 12  1  0
 11 32  1  0
 12 13  1  0
 13 33  1  0
 14 15  1  1
 14 16  1  0
 15 34  1  0
 15 35  1  0
 15 36  1  0
 16 23  1  0
 16 17  1  0
 16 37  1  6
 17 18  1  0
 18 23  1  0
 18 19  1  0
 18 38  1  6
 19 20  1  0
 20 21  1  0
 20 22  1  0
 20 39  1  1
 21 40  1  0
 22 23  1  0
 22 41  1  6
 23 24  1  6
 24 42  1  0
M  END
>  <i_m_ct_stereo_status>  (80) 
1

>  <s_m_source_file>  (80) 
/var/tmp/pbs.5076255.sched01/tmp5vb4dkz1/0x5hafel7.sdf

>  <i_m_source_file_index>  (80) 
30

>  <i_lp_mmshare_version>  (80) 
48012

>  <i_f3d_flags>  (80) 
0

>  <s_epik_input>  (80) 
W09IXVtDQEBIXTFPW0NASF0yT1tDQEBIXTNbQ0BAXTIoW09IXSlbQ0BIXTFDKFtDSDNdKT1DKFtDQF0zNFtDSDNdKVtDSDJdQyg9TylPW0NASF00YzVbY0hdW2NIXW9bY0hdNQ==

>  <s_epik_cmdline>  (80) 
J2VwaWtfcHl0aG9uJywgJy1waHQnLCAnMi4wJywgJy1waCcsICc3LjAnLCAnLXRuJywgJzgnLCAnLW1hJywgJzIwMCcsICctaW1hZScsICc8aW5maWxlLm1hZT4nLCAnLW9tYWUnLCAnPG91dGZpbGUubWFlPic=

>  <r_lp_tautomer_probability>  (80) 
1

>  <r_epik_Ionization_Penalty>  (80) 
3.92802e-05

>  <r_epik_Ionization_Penalty_Charging>  (80) 
0

>  <r_epik_Ionization_Penalty_Neutral>  (80) 
3.92802e-05

>  <r_epik_State_Penalty>  (80) 
-0

>  <r_epik_Charging_Adjusted_Penalty>  (80) 
0

>  <i_epik_Tot_Q>  (80) 
0

>  <i_epik_Tot_abs_Q>  (80) 
0

>  <s_epik_Chemistry_Notes>  (80) 
This compound has an ester and may undergo hydrolysis at high or low pH. This compound contains an acetal/aminal-like group ( X-CH(R)-Y where X, Y are N, S, or O) that may be acid/base labile, releasing an aldehyde.

>  <s_lp_Force_Field>  (80) 
OPLS3e

>  <r_lp_Energy>  (80) 
30.6967

>  <b_lp_Chiralities_Consistent>  (80) 
1

>  <s_lp_Variant>  (80) 
17:0-1

>  <s_i_glide_gridfile>  (80) 
pfpi4k_grid

>  <i_i_glide_lignum>  (80) 
30

>  <i_i_glide_rotatable_bonds>  (80) 
3

>  <r_i_docking_score>  (80) 
-4.85158

>  <r_i_glide_ligand_efficiency>  (80) 
-0.202149

>  <r_i_glide_ligand_efficiency_sa>  (80) 
-0.583099

>  <r_i_glide_ligand_efficiency_ln>  (80) 
-1.16121

>  <r_i_glide_gscore>  (80) 
-4.85158

>  <r_i_glide_lipo>  (80) 
-0.901096

>  <r_i_glide_hbond>  (80) 
-0.27212

>  <r_i_glide_metal>  (80) 
-0

>  <r_i_glide_rewards>  (80) 
-1.40061

>  <r_i_glide_evdw>  (80) 
-27.2471

>  <r_i_glide_ecoul>  (80) 
-6.53129

>  <r_i_glide_erotb>  (80) 
0.118111

>  <r_i_glide_esite>  (80) 
-0.0538148

>  <r_i_glide_emodel>  (80) 
-42.6508

>  <r_i_glide_energy>  (80) 
-33.7784

>  <r_i_glide_einternal>  (80) 
2.44175

>  <r_i_glide_intrahb_reward>  (80) 
-0

>  <i_i_glide_confnum>  (80) 
2

>  <i_i_glide_posenum>  (80) 
24

>  <r_i_glide_eff_state_penalty>  (80) 
0

>  <ligand_id>  (80) 
17

>  <original_smiles>  (80) 
CC1=C2CC(=O)OC(c3ccoc3)C2(C)C2OC3OC(O)C1C32O

>  <smiles>  (80) 
[H]OC1([H])OC2([H])OC3([H])C2(O[H])C1([H])C(C([H])([H])[H])=C1C([H])([H])C(=O)OC([H])(c2c([H])oc([H])c2[H])C13C([H])([H])[H]

$$$$
17:0:2
     RDKit          3D

 42 46  0  0  1  0  0  0  0  0999 V2000
    4.9615   -6.2440    1.4132 C   0  0  0  0  0  0  0  0  0  0  0  0
    4.6656   -4.7775    1.1698 C   0  0  0  0  0  0  0  0  0  0  0  0
    5.5908   -3.8718    0.7594 C   0  0  0  0  0  0  0  0  0  0  0  0
    7.0305   -4.2897    0.5107 C   0  0  0  0  0  0  0  0  0  0  0  0
    7.8467   -3.4567   -0.4547 C   0  0  0  0  0  0  0  0  0  0  0  0
    8.9818   -3.8429   -0.7126 O   0  0  0  0  0  0  0  0  0  0  0  0
    7.2819   -2.3008   -0.9454 O   0  0  0  0  0  0  0  0  0  0  0  0
    5.8871   -1.9729   -0.8277 C   0  0  1  0  0  0  0  0  0  0  0  0
    5.0931   -2.4278   -2.0517 C   0  0  0  0  0  0  0  0  0  0  0  0
    3.8755   -1.8968   -2.6040 C   0  0  0  0  0  0  0  0  0  0  0  0
    3.5623   -2.6595   -3.6811 C   0  0  0  0  0  0  0  0  0  0  0  0
    4.5227   -3.5929   -3.9147 O   0  0  0  0  0  0  0  0  0  0  0  0
    5.4229   -3.4347   -2.9104 C   0  0  0  0  0  0  0  0  0  0  0  0
    5.3093   -2.3684    0.5627 C   0  0  2  0  0  0  0  0  0  0  0  0
    6.0392   -1.5866    1.6643 C   0  0  0  0  0  0  0  0  0  0  0  0
    3.8165   -2.0210    0.6598 C   0  0  2  0  0  0  0  0  0  0  0  0
    3.3754   -1.4656    1.9176 O   0  0  0  0  0  0  0  0  0  0  0  0
    2.1770   -2.2557    1.7986 C   0  0  2  0  0  0  0  0  0  0  0  0
    1.9585   -3.0989    2.9195 O   0  0  0  0  0  0  0  0  0  0  0  0
    2.9794   -4.0584    2.9370 C   0  0  1  0  0  0  0  0  0  0  0  0
    2.6560   -5.1735    3.7177 O   0  0  0  0  0  0  0  0  0  0  0  0
    3.2236   -4.4109    1.4574 C   0  0  1  0  0  0  0  0  0  0  0  0
    2.8239   -3.1581    0.7551 C   0  0  2  0  0  0  0  0  0  0  0  0
    2.1474   -3.4575   -0.4398 O   0  0  0  0  0  0  0  0  0  0  0  0
    4.5809   -6.5265    2.3939 H   0  0  0  0  0  0  0  0  0  0  0  0
    6.0219   -6.4891    1.4079 H   0  0  0  0  0  0  0  0  0  0  0  0
    4.4555   -6.8596    0.6682 H   0  0  0  0  0  0  0  0  0  0  0  0
    7.5986   -4.2962    1.4426 H   0  0  0  0  0  0  0  0  0  0  0  0
    7.0688   -5.2956    0.0854 H   0  0  0  0  0  0  0  0  0  0  0  0
    5.8076   -0.8806   -0.8964 H   0  0  0  0  0  0  0  0  0  0  0  0
    3.2575   -1.0710   -2.2669 H   0  0  0  0  0  0  0  0  0  0  0  0
    2.7293   -2.6659   -4.3693 H   0  0  0  0  0  0  0  0  0  0  0  0
    6.2687   -4.1054   -2.9795 H   0  0  0  0  0  0  0  0  0  0  0  0
    5.8839   -0.5071    1.5904 H   0  0  0  0  0  0  0  0  0  0  0  0
    7.1058   -1.7680    1.6176 H   0  0  0  0  0  0  0  0  0  0  0  0
    5.7129   -1.9304    2.6493 H   0  0  0  0  0  0  0  0  0  0  0  0
    3.4968   -1.3046   -0.0909 H   0  0  0  0  0  0  0  0  0  0  0  0
    1.3328   -1.6744    1.4123 H   0  0  0  0  0  0  0  0  0  0  0  0
    3.8679   -3.5902    3.3694 H   0  0  0  0  0  0  0  0  0  0  0  0
    2.6014   -4.8830    4.6244 H   0  0  0  0  0  0  0  0  0  0  0  0
    2.5592   -5.2277    1.1549 H   0  0  0  0  0  0  0  0  0  0  0  0
    2.7881   -3.7230   -1.0986 H   0  0  0  0  0  0  0  0  0  0  0  0
  1  2  1  0
  1 25  1  0
  1 26  1  0
  1 27  1  0
  2 22  1  0
  2  3  2  0
  3 14  1  0
  3  4  1  0
  4  5  1  0
  4 28  1  0
  4 29  1  0
  5  6  2  0
  5  7  1  0
  7  8  1  0
  8  9  1  0
  8 14  1  0
  8 30  1  1
  9 13  2  0
  9 10  1  0
 10 11  2  0
 10 31  1  0
 11 12  1  0
 11 32  1  0
 12 13  1  0
 13 33  1  0
 14 15  1  1
 14 16  1  0
 15 34  1  0
 15 35  1  0
 15 36  1  0
 16 23  1  0
 16 17  1  0
 16 37  1  6
 17 18  1  0
 18 23  1  0
 18 19  1  0
 18 38  1  6
 19 20  1  0
 20 21  1  0
 20 22  1  0
 20 39  1  1
 21 40  1  0
 22 23  1  0
 22 41  1  6
 23 24  1  6
 24 42  1  0
M  END
>  <i_m_ct_stereo_status>  (81) 
1

>  <s_m_source_file>  (81) 
/var/tmp/pbs.5076255.sched01/tmp5vb4dkz1/0x5hafel7.sdf

>  <i_m_source_file_index>  (81) 
30

>  <i_lp_mmshare_version>  (81) 
48012

>  <i_f3d_flags>  (81) 
0

>  <s_epik_input>  (81) 
W09IXVtDQEBIXTFPW0NASF0yT1tDQEBIXTNbQ0BAXTIoW09IXSlbQ0BIXTFDKFtDSDNdKT1DKFtDQF0zNFtDSDNdKVtDSDJdQyg9TylPW0NASF00YzVbY0hdW2NIXW9bY0hdNQ==

>  <s_epik_cmdline>  (81) 
J2VwaWtfcHl0aG9uJywgJy1waHQnLCAnMi4wJywgJy1waCcsICc3LjAnLCAnLXRuJywgJzgnLCAnLW1hJywgJzIwMCcsICctaW1hZScsICc8aW5maWxlLm1hZT4nLCAnLW9tYWUnLCAnPG91dGZpbGUubWFlPic=

>  <r_lp_tautomer_probability>  (81) 
1

>  <r_epik_Ionization_Penalty>  (81) 
3.92802e-05

>  <r_epik_Ionization_Penalty_Charging>  (81) 
0

>  <r_epik_Ionization_Penalty_Neutral>  (81) 
3.92802e-05

>  <r_epik_State_Penalty>  (81) 
-0

>  <r_epik_Charging_Adjusted_Penalty>  (81) 
0

>  <i_epik_Tot_Q>  (81) 
0

>  <i_epik_Tot_abs_Q>  (81) 
0

>  <s_epik_Chemistry_Notes>  (81) 
This compound has an ester and may undergo hydrolysis at high or low pH. This compound contains an acetal/aminal-like group ( X-CH(R)-Y where X, Y are N, S, or O) that may be acid/base labile, releasing an aldehyde.

>  <s_lp_Force_Field>  (81) 
OPLS3e

>  <r_lp_Energy>  (81) 
30.6967

>  <b_lp_Chiralities_Consistent>  (81) 
1

>  <s_lp_Variant>  (81) 
17:0-1

>  <s_i_glide_gridfile>  (81) 
pfpi4k_grid

>  <i_i_glide_lignum>  (81) 
30

>  <i_i_glide_rotatable_bonds>  (81) 
3

>  <r_i_docking_score>  (81) 
-4.42547

>  <r_i_glide_ligand_efficiency>  (81) 
-0.184395

>  <r_i_glide_ligand_efficiency_sa>  (81) 
-0.531886

>  <r_i_glide_ligand_efficiency_ln>  (81) 
-1.05922

>  <r_i_glide_gscore>  (81) 
-4.42547

>  <r_i_glide_lipo>  (81) 
-0.96593

>  <r_i_glide_hbond>  (81) 
-0.272464

>  <r_i_glide_metal>  (81) 
-0

>  <r_i_glide_rewards>  (81) 
-1.39848

>  <r_i_glide_evdw>  (81) 
-27.9421

>  <r_i_glide_ecoul>  (81) 
-3.48968

>  <r_i_glide_erotb>  (81) 
0.16873

>  <r_i_glide_esite>  (81) 
-0.0367723

>  <r_i_glide_emodel>  (81) 
-39.3139

>  <r_i_glide_energy>  (81) 
-31.4318

>  <r_i_glide_einternal>  (81) 
1.82061

>  <r_i_glide_intrahb_reward>  (81) 
-0

>  <i_i_glide_confnum>  (81) 
1

>  <i_i_glide_posenum>  (81) 
11

>  <r_i_glide_eff_state_penalty>  (81) 
0

>  <ligand_id>  (81) 
17

>  <original_smiles>  (81) 
CC1=C2CC(=O)OC(c3ccoc3)C2(C)C2OC3OC(O)C1C32O

>  <smiles>  (81) 
[H]OC1([H])OC2([H])OC3([H])C2(O[H])C1([H])C(C([H])([H])[H])=C1C([H])([H])C(=O)OC([H])(c2c([H])oc([H])c2[H])C13C([H])([H])[H]

$$$$
18:0:0
     RDKit          3D

 32 35  0  0  1  0  0  0  0  0999 V2000
    2.5097   -9.3671    2.1711 C   0  0  0  0  0  0  0  0  0  0  0  0
    2.1768   -7.9942    1.6834 C   0  0  0  0  0  0  0  0  0  0  0  0
    0.9007   -7.5276    1.4969 N   0  0  0  0  0  0  0  0  0  0  0  0
    0.8986   -6.2504    0.9937 N   0  0  0  0  0  0  0  0  0  0  0  0
    2.2088   -5.9107    0.8937 C   0  0  0  0  0  0  0  0  0  0  0  0
    2.7238   -4.7432    0.4768 N   0  0  0  0  0  0  0  0  0  0  0  0
    4.0707   -4.5836    0.3807 C   0  0  0  0  0  0  0  0  0  0  0  0
    4.6714   -3.3837   -0.0926 C   0  0  0  0  0  0  0  0  0  0  0  0
    3.8849   -2.2808   -0.4752 N   0  0  0  0  0  0  0  0  0  0  0  0
    3.2940   -1.5059    0.6011 C   0  0  0  0  0  0  0  0  0  0  0  0
    4.2757   -1.5310   -1.6613 C   0  0  0  0  0  0  0  0  0  0  0  0
    3.2127   -1.2137   -2.6899 C   0  0  0  0  0  0  0  0  0  0  0  0
    4.3110   -2.1971   -3.0219 C   0  0  0  0  0  0  0  0  0  0  0  0
    6.0187   -3.2497   -0.1867 N   0  0  0  0  0  0  0  0  0  0  0  0
    6.8187   -4.2563    0.1916 N   0  0  0  0  0  0  0  0  0  0  0  0
    6.3261   -5.4191    0.6336 N   0  0  0  0  0  0  0  0  0  0  0  0
    4.9855   -5.6181    0.7382 C   0  0  0  0  0  0  0  0  0  0  0  0
    4.4359   -6.8427    1.2010 C   0  0  0  0  0  0  0  0  0  0  0  0
    5.4738   -8.1482    1.6684 Cl  0  0  0  0  0  0  0  0  0  0  0  0
    3.0286   -6.9656    1.2862 C   0  0  0  0  0  0  0  0  0  0  0  0
    0.0420   -8.0530    1.6307 H   0  0  0  0  0  0  0  0  0  0  0  0
    3.0937   -9.3685    3.0906 H   0  0  0  0  0  0  0  0  0  0  0  0
    2.9868   -9.9955    1.4126 H   0  0  0  0  0  0  0  0  0  0  0  0
    1.5710   -9.8650    2.4104 H   0  0  0  0  0  0  0  0  0  0  0  0
    2.6657   -2.1256    1.2406 H   0  0  0  0  0  0  0  0  0  0  0  0
    2.6520   -0.7375    0.1802 H   0  0  0  0  0  0  0  0  0  0  0  0
    4.0385   -0.9863    1.2076 H   0  0  0  0  0  0  0  0  0  0  0  0
    4.9893   -0.7481   -1.4184 H   0  0  0  0  0  0  0  0  0  0  0  0
    2.2148   -1.6114   -2.5100 H   0  0  0  0  0  0  0  0  0  0  0  0
    3.2486   -0.2432   -3.1819 H   0  0  0  0  0  0  0  0  0  0  0  0
    5.0387   -1.8608   -3.7524 H   0  0  0  0  0  0  0  0  0  0  0  0
    4.0675   -3.2590   -3.0567 H   0  0  0  0  0  0  0  0  0  0  0  0
  1  2  1  0
  1 22  1  0
  1 23  1  0
  1 24  1  0
  2 20  2  0
  2  3  1  0
  3 21  1  0
  3  4  1  0
  4  5  2  0
  5 20  1  0
  5  6  1  0
  6  7  2  0
  7 17  1  0
  7  8  1  0
  8  9  1  0
  8 14  2  0
  9 10  1  0
  9 11  1  0
 10 25  1  0
 10 26  1  0
 10 27  1  0
 11 13  1  0
 11 12  1  0
 11 28  1  0
 12 13  1  0
 12 29  1  0
 12 30  1  0
 13 31  1  0
 13 32  1  0
 14 15  1  0
 15 16  2  0
 16 17  1  0
 17 18  2  0
 18 19  1  0
 18 20  1  0
M  END
>  <i_m_ct_stereo_status>  (82) 
1

>  <s_m_source_file>  (82) 
/var/tmp/pbs.5076255.sched01/tmp5vb4dkz1/0x5hafel7.sdf

>  <i_m_source_file_index>  (82) 
31

>  <i_lp_mmshare_version>  (82) 
48012

>  <i_f3d_flags>  (82) 
0

>  <s_epik_input>  (82) 
bjFbbkhdYyhbQ0gzXSljKGMxMiljKENsKWMzYyhuMiljKG5ubjMpTihbQ0gzXSlbQ0hdNFtDSDJdW0NIMl00

>  <s_epik_cmdline>  (82) 
J2VwaWtfcHl0aG9uJywgJy1waHQnLCAnMi4wJywgJy1waCcsICc3LjAnLCAnLXRuJywgJzgnLCAnLW1hJywgJzIwMCcsICctaW1hZScsICc8aW5maWxlLm1hZT4nLCAnLW9tYWUnLCAnPG91dGZpbGUubWFlPic=

>  <r_lp_tautomer_probability>  (82) 
1

>  <r_epik_Ionization_Penalty>  (82) 
3.18901e-05

>  <r_epik_Ionization_Penalty_Charging>  (82) 
0

>  <r_epik_Ionization_Penalty_Neutral>  (82) 
3.18901e-05

>  <r_epik_State_Penalty>  (82) 
-0

>  <r_epik_Charging_Adjusted_Penalty>  (82) 
0

>  <i_epik_Tot_Q>  (82) 
0

>  <i_epik_Tot_abs_Q>  (82) 
0

>  <s_lp_Force_Field>  (82) 
OPLS3e

>  <r_lp_Energy>  (82) 
37.0592

>  <b_lp_Chiralities_Consistent>  (82) 
1

>  <s_lp_Variant>  (82) 
18:0-1

>  <s_i_glide_gridfile>  (82) 
pfpi4k_grid

>  <i_i_glide_lignum>  (82) 
31

>  <i_i_glide_rotatable_bonds>  (82) 
2

>  <r_i_docking_score>  (82) 
-3.75144

>  <r_i_glide_ligand_efficiency>  (82) 
-0.187572

>  <r_i_glide_ligand_efficiency_sa>  (82) 
-0.509149

>  <r_i_glide_ligand_efficiency_ln>  (82) 
-0.938863

>  <r_i_glide_gscore>  (82) 
-3.75144

>  <r_i_glide_lipo>  (82) 
-0.488169

>  <r_i_glide_hbond>  (82) 
-0.16

>  <r_i_glide_metal>  (82) 
-0

>  <r_i_glide_rewards>  (82) 
-1.4337

>  <r_i_glide_evdw>  (82) 
-24.8053

>  <r_i_glide_ecoul>  (82) 
-4.88168

>  <r_i_glide_erotb>  (82) 
0.433967

>  <r_i_glide_esite>  (82) 
-0.131019

>  <r_i_glide_emodel>  (82) 
-36.4983

>  <r_i_glide_energy>  (82) 
-29.687

>  <r_i_glide_einternal>  (82) 
1.47947

>  <r_i_glide_intrahb_reward>  (82) 
-0

>  <i_i_glide_confnum>  (82) 
3

>  <i_i_glide_posenum>  (82) 
1

>  <r_i_glide_eff_state_penalty>  (82) 
0

>  <ligand_id>  (82) 
18

>  <original_smiles>  (82) 
Cc1[nH]nc2nc3c(N(C)C4CC4)nnnc3c(Cl)c12

>  <smiles>  (82) 
[H]n1nc2nc3c(N(C([H])([H])[H])C4([H])C([H])([H])C4([H])[H])nnnc3c(Cl)c2c1C([H])([H])[H]

$$$$
18:0:1
     RDKit          3D

 32 35  0  0  1  0  0  0  0  0999 V2000
   -0.7531   -8.6643    3.7600 C   0  0  0  0  0  0  0  0  0  0  0  0
    0.0698   -7.7012    2.9677 C   0  0  0  0  0  0  0  0  0  0  0  0
    0.4228   -7.8734    1.6558 N   0  0  0  0  0  0  0  0  0  0  0  0
    1.1706   -6.8352    1.1838 N   0  0  0  0  0  0  0  0  0  0  0  0
    1.3325   -6.0191    2.2435 C   0  0  0  0  0  0  0  0  0  0  0  0
    2.0029   -4.8606    2.2689 N   0  0  0  0  0  0  0  0  0  0  0  0
    1.9854   -4.0776    3.3720 C   0  0  0  0  0  0  0  0  0  0  0  0
    2.6199   -2.8072    3.4252 C   0  0  0  0  0  0  0  0  0  0  0  0
    3.3250   -2.2563    2.3176 N   0  0  0  0  0  0  0  0  0  0  0  0
    2.6275   -2.1277    1.0389 C   0  0  0  0  0  0  0  0  0  0  0  0
    4.3333   -1.2246    2.5561 C   0  0  0  0  0  0  0  0  0  0  0  0
    5.7577   -1.4774    2.0984 C   0  0  0  0  0  0  0  0  0  0  0  0
    5.4363   -1.4126    3.5751 C   0  0  0  0  0  0  0  0  0  0  0  0
    2.6030   -2.0808    4.5779 N   0  0  0  0  0  0  0  0  0  0  0  0
    2.0077   -2.5538    5.6820 N   0  0  0  0  0  0  0  0  0  0  0  0
    1.3625   -3.7217    5.6792 N   0  0  0  0  0  0  0  0  0  0  0  0
    1.3243   -4.4952    4.5669 C   0  0  0  0  0  0  0  0  0  0  0  0
    0.6445   -5.7371    4.5521 C   0  0  0  0  0  0  0  0  0  0  0  0
   -0.1859   -6.2756    5.9620 Cl  0  0  0  0  0  0  0  0  0  0  0  0
    0.6405   -6.4842    3.3558 C   0  0  0  0  0  0  0  0  0  0  0  0
    0.2138   -8.6790    1.0667 H   0  0  0  0  0  0  0  0  0  0  0  0
   -1.6882   -8.2315    4.1355 H   0  0  0  0  0  0  0  0  0  0  0  0
   -0.1912   -9.1241    4.5812 H   0  0  0  0  0  0  0  0  0  0  0  0
   -1.0398   -9.4844    3.0997 H   0  0  0  0  0  0  0  0  0  0  0  0
    2.2296   -3.0584    0.6386 H   0  0  0  0  0  0  0  0  0  0  0  0
    3.3090   -1.7622    0.2735 H   0  0  0  0  0  0  0  0  0  0  0  0
    1.8189   -1.4043    1.1155 H   0  0  0  0  0  0  0  0  0  0  0  0
    3.9336   -0.2246    2.4017 H   0  0  0  0  0  0  0  0  0  0  0  0
    5.9809   -2.4539    1.6683 H   0  0  0  0  0  0  0  0  0  0  0  0
    6.3379   -0.6516    1.6923 H   0  0  0  0  0  0  0  0  0  0  0  0
    5.7761   -0.5334    4.1187 H   0  0  0  0  0  0  0  0  0  0  0  0
    5.4520   -2.3437    4.1404 H   0  0  0  0  0  0  0  0  0  0  0  0
  1  2  1  0
  1 22  1  0
  1 23  1  0
  1 24  1  0
  2 20  2  0
  2  3  1  0
  3 21  1  0
  3  4  1  0
  4  5  2  0
  5 20  1  0
  5  6  1  0
  6  7  2  0
  7 17  1  0
  7  8  1  0
  8  9  1  0
  8 14  2  0
  9 10  1  0
  9 11  1  0
 10 25  1  0
 10 26  1  0
 10 27  1  0
 11 13  1  0
 11 12  1  0
 11 28  1  0
 12 13  1  0
 12 29  1  0
 12 30  1  0
 13 31  1  0
 13 32  1  0
 14 15  1  0
 15 16  2  0
 16 17  1  0
 17 18  2  0
 18 19  1  0
 18 20  1  0
M  END
>  <i_m_ct_stereo_status>  (83) 
1

>  <s_m_source_file>  (83) 
/var/tmp/pbs.5076255.sched01/tmp5vb4dkz1/0x5hafel7.sdf

>  <i_m_source_file_index>  (83) 
31

>  <i_lp_mmshare_version>  (83) 
48012

>  <i_f3d_flags>  (83) 
0

>  <s_epik_input>  (83) 
bjFbbkhdYyhbQ0gzXSljKGMxMiljKENsKWMzYyhuMiljKG5ubjMpTihbQ0gzXSlbQ0hdNFtDSDJdW0NIMl00

>  <s_epik_cmdline>  (83) 
J2VwaWtfcHl0aG9uJywgJy1waHQnLCAnMi4wJywgJy1waCcsICc3LjAnLCAnLXRuJywgJzgnLCAnLW1hJywgJzIwMCcsICctaW1hZScsICc8aW5maWxlLm1hZT4nLCAnLW9tYWUnLCAnPG91dGZpbGUubWFlPic=

>  <r_lp_tautomer_probability>  (83) 
1

>  <r_epik_Ionization_Penalty>  (83) 
3.18901e-05

>  <r_epik_Ionization_Penalty_Charging>  (83) 
0

>  <r_epik_Ionization_Penalty_Neutral>  (83) 
3.18901e-05

>  <r_epik_State_Penalty>  (83) 
-0

>  <r_epik_Charging_Adjusted_Penalty>  (83) 
0

>  <i_epik_Tot_Q>  (83) 
0

>  <i_epik_Tot_abs_Q>  (83) 
0

>  <s_lp_Force_Field>  (83) 
OPLS3e

>  <r_lp_Energy>  (83) 
37.0592

>  <b_lp_Chiralities_Consistent>  (83) 
1

>  <s_lp_Variant>  (83) 
18:0-1

>  <s_i_glide_gridfile>  (83) 
pfpi4k_grid

>  <i_i_glide_lignum>  (83) 
31

>  <i_i_glide_rotatable_bonds>  (83) 
2

>  <r_i_docking_score>  (83) 
-3.50553

>  <r_i_glide_ligand_efficiency>  (83) 
-0.175277

>  <r_i_glide_ligand_efficiency_sa>  (83) 
-0.475774

>  <r_i_glide_ligand_efficiency_ln>  (83) 
-0.87732

>  <r_i_glide_gscore>  (83) 
-3.50553

>  <r_i_glide_lipo>  (83) 
-0.223175

>  <r_i_glide_hbond>  (83) 
-0.32

>  <r_i_glide_metal>  (83) 
-0

>  <r_i_glide_rewards>  (83) 
-1.4337

>  <r_i_glide_evdw>  (83) 
-17.0504

>  <r_i_glide_ecoul>  (83) 
-6.58305

>  <r_i_glide_erotb>  (83) 
0.433967

>  <r_i_glide_esite>  (83) 
-0.122643

>  <r_i_glide_emodel>  (83) 
-30.3451

>  <r_i_glide_energy>  (83) 
-23.6335

>  <r_i_glide_einternal>  (83) 
0.325967

>  <r_i_glide_intrahb_reward>  (83) 
-0

>  <i_i_glide_confnum>  (83) 
3

>  <i_i_glide_posenum>  (83) 
23

>  <r_i_glide_eff_state_penalty>  (83) 
0

>  <ligand_id>  (83) 
18

>  <original_smiles>  (83) 
Cc1[nH]nc2nc3c(N(C)C4CC4)nnnc3c(Cl)c12

>  <smiles>  (83) 
[H]n1nc2nc3c(N(C([H])([H])[H])C4([H])C([H])([H])C4([H])[H])nnnc3c(Cl)c2c1C([H])([H])[H]

$$$$
18:0:2
     RDKit          3D

 32 35  0  0  1  0  0  0  0  0999 V2000
    0.5206   -9.8665    3.1753 C   0  0  0  0  0  0  0  0  0  0  0  0
    0.5614   -8.5427    2.4817 C   0  0  0  0  0  0  0  0  0  0  0  0
   -0.5484   -7.8137    2.1286 N   0  0  0  0  0  0  0  0  0  0  0  0
   -0.2110   -6.6590    1.4767 N   0  0  0  0  0  0  0  0  0  0  0  0
    1.1380   -6.6735    1.4292 C   0  0  0  0  0  0  0  0  0  0  0  0
    1.9286   -5.7314    0.8778 N   0  0  0  0  0  0  0  0  0  0  0  0
    3.2709   -5.8810    0.8904 C   0  0  0  0  0  0  0  0  0  0  0  0
    4.1789   -4.9281    0.3261 C   0  0  0  0  0  0  0  0  0  0  0  0
    3.7804   -3.6794   -0.2231 N   0  0  0  0  0  0  0  0  0  0  0  0
    3.0002   -2.7807    0.6140 C   0  0  0  0  0  0  0  0  0  0  0  0
    4.5297   -3.0660   -1.3307 C   0  0  0  0  0  0  0  0  0  0  0  0
    6.0154   -2.7271   -1.2305 C   0  0  0  0  0  0  0  0  0  0  0  0
    5.0052   -1.6178   -1.2270 C   0  0  0  0  0  0  0  0  0  0  0  0
    5.5115   -5.1644    0.3437 N   0  0  0  0  0  0  0  0  0  0  0  0
    6.0188   -6.2601    0.9193 N   0  0  0  0  0  0  0  0  0  0  0  0
    5.2259   -7.1800    1.4758 N   0  0  0  0  0  0  0  0  0  0  0  0
    3.8850   -7.0331    1.4737 C   0  0  0  0  0  0  0  0  0  0  0  0
    3.0521   -8.0221    2.0537 C   0  0  0  0  0  0  0  0  0  0  0  0
    3.7418   -9.4398    2.7761 Cl  0  0  0  0  0  0  0  0  0  0  0  0
    1.6600   -7.8134    2.0274 C   0  0  0  0  0  0  0  0  0  0  0  0
   -1.5039   -8.0882    2.2762 H   0  0  0  0  0  0  0  0  0  0  0  0
    1.0544   -9.8585    4.1262 H   0  0  0  0  0  0  0  0  0  0  0  0
    0.8851  -10.6755    2.5416 H   0  0  0  0  0  0  0  0  0  0  0  0
   -0.5161  -10.0889    3.3985 H   0  0  0  0  0  0  0  0  0  0  0  0
    2.1506   -3.2256    1.1331 H   0  0  0  0  0  0  0  0  0  0  0  0
    2.6122   -1.9555    0.0216 H   0  0  0  0  0  0  0  0  0  0  0  0
    3.6604   -2.3427    1.3546 H   0  0  0  0  0  0  0  0  0  0  0  0
    4.1206   -3.3692   -2.2947 H   0  0  0  0  0  0  0  0  0  0  0  0
    6.5584   -2.8574   -0.2915 H   0  0  0  0  0  0  0  0  0  0  0  0
    6.6095   -2.8864   -2.1283 H   0  0  0  0  0  0  0  0  0  0  0  0
    4.9835   -0.9800   -2.1105 H   0  0  0  0  0  0  0  0  0  0  0  0
    4.8994   -1.0807   -0.2843 H   0  0  0  0  0  0  0  0  0  0  0  0
  1  2  1  0
  1 22  1  0
  1 23  1  0
  1 24  1  0
  2 20  2  0
  2  3  1  0
  3 21  1  0
  3  4  1  0
  4  5  2  0
  5 20  1  0
  5  6  1  0
  6  7  2  0
  7 17  1  0
  7  8  1  0
  8  9  1  0
  8 14  2  0
  9 10  1  0
  9 11  1  0
 10 25  1  0
 10 26  1  0
 10 27  1  0
 11 13  1  0
 11 12  1  0
 11 28  1  0
 12 13  1  0
 12 29  1  0
 12 30  1  0
 13 31  1  0
 13 32  1  0
 14 15  1  0
 15 16  2  0
 16 17  1  0
 17 18  2  0
 18 19  1  0
 18 20  1  0
M  END
>  <i_m_ct_stereo_status>  (84) 
1

>  <s_m_source_file>  (84) 
/var/tmp/pbs.5076255.sched01/tmp5vb4dkz1/0x5hafel7.sdf

>  <i_m_source_file_index>  (84) 
31

>  <i_lp_mmshare_version>  (84) 
48012

>  <i_f3d_flags>  (84) 
0

>  <s_epik_input>  (84) 
bjFbbkhdYyhbQ0gzXSljKGMxMiljKENsKWMzYyhuMiljKG5ubjMpTihbQ0gzXSlbQ0hdNFtDSDJdW0NIMl00

>  <s_epik_cmdline>  (84) 
J2VwaWtfcHl0aG9uJywgJy1waHQnLCAnMi4wJywgJy1waCcsICc3LjAnLCAnLXRuJywgJzgnLCAnLW1hJywgJzIwMCcsICctaW1hZScsICc8aW5maWxlLm1hZT4nLCAnLW9tYWUnLCAnPG91dGZpbGUubWFlPic=

>  <r_lp_tautomer_probability>  (84) 
1

>  <r_epik_Ionization_Penalty>  (84) 
3.18901e-05

>  <r_epik_Ionization_Penalty_Charging>  (84) 
0

>  <r_epik_Ionization_Penalty_Neutral>  (84) 
3.18901e-05

>  <r_epik_State_Penalty>  (84) 
-0

>  <r_epik_Charging_Adjusted_Penalty>  (84) 
0

>  <i_epik_Tot_Q>  (84) 
0

>  <i_epik_Tot_abs_Q>  (84) 
0

>  <s_lp_Force_Field>  (84) 
OPLS3e

>  <r_lp_Energy>  (84) 
37.0592

>  <b_lp_Chiralities_Consistent>  (84) 
1

>  <s_lp_Variant>  (84) 
18:0-1

>  <s_i_glide_gridfile>  (84) 
pfpi4k_grid

>  <i_i_glide_lignum>  (84) 
31

>  <i_i_glide_rotatable_bonds>  (84) 
2

>  <r_i_docking_score>  (84) 
-3.43162

>  <r_i_glide_ligand_efficiency>  (84) 
-0.171581

>  <r_i_glide_ligand_efficiency_sa>  (84) 
-0.465743

>  <r_i_glide_ligand_efficiency_ln>  (84) 
-0.858822

>  <r_i_glide_gscore>  (84) 
-3.43162

>  <r_i_glide_lipo>  (84) 
-0.100004

>  <r_i_glide_hbond>  (84) 
-0.282717

>  <r_i_glide_metal>  (84) 
-0

>  <r_i_glide_rewards>  (84) 
-1.4337

>  <r_i_glide_evdw>  (84) 
-25.1878

>  <r_i_glide_ecoul>  (84) 
-4.3099

>  <r_i_glide_erotb>  (84) 
0.433967

>  <r_i_glide_esite>  (84) 
-0.143286

>  <r_i_glide_emodel>  (84) 
-34.0991

>  <r_i_glide_energy>  (84) 
-29.4977

>  <r_i_glide_einternal>  (84) 
4.49611

>  <r_i_glide_intrahb_reward>  (84) 
-0

>  <i_i_glide_confnum>  (84) 
3

>  <i_i_glide_posenum>  (84) 
35

>  <r_i_glide_eff_state_penalty>  (84) 
0

>  <ligand_id>  (84) 
18

>  <original_smiles>  (84) 
Cc1[nH]nc2nc3c(N(C)C4CC4)nnnc3c(Cl)c12

>  <smiles>  (84) 
[H]n1nc2nc3c(N(C([H])([H])[H])C4([H])C([H])([H])C4([H])[H])nnnc3c(Cl)c2c1C([H])([H])[H]

$$$$
19:0:0
     RDKit          3D

 38 41  0  0  1  0  0  0  0  0999 V2000
    1.1983   -0.0263    2.0926 C   0  0  0  0  0  0  0  0  0  0  0  0
    0.3973    1.0741    2.0538 C   0  0  0  0  0  0  0  0  0  0  0  0
   -0.2159    1.0864    3.2879 N   0  0  0  0  0  0  0  0  0  0  0  0
   -1.1902    2.0399    3.7952 C   0  0  2  0  0  0  0  0  0  0  0  0
   -0.6451    3.4566    3.8664 C   0  0  0  0  0  0  0  0  0  0  0  0
   -1.4652    4.1257    4.8216 O   0  0  0  0  0  0  0  0  0  0  0  0
   -2.1610    3.1092    5.6087 N   0  0  0  0  0  0  0  0  0  0  0  0
   -2.0002    3.4892    7.0131 C   0  0  2  0  0  0  0  0  0  0  0  0
   -0.5311    3.7505    7.4530 C   0  0  0  0  0  0  0  0  0  0  0  0
   -0.4367    4.0142    8.9696 C   0  0  1  0  0  0  0  0  0  0  0  0
   -1.4067    5.1208    9.4227 C   0  0  0  0  0  0  0  0  0  0  0  0
   -2.7270    4.3911    9.7475 C   0  0  0  0  0  0  0  0  0  0  0  0
   -2.4579    2.9026    9.4619 C   0  0  2  0  0  0  0  0  0  0  0  0
   -0.9549    2.7842    9.7185 C   0  0  0  0  0  0  0  0  0  0  0  0
   -2.7444    2.5412    7.9845 C   0  0  0  0  0  0  0  0  0  0  0  0
   -1.5752    1.8267    5.2458 C   0  0  0  0  0  0  0  0  0  0  0  0
    0.1690    0.0099    4.0217 N   0  0  0  0  0  0  0  0  0  0  0  0
    1.0258   -0.6554    3.3183 N   0  0  0  0  0  0  0  0  0  0  0  0
    1.8568   -0.4224    1.3375 H   0  0  0  0  0  0  0  0  0  0  0  0
    0.2176    1.8048    1.2808 H   0  0  0  0  0  0  0  0  0  0  0  0
   -2.0762    2.0126    3.1570 H   0  0  0  0  0  0  0  0  0  0  0  0
    0.3909    3.4582    4.2142 H   0  0  0  0  0  0  0  0  0  0  0  0
   -0.6683    3.9601    2.8992 H   0  0  0  0  0  0  0  0  0  0  0  0
   -2.5192    4.4412    7.0841 H   0  0  0  0  0  0  0  0  0  0  0  0
    0.1260    2.9116    7.2286 H   0  0  0  0  0  0  0  0  0  0  0  0
   -0.1241    4.6028    6.9105 H   0  0  0  0  0  0  0  0  0  0  0  0
    0.5952    4.2464    9.2385 H   0  0  0  0  0  0  0  0  0  0  0  0
   -1.0246    5.6075   10.3201 H   0  0  0  0  0  0  0  0  0  0  0  0
   -1.5315    5.8964    8.6655 H   0  0  0  0  0  0  0  0  0  0  0  0
   -2.9694    4.5289   10.8018 H   0  0  0  0  0  0  0  0  0  0  0  0
   -3.5704    4.7775    9.1733 H   0  0  0  0  0  0  0  0  0  0  0  0
   -3.0278    2.2595   10.1379 H   0  0  0  0  0  0  0  0  0  0  0  0
   -0.5258    1.8463    9.3596 H   0  0  0  0  0  0  0  0  0  0  0  0
   -0.7400    2.8666   10.7862 H   0  0  0  0  0  0  0  0  0  0  0  0
   -3.8150    2.5925    7.7948 H   0  0  0  0  0  0  0  0  0  0  0  0
   -2.4564    1.5037    7.8184 H   0  0  0  0  0  0  0  0  0  0  0  0
   -2.2787    1.0037    5.3809 H   0  0  0  0  0  0  0  0  0  0  0  0
   -0.6864    1.6111    5.8395 H   0  0  0  0  0  0  0  0  0  0  0  0
  1 18  1  0
  1  2  2  0
  1 19  1  0
  2  3  1  0
  2 20  1  0
  3  4  1  0
  3 17  1  0
  4 16  1  0
  4  5  1  0
  4 21  1  6
  5  6  1  0
  5 22  1  0
  5 23  1  0
  6  7  1  0
  7  8  1  0
  7 16  1  0
  8 15  1  0
  8  9  1  0
  8 24  1  6
  9 10  1  0
  9 25  1  0
  9 26  1  0
 10 14  1  0
 10 11  1  0
 10 27  1  1
 11 12  1  0
 11 28  1  0
 11 29  1  0
 12 13  1  0
 12 30  1  0
 12 31  1  0
 13 14  1  0
 13 15  1  0
 13 32  1  1
 14 33  1  0
 14 34  1  0
 15 35  1  0
 15 36  1  0
 16 37  1  0
 16 38  1  0
 17 18  2  0
M  END
>  <i_m_ct_stereo_status>  (85) 
1

>  <s_m_source_file>  (85) 
/var/tmp/pbs.5076255.sched01/tmp5vb4dkz1/0x5hafel7.sdf

>  <i_m_source_file_index>  (85) 
32

>  <i_lp_mmshare_version>  (85) 
48012

>  <i_f3d_flags>  (85) 
0

>  <s_epik_input>  (85) 
bjFuW2NIXVtjSF1uMVtDQEBIXTJbQ0gyXU9OKFtDSDJdMilbQ0BIXShbQ0gyXVtDQEBIXTM0KVtDSDJdW0NAQEhdKFtDSDJdNClbQ0gyXVtDSDJdMw==

>  <s_epik_cmdline>  (85) 
J2VwaWtfcHl0aG9uJywgJy1waHQnLCAnMi4wJywgJy1waCcsICc3LjAnLCAnLXRuJywgJzgnLCAnLW1hJywgJzIwMCcsICctaW1hZScsICc8aW5maWxlLm1hZT4nLCAnLW9tYWUnLCAnPG91dGZpbGUubWFlPic=

>  <r_lp_tautomer_probability>  (85) 
1

>  <r_epik_Ionization_Penalty>  (85) 
0.000915614

>  <r_epik_Ionization_Penalty_Charging>  (85) 
0

>  <r_epik_Ionization_Penalty_Neutral>  (85) 
0.000915614

>  <r_epik_State_Penalty>  (85) 
0.000589362

>  <r_epik_Charging_Adjusted_Penalty>  (85) 
0.000589362

>  <i_epik_Tot_Q>  (85) 
0

>  <i_epik_Tot_abs_Q>  (85) 
0

>  <s_epik_Chemistry_Notes>  (85) 
This compound has a N-S or N-O group and may undergo hydrolysis at high or low pH.

>  <s_lp_Force_Field>  (85) 
OPLS3e

>  <r_lp_Energy>  (85) 
31.8537

>  <b_lp_Chiralities_Consistent>  (85) 
1

>  <s_lp_Variant>  (85) 
19:0-1

>  <s_i_glide_gridfile>  (85) 
pfpi4k_grid

>  <i_i_glide_lignum>  (85) 
32

>  <i_i_glide_rotatable_bonds>  (85) 
2

>  <r_i_docking_score>  (85) 
-2.77594

>  <r_i_glide_ligand_efficiency>  (85) 
-0.154219

>  <r_i_glide_ligand_efficiency_sa>  (85) 
-0.404168

>  <r_i_glide_ligand_efficiency_ln>  (85) 
-0.713542

>  <r_i_glide_gscore>  (85) 
-2.77594

>  <r_i_glide_lipo>  (85) 
-0.160894

>  <r_i_glide_hbond>  (85) 
0

>  <r_i_glide_metal>  (85) 
-0

>  <r_i_glide_rewards>  (85) 
-1.73256

>  <r_i_glide_evdw>  (85) 
-21.2229

>  <r_i_glide_ecoul>  (85) 
-1.8617

>  <r_i_glide_erotb>  (85) 
0.566492

>  <r_i_glide_esite>  (85) 
-0.108581

>  <r_i_glide_emodel>  (85) 
-27.0035

>  <r_i_glide_energy>  (85) 
-23.0846

>  <r_i_glide_einternal>  (85) 
1.70306

>  <r_i_glide_intrahb_reward>  (85) 
-0

>  <i_i_glide_confnum>  (85) 
5

>  <i_i_glide_posenum>  (85) 
1

>  <r_i_glide_eff_state_penalty>  (85) 
0

>  <ligand_id>  (85) 
19

>  <original_smiles>  (85) 
c1cn(C2CON(C3CC4CCC(C4)C3)C2)nn1

>  <smiles>  (85) 
[H]c1nnn(C2([H])C([H])([H])ON(C3([H])C([H])([H])C4([H])C([H])([H])C([H])([H])C([H])(C3([H])[H])C4([H])[H])C2([H])[H])c1[H]

$$$$
19:0:1
     RDKit          3D

 38 41  0  0  1  0  0  0  0  0999 V2000
    1.8216    0.7045    1.9627 C   0  0  0  0  0  0  0  0  0  0  0  0
    0.5915    1.2887    1.9371 C   0  0  0  0  0  0  0  0  0  0  0  0
    0.4818    1.8888    3.1709 N   0  0  0  0  0  0  0  0  0  0  0  0
   -0.6368    2.6570    3.6881 C   0  0  2  0  0  0  0  0  0  0  0  0
   -0.3092    4.1131    3.9656 C   0  0  0  0  0  0  0  0  0  0  0  0
   -1.3050    4.5298    4.8958 O   0  0  0  0  0  0  0  0  0  0  0  0
   -1.8954    3.3327    5.5002 N   0  0  0  0  0  0  0  0  0  0  0  0
   -1.9125    3.5519    6.9475 C   0  0  2  0  0  0  0  0  0  0  0  0
   -0.5476    3.9893    7.5517 C   0  0  0  0  0  0  0  0  0  0  0  0
   -0.6124    4.0739    9.0912 C   0  0  1  0  0  0  0  0  0  0  0  0
   -1.7873    4.9453    9.5731 C   0  0  0  0  0  0  0  0  0  0  0  0
   -2.9855    3.9785    9.6860 C   0  0  0  0  0  0  0  0  0  0  0  0
   -2.4435    2.6026    9.2595 C   0  0  2  0  0  0  0  0  0  0  0  0
   -0.9670    2.6931    9.6453 C   0  0  0  0  0  0  0  0  0  0  0  0
   -2.5543    2.3800    7.7311 C   0  0  0  0  0  0  0  0  0  0  0  0
   -1.0993    2.1965    5.0538 C   0  0  0  0  0  0  0  0  0  0  0  0
    1.6038    1.6888    3.9071 N   0  0  0  0  0  0  0  0  0  0  0  0
    2.4108    0.9697    3.1932 N   0  0  0  0  0  0  0  0  0  0  0  0
    2.3252    0.1327    1.1999 H   0  0  0  0  0  0  0  0  0  0  0  0
   -0.1741    1.3451    1.1822 H   0  0  0  0  0  0  0  0  0  0  0  0
   -1.4638    2.6024    2.9756 H   0  0  0  0  0  0  0  0  0  0  0  0
    0.6785    4.2268    4.4164 H   0  0  0  0  0  0  0  0  0  0  0  0
   -0.3321    4.7237    3.0626 H   0  0  0  0  0  0  0  0  0  0  0  0
   -2.5946    4.3886    7.0747 H   0  0  0  0  0  0  0  0  0  0  0  0
    0.2558    3.3013    7.2916 H   0  0  0  0  0  0  0  0  0  0  0  0
   -0.2541    4.9583    7.1511 H   0  0  0  0  0  0  0  0  0  0  0  0
    0.3418    4.4332    9.4812 H   0  0  0  0  0  0  0  0  0  0  0  0
   -1.5629    5.3685   10.5527 H   0  0  0  0  0  0  0  0  0  0  0  0
   -1.9869    5.7812    8.9007 H   0  0  0  0  0  0  0  0  0  0  0  0
   -3.3219    3.9371   10.7224 H   0  0  0  0  0  0  0  0  0  0  0  0
   -3.8372    4.2957    9.0853 H   0  0  0  0  0  0  0  0  0  0  0  0
   -2.9491    1.8068    9.8066 H   0  0  0  0  0  0  0  0  0  0  0  0
   -0.3579    1.8897    9.2259 H   0  0  0  0  0  0  0  0  0  0  0  0
   -0.8507    2.6745   10.7314 H   0  0  0  0  0  0  0  0  0  0  0  0
   -3.6010    2.2884    7.4477 H   0  0  0  0  0  0  0  0  0  0  0  0
   -2.0843    1.4293    7.4797 H   0  0  0  0  0  0  0  0  0  0  0  0
   -1.6942    1.2820    5.0141 H   0  0  0  0  0  0  0  0  0  0  0  0
   -0.2439    2.0200    5.7068 H   0  0  0  0  0  0  0  0  0  0  0  0
  1 18  1  0
  1  2  2  0
  1 19  1  0
  2  3  1  0
  2 20  1  0
  3  4  1  0
  3 17  1  0
  4 16  1  0
  4  5  1  0
  4 21  1  6
  5  6  1  0
  5 22  1  0
  5 23  1  0
  6  7  1  0
  7  8  1  0
  7 16  1  0
  8 15  1  0
  8  9  1  0
  8 24  1  6
  9 10  1  0
  9 25  1  0
  9 26  1  0
 10 14  1  0
 10 11  1  0
 10 27  1  1
 11 12  1  0
 11 28  1  0
 11 29  1  0
 12 13  1  0
 12 30  1  0
 12 31  1  0
 13 14  1  0
 13 15  1  0
 13 32  1  1
 14 33  1  0
 14 34  1  0
 15 35  1  0
 15 36  1  0
 16 37  1  0
 16 38  1  0
 17 18  2  0
M  END
>  <i_m_ct_stereo_status>  (86) 
1

>  <s_m_source_file>  (86) 
/var/tmp/pbs.5076255.sched01/tmp5vb4dkz1/0x5hafel7.sdf

>  <i_m_source_file_index>  (86) 
32

>  <i_lp_mmshare_version>  (86) 
48012

>  <i_f3d_flags>  (86) 
0

>  <s_epik_input>  (86) 
bjFuW2NIXVtjSF1uMVtDQEBIXTJbQ0gyXU9OKFtDSDJdMilbQ0BIXShbQ0gyXVtDQEBIXTM0KVtDSDJdW0NAQEhdKFtDSDJdNClbQ0gyXVtDSDJdMw==

>  <s_epik_cmdline>  (86) 
J2VwaWtfcHl0aG9uJywgJy1waHQnLCAnMi4wJywgJy1waCcsICc3LjAnLCAnLXRuJywgJzgnLCAnLW1hJywgJzIwMCcsICctaW1hZScsICc8aW5maWxlLm1hZT4nLCAnLW9tYWUnLCAnPG91dGZpbGUubWFlPic=

>  <r_lp_tautomer_probability>  (86) 
1

>  <r_epik_Ionization_Penalty>  (86) 
0.000915614

>  <r_epik_Ionization_Penalty_Charging>  (86) 
0

>  <r_epik_Ionization_Penalty_Neutral>  (86) 
0.000915614

>  <r_epik_State_Penalty>  (86) 
0.000589362

>  <r_epik_Charging_Adjusted_Penalty>  (86) 
0.000589362

>  <i_epik_Tot_Q>  (86) 
0

>  <i_epik_Tot_abs_Q>  (86) 
0

>  <s_epik_Chemistry_Notes>  (86) 
This compound has a N-S or N-O group and may undergo hydrolysis at high or low pH.

>  <s_lp_Force_Field>  (86) 
OPLS3e

>  <r_lp_Energy>  (86) 
31.8537

>  <b_lp_Chiralities_Consistent>  (86) 
1

>  <s_lp_Variant>  (86) 
19:0-1

>  <s_i_glide_gridfile>  (86) 
pfpi4k_grid

>  <i_i_glide_lignum>  (86) 
32

>  <i_i_glide_rotatable_bonds>  (86) 
2

>  <r_i_docking_score>  (86) 
-2.75979

>  <r_i_glide_ligand_efficiency>  (86) 
-0.153322

>  <r_i_glide_ligand_efficiency_sa>  (86) 
-0.401816

>  <r_i_glide_ligand_efficiency_ln>  (86) 
-0.70939

>  <r_i_glide_gscore>  (86) 
-2.75979

>  <r_i_glide_lipo>  (86) 
-0.103125

>  <r_i_glide_hbond>  (86) 
0

>  <r_i_glide_metal>  (86) 
-0

>  <r_i_glide_rewards>  (86) 
-1.71597

>  <r_i_glide_evdw>  (86) 
-20.0563

>  <r_i_glide_ecoul>  (86) 
-2.52437

>  <r_i_glide_erotb>  (86) 
0.566492

>  <r_i_glide_esite>  (86) 
-0.125716

>  <r_i_glide_emodel>  (86) 
-26.9284

>  <r_i_glide_energy>  (86) 
-22.5806

>  <r_i_glide_einternal>  (86) 
0.858188

>  <r_i_glide_intrahb_reward>  (86) 
-0

>  <i_i_glide_confnum>  (86) 
5

>  <i_i_glide_posenum>  (86) 
7

>  <r_i_glide_eff_state_penalty>  (86) 
0

>  <ligand_id>  (86) 
19

>  <original_smiles>  (86) 
c1cn(C2CON(C3CC4CCC(C4)C3)C2)nn1

>  <smiles>  (86) 
[H]c1nnn(C2([H])C([H])([H])ON(C3([H])C([H])([H])C4([H])C([H])([H])C([H])([H])C([H])(C3([H])[H])C4([H])[H])C2([H])[H])c1[H]

$$$$
19:0:2
     RDKit          3D

 38 41  0  0  1  0  0  0  0  0999 V2000
    1.2158    0.1460    2.0822 C   0  0  0  0  0  0  0  0  0  0  0  0
    0.8445    1.4452    2.2467 C   0  0  0  0  0  0  0  0  0  0  0  0
    0.0798    1.4403    3.3924 N   0  0  0  0  0  0  0  0  0  0  0  0
   -0.5925    2.5761    4.0145 C   0  0  2  0  0  0  0  0  0  0  0  0
    0.3774    3.6472    4.4806 C   0  0  0  0  0  0  0  0  0  0  0  0
   -0.3099    4.3737    5.4980 O   0  0  0  0  0  0  0  0  0  0  0  0
   -1.4580    3.5832    5.9376 N   0  0  0  0  0  0  0  0  0  0  0  0
   -1.3465    3.4742    7.3937 C   0  0  2  0  0  0  0  0  0  0  0  0
   -2.5842    2.7631    8.0084 C   0  0  0  0  0  0  0  0  0  0  0  0
   -2.5471    2.7943    9.5545 C   0  0  1  0  0  0  0  0  0  0  0  0
   -1.1939    2.2969   10.1006 C   0  0  0  0  0  0  0  0  0  0  0  0
   -0.2906    3.5483   10.1508 C   0  0  0  0  0  0  0  0  0  0  0  0
   -1.1728    4.7027    9.6357 C   0  0  2  0  0  0  0  0  0  0  0  0
   -2.5788    4.2472   10.0267 C   0  0  0  0  0  0  0  0  0  0  0  0
   -1.0862    4.8326    8.0984 C   0  0  0  0  0  0  0  0  0  0  0  0
   -1.2836    2.2691    5.3256 C   0  0  0  0  0  0  0  0  0  0  0  0
   -0.0231    0.1876    3.8931 N   0  0  0  0  0  0  0  0  0  0  0  0
    0.6780   -0.5916    3.1299 N   0  0  0  0  0  0  0  0  0  0  0  0
    1.8158   -0.3135    1.3138 H   0  0  0  0  0  0  0  0  0  0  0  0
    1.0419    2.3362    1.6771 H   0  0  0  0  0  0  0  0  0  0  0  0
   -1.3060    2.9965    3.3021 H   0  0  0  0  0  0  0  0  0  0  0  0
    1.2791    3.1974    4.9081 H   0  0  0  0  0  0  0  0  0  0  0  0
    0.6866    4.2978    3.6613 H   0  0  0  0  0  0  0  0  0  0  0  0
   -0.4590    2.8664    7.5845 H   0  0  0  0  0  0  0  0  0  0  0  0
   -3.5085    3.2323    7.6676 H   0  0  0  0  0  0  0  0  0  0  0  0
   -2.6392    1.7302    7.6733 H   0  0  0  0  0  0  0  0  0  0  0  0
   -3.3775    2.2260    9.9773 H   0  0  0  0  0  0  0  0  0  0  0  0
   -1.3197    1.8962   11.1073 H   0  0  0  0  0  0  0  0  0  0  0  0
   -0.7695    1.4980    9.4904 H   0  0  0  0  0  0  0  0  0  0  0  0
    0.0194    3.7367   11.1787 H   0  0  0  0  0  0  0  0  0  0  0  0
    0.6182    3.4293    9.5599 H   0  0  0  0  0  0  0  0  0  0  0  0
   -0.9113    5.6494   10.1140 H   0  0  0  0  0  0  0  0  0  0  0  0
   -3.3736    4.8356    9.5611 H   0  0  0  0  0  0  0  0  0  0  0  0
   -2.7117    4.2935   11.1111 H   0  0  0  0  0  0  0  0  0  0  0  0
   -0.1013    5.2070    7.8355 H   0  0  0  0  0  0  0  0  0  0  0  0
   -1.7870    5.5982    7.7665 H   0  0  0  0  0  0  0  0  0  0  0  0
   -2.2306    1.7382    5.2015 H   0  0  0  0  0  0  0  0  0  0  0  0
   -0.6278    1.6517    5.9492 H   0  0  0  0  0  0  0  0  0  0  0  0
  1 18  1  0
  1  2  2  0
  1 19  1  0
  2  3  1  0
  2 20  1  0
  3  4  1  0
  3 17  1  0
  4 16  1  0
  4  5  1  0
  4 21  1  6
  5  6  1  0
  5 22  1  0
  5 23  1  0
  6  7  1  0
  7  8  1  0
  7 16  1  0
  8 15  1  0
  8  9  1  0
  8 24  1  6
  9 10  1  0
  9 25  1  0
  9 26  1  0
 10 14  1  0
 10 11  1  0
 10 27  1  1
 11 12  1  0
 11 28  1  0
 11 29  1  0
 12 13  1  0
 12 30  1  0
 12 31  1  0
 13 14  1  0
 13 15  1  0
 13 32  1  1
 14 33  1  0
 14 34  1  0
 15 35  1  0
 15 36  1  0
 16 37  1  0
 16 38  1  0
 17 18  2  0
M  END
>  <i_m_ct_stereo_status>  (87) 
1

>  <s_m_source_file>  (87) 
/var/tmp/pbs.5076255.sched01/tmp5vb4dkz1/0x5hafel7.sdf

>  <i_m_source_file_index>  (87) 
32

>  <i_lp_mmshare_version>  (87) 
48012

>  <i_f3d_flags>  (87) 
0

>  <s_epik_input>  (87) 
bjFuW2NIXVtjSF1uMVtDQEBIXTJbQ0gyXU9OKFtDSDJdMilbQ0BIXShbQ0gyXVtDQEBIXTM0KVtDSDJdW0NAQEhdKFtDSDJdNClbQ0gyXVtDSDJdMw==

>  <s_epik_cmdline>  (87) 
J2VwaWtfcHl0aG9uJywgJy1waHQnLCAnMi4wJywgJy1waCcsICc3LjAnLCAnLXRuJywgJzgnLCAnLW1hJywgJzIwMCcsICctaW1hZScsICc8aW5maWxlLm1hZT4nLCAnLW9tYWUnLCAnPG91dGZpbGUubWFlPic=

>  <r_lp_tautomer_probability>  (87) 
1

>  <r_epik_Ionization_Penalty>  (87) 
0.000915614

>  <r_epik_Ionization_Penalty_Charging>  (87) 
0

>  <r_epik_Ionization_Penalty_Neutral>  (87) 
0.000915614

>  <r_epik_State_Penalty>  (87) 
0.000589362

>  <r_epik_Charging_Adjusted_Penalty>  (87) 
0.000589362

>  <i_epik_Tot_Q>  (87) 
0

>  <i_epik_Tot_abs_Q>  (87) 
0

>  <s_epik_Chemistry_Notes>  (87) 
This compound has a N-S or N-O group and may undergo hydrolysis at high or low pH.

>  <s_lp_Force_Field>  (87) 
OPLS3e

>  <r_lp_Energy>  (87) 
31.8537

>  <b_lp_Chiralities_Consistent>  (87) 
1

>  <s_lp_Variant>  (87) 
19:0-1

>  <s_i_glide_gridfile>  (87) 
pfpi4k_grid

>  <i_i_glide_lignum>  (87) 
32

>  <i_i_glide_rotatable_bonds>  (87) 
2

>  <r_i_docking_score>  (87) 
-2.51024

>  <r_i_glide_ligand_efficiency>  (87) 
-0.139458

>  <r_i_glide_ligand_efficiency_sa>  (87) 
-0.365483

>  <r_i_glide_ligand_efficiency_ln>  (87) 
-0.645244

>  <r_i_glide_gscore>  (87) 
-2.51024

>  <r_i_glide_lipo>  (87) 
-0.117017

>  <r_i_glide_hbond>  (87) 
0

>  <r_i_glide_metal>  (87) 
-0

>  <r_i_glide_rewards>  (87) 
-1.71597

>  <r_i_glide_evdw>  (87) 
-19.5952

>  <r_i_glide_ecoul>  (87) 
-1.16622

>  <r_i_glide_erotb>  (87) 
0.566492

>  <r_i_glide_esite>  (87) 
-0.0890497

>  <r_i_glide_emodel>  (87) 
-24.3927

>  <r_i_glide_energy>  (87) 
-20.7614

>  <r_i_glide_einternal>  (87) 
1.1731

>  <r_i_glide_intrahb_reward>  (87) 
-0

>  <i_i_glide_confnum>  (87) 
2

>  <i_i_glide_posenum>  (87) 
5

>  <r_i_glide_eff_state_penalty>  (87) 
0

>  <ligand_id>  (87) 
19

>  <original_smiles>  (87) 
c1cn(C2CON(C3CC4CCC(C4)C3)C2)nn1

>  <smiles>  (87) 
[H]c1nnn(C2([H])C([H])([H])ON(C3([H])C([H])([H])C4([H])C([H])([H])C([H])([H])C([H])(C3([H])[H])C4([H])[H])C2([H])[H])c1[H]

$$$$
19:1:0
     RDKit          3D

 38 41  0  0  1  0  0  0  0  0999 V2000
    0.4669    1.3422    2.0077 C   0  0  0  0  0  0  0  0  0  0  0  0
   -0.3382    1.5074    3.0767 C   0  0  0  0  0  0  0  0  0  0  0  0
    0.5098    1.2840    4.1459 N   0  0  0  0  0  0  0  0  0  0  0  0
    0.2117    1.3326    5.5529 C   0  0  2  0  0  0  0  0  0  0  0  0
   -0.9371    0.4262    5.9460 C   0  0  0  0  0  0  0  0  0  0  0  0
   -1.3325    0.9470    7.1974 O   0  0  0  0  0  0  0  0  0  0  0  0
   -1.0790    2.3899    7.1880 N   0  0  0  0  0  0  0  0  0  0  0  0
   -0.3578    2.7204    8.4191 C   0  0  1  0  0  0  0  0  0  0  0  0
   -0.2306    4.2721    8.5628 C   0  0  0  0  0  0  0  0  0  0  0  0
   -1.4744    4.9329    9.2239 C   0  0  1  0  0  0  0  0  0  0  0  0
   -2.7944    4.5671    8.5067 C   0  0  0  0  0  0  0  0  0  0  0  0
   -3.2755    3.2697    9.1855 C   0  0  0  0  0  0  0  0  0  0  0  0
   -2.1982    2.9536   10.2349 C   0  0  2  0  0  0  0  0  0  0  0  0
   -1.6748    4.3347   10.6131 C   0  0  0  0  0  0  0  0  0  0  0  0
   -1.0345    2.1038    9.6783 C   0  0  0  0  0  0  0  0  0  0  0  0
   -0.3312    2.6779    5.9694 C   0  0  0  0  0  0  0  0  0  0  0  0
    1.7720    0.9941    3.7434 N   0  0  0  0  0  0  0  0  0  0  0  0
    1.7515    1.0196    2.4566 N   0  0  0  0  0  0  0  0  0  0  0  0
    0.2249    1.4210    0.9548 H   0  0  0  0  0  0  0  0  0  0  0  0
   -1.3890    1.7635    3.1673 H   0  0  0  0  0  0  0  0  0  0  0  0
    1.0963    1.1038    6.1556 H   0  0  0  0  0  0  0  0  0  0  0  0
   -1.7760    0.4998    5.2489 H   0  0  0  0  0  0  0  0  0  0  0  0
   -0.6435   -0.6195    6.0416 H   0  0  0  0  0  0  0  0  0  0  0  0
    0.6304    2.2770    8.3105 H   0  0  0  0  0  0  0  0  0  0  0  0
    0.6326    4.4695    9.1992 H   0  0  0  0  0  0  0  0  0  0  0  0
   -0.0030    4.8008    7.6337 H   0  0  0  0  0  0  0  0  0  0  0  0
   -1.3406    6.0193    9.2683 H   0  0  0  0  0  0  0  0  0  0  0  0
   -3.5375    5.3502    8.6429 H   0  0  0  0  0  0  0  0  0  0  0  0
   -2.6558    4.4530    7.4364 H   0  0  0  0  0  0  0  0  0  0  0  0
   -4.2451    3.4250    9.6562 H   0  0  0  0  0  0  0  0  0  0  0  0
   -3.3995    2.4545    8.4742 H   0  0  0  0  0  0  0  0  0  0  0  0
   -2.6370    2.4559   11.0951 H   0  0  0  0  0  0  0  0  0  0  0  0
   -0.7575    4.3011   11.2007 H   0  0  0  0  0  0  0  0  0  0  0  0
   -2.4174    4.8967   11.1798 H   0  0  0  0  0  0  0  0  0  0  0  0
   -1.3697    1.0806    9.5286 H   0  0  0  0  0  0  0  0  0  0  0  0
   -0.2838    2.0064   10.4587 H   0  0  0  0  0  0  0  0  0  0  0  0
    0.4610    3.4239    6.0631 H   0  0  0  0  0  0  0  0  0  0  0  0
   -1.0498    3.0565    5.2389 H   0  0  0  0  0  0  0  0  0  0  0  0
  1 18  1  0
  1  2  2  0
  1 19  1  0
  2  3  1  0
  2 20  1  0
  3  4  1  0
  3 17  1  0
  4 16  1  0
  4  5  1  0
  4 21  1  1
  5  6  1  0
  5 22  1  0
  5 23  1  0
  6  7  1  0
  7  8  1  0
  7 16  1  0
  8 15  1  0
  8  9  1  0
  8 24  1  6
  9 10  1  0
  9 25  1  0
  9 26  1  0
 10 14  1  0
 10 11  1  0
 10 27  1  1
 11 12  1  0
 11 28  1  0
 11 29  1  0
 12 13  1  0
 12 30  1  0
 12 31  1  0
 13 14  1  0
 13 15  1  0
 13 32  1  1
 14 33  1  0
 14 34  1  0
 15 35  1  0
 15 36  1  0
 16 37  1  0
 16 38  1  0
 17 18  2  0
M  END
>  <i_m_ct_stereo_status>  (88) 
1

>  <s_m_source_file>  (88) 
/var/tmp/pbs.5076255.sched01/tmp5vb4dkz1/0x5hafel7.sdf

>  <i_m_source_file_index>  (88) 
33

>  <i_lp_mmshare_version>  (88) 
48012

>  <i_f3d_flags>  (88) 
0

>  <s_epik_input>  (88) 
bjFuW2NIXVtjSF1uMVtDQEBIXTJbQ0gyXU9OKFtDSDJdMilbQ0BIXShbQ0gyXVtDQEBIXTM0KVtDSDJdW0NAQEhdKFtDSDJdNClbQ0gyXVtDSDJdMw==

>  <s_epik_cmdline>  (88) 
J2VwaWtfcHl0aG9uJywgJy1waHQnLCAnMi4wJywgJy1waCcsICc3LjAnLCAnLXRuJywgJzgnLCAnLW1hJywgJzIwMCcsICctaW1hZScsICc8aW5maWxlLm1hZT4nLCAnLW9tYWUnLCAnPG91dGZpbGUubWFlPic=

>  <r_lp_tautomer_probability>  (88) 
1

>  <r_epik_Ionization_Penalty>  (88) 
0.000915614

>  <r_epik_Ionization_Penalty_Charging>  (88) 
0

>  <r_epik_Ionization_Penalty_Neutral>  (88) 
0.000915614

>  <r_epik_State_Penalty>  (88) 
0.000589362

>  <r_epik_Charging_Adjusted_Penalty>  (88) 
0.000589362

>  <i_epik_Tot_Q>  (88) 
0

>  <i_epik_Tot_abs_Q>  (88) 
0

>  <s_epik_Chemistry_Notes>  (88) 
This compound has a N-S or N-O group and may undergo hydrolysis at high or low pH.

>  <s_lp_Force_Field>  (88) 
OPLS3e

>  <r_lp_Energy>  (88) 
33.4321

>  <b_lp_Chiralities_Consistent>  (88) 
1

>  <s_lp_Variant>  (88) 
19:0-2

>  <s_i_glide_gridfile>  (88) 
pfpi4k_grid

>  <i_i_glide_lignum>  (88) 
33

>  <i_i_glide_rotatable_bonds>  (88) 
2

>  <r_i_docking_score>  (88) 
-2.56512

>  <r_i_glide_ligand_efficiency>  (88) 
-0.142507

>  <r_i_glide_ligand_efficiency_sa>  (88) 
-0.373473

>  <r_i_glide_ligand_efficiency_ln>  (88) 
-0.659352

>  <r_i_glide_gscore>  (88) 
-2.56512

>  <r_i_glide_lipo>  (88) 
-0.0809697

>  <r_i_glide_hbond>  (88) 
0

>  <r_i_glide_metal>  (88) 
-0

>  <r_i_glide_rewards>  (88) 
-1.71597

>  <r_i_glide_evdw>  (88) 
-18.3789

>  <r_i_glide_ecoul>  (88) 
-1.96038

>  <r_i_glide_erotb>  (88) 
0.566492

>  <r_i_glide_esite>  (88) 
-0.121671

>  <r_i_glide_emodel>  (88) 
-23.2581

>  <r_i_glide_energy>  (88) 
-20.3393

>  <r_i_glide_einternal>  (88) 
0.628043

>  <r_i_glide_intrahb_reward>  (88) 
-0

>  <i_i_glide_confnum>  (88) 
6

>  <i_i_glide_posenum>  (88) 
2

>  <r_i_glide_eff_state_penalty>  (88) 
0

>  <ligand_id>  (88) 
19

>  <original_smiles>  (88) 
c1cn(C2CON(C3CC4CCC(C4)C3)C2)nn1

>  <smiles>  (88) 
[H]c1nnn(C2([H])C([H])([H])ON(C3([H])C([H])([H])C4([H])C([H])([H])C([H])([H])C([H])(C3([H])[H])C4([H])[H])C2([H])[H])c1[H]

$$$$
19:1:1
     RDKit          3D

 38 41  0  0  1  0  0  0  0  0999 V2000
    0.2376    1.3534    1.8965 C   0  0  0  0  0  0  0  0  0  0  0  0
   -0.0678    2.0361    3.0190 C   0  0  0  0  0  0  0  0  0  0  0  0
    0.1253    1.0979    4.0194 N   0  0  0  0  0  0  0  0  0  0  0  0
   -0.0162    1.2409    5.4459 C   0  0  2  0  0  0  0  0  0  0  0  0
   -0.9783    0.2480    6.0607 C   0  0  0  0  0  0  0  0  0  0  0  0
   -1.2792    0.8384    7.3075 O   0  0  0  0  0  0  0  0  0  0  0  0
   -1.2156    2.2915    7.1552 N   0  0  0  0  0  0  0  0  0  0  0  0
   -0.3807    2.8235    8.2346 C   0  0  1  0  0  0  0  0  0  0  0  0
   -0.4416    4.3897    8.2295 C   0  0  0  0  0  0  0  0  0  0  0  0
   -1.6619    4.9575    9.0017 C   0  0  1  0  0  0  0  0  0  0  0  0
   -2.9968    4.3635    8.5159 C   0  0  0  0  0  0  0  0  0  0  0  0
   -3.2132    3.0916    9.3618 C   0  0  0  0  0  0  0  0  0  0  0  0
   -1.9777    3.0139   10.2769 C   0  0  2  0  0  0  0  0  0  0  0  0
   -1.6002    4.4829   10.4518 C   0  0  0  0  0  0  0  0  0  0  0  0
   -0.7967    2.2565    9.6267 C   0  0  0  0  0  0  0  0  0  0  0  0
   -0.6787    2.5423    5.8291 C   0  0  0  0  0  0  0  0  0  0  0  0
    0.5673   -0.0833    3.5250 N   0  0  0  0  0  0  0  0  0  0  0  0
    0.6285    0.0627    2.2458 N   0  0  0  0  0  0  0  0  0  0  0  0
    0.2142    1.6999    0.8743 H   0  0  0  0  0  0  0  0  0  0  0  0
   -0.3920    3.0610    3.1650 H   0  0  0  0  0  0  0  0  0  0  0  0
    0.9662    1.1724    5.9235 H   0  0  0  0  0  0  0  0  0  0  0  0
   -1.8936    0.1520    5.4696 H   0  0  0  0  0  0  0  0  0  0  0  0
   -0.5413   -0.7398    6.2119 H   0  0  0  0  0  0  0  0  0  0  0  0
    0.6365    2.4973    8.0215 H   0  0  0  0  0  0  0  0  0  0  0  0
    0.4627    4.7557    8.7149 H   0  0  0  0  0  0  0  0  0  0  0  0
   -0.4129    4.8459    7.2351 H   0  0  0  0  0  0  0  0  0  0  0  0
   -1.6751    6.0510    8.9363 H   0  0  0  0  0  0  0  0  0  0  0  0
   -3.8062    5.0654    8.6954 H   0  0  0  0  0  0  0  0  0  0  0  0
   -2.9870    4.1646    7.4429 H   0  0  0  0  0  0  0  0  0  0  0  0
   -4.1291    3.1815    9.9468 H   0  0  0  0  0  0  0  0  0  0  0  0
   -3.3230    2.1962    8.7521 H   0  0  0  0  0  0  0  0  0  0  0  0
   -2.2184    2.5535   11.2358 H   0  0  0  0  0  0  0  0  0  0  0  0
   -0.6178    4.6220   10.9024 H   0  0  0  0  0  0  0  0  0  0  0  0
   -2.3328    5.0057   11.0673 H   0  0  0  0  0  0  0  0  0  0  0  0
   -1.0064    1.1874    9.6172 H   0  0  0  0  0  0  0  0  0  0  0  0
    0.0588    2.3343   10.2939 H   0  0  0  0  0  0  0  0  0  0  0  0
    0.0141    3.3808    5.7424 H   0  0  0  0  0  0  0  0  0  0  0  0
   -1.5416    2.7464    5.1920 H   0  0  0  0  0  0  0  0  0  0  0  0
  1 18  1  0
  1  2  2  0
  1 19  1  0
  2  3  1  0
  2 20  1  0
  3  4  1  0
  3 17  1  0
  4 16  1  0
  4  5  1  0
  4 21  1  1
  5  6  1  0
  5 22  1  0
  5 23  1  0
  6  7  1  0
  7  8  1  0
  7 16  1  0
  8 15  1  0
  8  9  1  0
  8 24  1  6
  9 10  1  0
  9 25  1  0
  9 26  1  0
 10 14  1  0
 10 11  1  0
 10 27  1  1
 11 12  1  0
 11 28  1  0
 11 29  1  0
 12 13  1  0
 12 30  1  0
 12 31  1  0
 13 14  1  0
 13 15  1  0
 13 32  1  1
 14 33  1  0
 14 34  1  0
 15 35  1  0
 15 36  1  0
 16 37  1  0
 16 38  1  0
 17 18  2  0
M  END
>  <i_m_ct_stereo_status>  (89) 
1

>  <s_m_source_file>  (89) 
/var/tmp/pbs.5076255.sched01/tmp5vb4dkz1/0x5hafel7.sdf

>  <i_m_source_file_index>  (89) 
33

>  <i_lp_mmshare_version>  (89) 
48012

>  <i_f3d_flags>  (89) 
0

>  <s_epik_input>  (89) 
bjFuW2NIXVtjSF1uMVtDQEBIXTJbQ0gyXU9OKFtDSDJdMilbQ0BIXShbQ0gyXVtDQEBIXTM0KVtDSDJdW0NAQEhdKFtDSDJdNClbQ0gyXVtDSDJdMw==

>  <s_epik_cmdline>  (89) 
J2VwaWtfcHl0aG9uJywgJy1waHQnLCAnMi4wJywgJy1waCcsICc3LjAnLCAnLXRuJywgJzgnLCAnLW1hJywgJzIwMCcsICctaW1hZScsICc8aW5maWxlLm1hZT4nLCAnLW9tYWUnLCAnPG91dGZpbGUubWFlPic=

>  <r_lp_tautomer_probability>  (89) 
1

>  <r_epik_Ionization_Penalty>  (89) 
0.000915614

>  <r_epik_Ionization_Penalty_Charging>  (89) 
0

>  <r_epik_Ionization_Penalty_Neutral>  (89) 
0.000915614

>  <r_epik_State_Penalty>  (89) 
0.000589362

>  <r_epik_Charging_Adjusted_Penalty>  (89) 
0.000589362

>  <i_epik_Tot_Q>  (89) 
0

>  <i_epik_Tot_abs_Q>  (89) 
0

>  <s_epik_Chemistry_Notes>  (89) 
This compound has a N-S or N-O group and may undergo hydrolysis at high or low pH.

>  <s_lp_Force_Field>  (89) 
OPLS3e

>  <r_lp_Energy>  (89) 
33.4321

>  <b_lp_Chiralities_Consistent>  (89) 
1

>  <s_lp_Variant>  (89) 
19:0-2

>  <s_i_glide_gridfile>  (89) 
pfpi4k_grid

>  <i_i_glide_lignum>  (89) 
33

>  <i_i_glide_rotatable_bonds>  (89) 
2

>  <r_i_docking_score>  (89) 
-2.53063

>  <r_i_glide_ligand_efficiency>  (89) 
-0.14059

>  <r_i_glide_ligand_efficiency_sa>  (89) 
-0.368451

>  <r_i_glide_ligand_efficiency_ln>  (89) 
-0.650485

>  <r_i_glide_gscore>  (89) 
-2.53063

>  <r_i_glide_lipo>  (89) 
-0.0827673

>  <r_i_glide_hbond>  (89) 
0

>  <r_i_glide_metal>  (89) 
-0

>  <r_i_glide_rewards>  (89) 
-1.71597

>  <r_i_glide_evdw>  (89) 
-18.4992

>  <r_i_glide_ecoul>  (89) 
-1.22906

>  <r_i_glide_erotb>  (89) 
0.566492

>  <r_i_glide_esite>  (89) 
-0.189063

>  <r_i_glide_emodel>  (89) 
-22.455

>  <r_i_glide_energy>  (89) 
-19.7282

>  <r_i_glide_einternal>  (89) 
1.0001

>  <r_i_glide_intrahb_reward>  (89) 
-0

>  <i_i_glide_confnum>  (89) 
6

>  <i_i_glide_posenum>  (89) 
8

>  <r_i_glide_eff_state_penalty>  (89) 
0

>  <ligand_id>  (89) 
19

>  <original_smiles>  (89) 
c1cn(C2CON(C3CC4CCC(C4)C3)C2)nn1

>  <smiles>  (89) 
[H]c1nnn(C2([H])C([H])([H])ON(C3([H])C([H])([H])C4([H])C([H])([H])C([H])([H])C([H])(C3([H])[H])C4([H])[H])C2([H])[H])c1[H]

$$$$
20:0:0
     RDKit          3D

 43 45  0  0  1  0  0  0  0  0999 V2000
    3.1747   -6.4343    1.2582 C   0  0  0  0  0  0  0  0  0  0  0  0
    3.0714   -4.9881    1.7046 C   0  0  0  0  0  0  0  0  0  0  0  0
    3.4242   -3.8529    1.0731 C   0  0  0  0  0  0  0  0  0  0  0  0
    3.1124   -2.6334    1.9138 C   0  0  1  0  0  0  0  0  0  0  0  0
    2.7687   -3.2255    3.3054 C   0  0  0  0  0  0  0  0  0  0  0  0
    2.4801   -4.7234    3.0653 C   0  0  1  0  0  0  0  0  0  0  0  0
    1.0878   -4.9958    3.0499 O   0  0  0  0  0  0  0  0  0  0  0  0
    4.2333   -1.5681    1.8787 C   0  0  1  0  0  0  0  0  0  0  0  0
    3.8660   -0.3120    2.6861 C   0  0  0  0  0  0  0  0  0  0  0  0
    5.4301   -2.0715    2.4518 O   0  0  0  0  0  0  0  0  0  0  0  0
    4.5173   -1.2146    0.4096 C   0  0  0  0  0  0  0  0  0  0  0  0
    5.0141   -2.4308   -0.3927 C   0  0  2  0  0  0  0  0  0  0  0  0
    5.0303   -2.0439   -1.7625 O   0  0  0  0  0  0  0  0  0  0  0  0
    3.8878   -2.5508   -2.4495 C   0  0  0  0  0  0  0  0  0  0  0  0
    3.1134   -1.3504   -3.0094 C   0  0  0  0  0  0  0  0  0  0  0  0
    4.3904   -3.4338   -3.6015 C   0  0  0  0  0  0  0  0  0  0  0  0
    3.0802   -3.3408   -1.3997 C   0  0  0  0  0  0  0  0  0  0  0  0
    4.0815   -3.6555   -0.3006 C   0  0  2  0  0  0  0  0  0  0  0  0
    4.8702   -4.7760   -0.6435 O   0  0  0  0  0  0  0  0  0  0  0  0
    2.2296   -6.9543    1.4489 H   0  0  0  0  0  0  0  0  0  0  0  0
    3.9530   -6.9280    1.8398 H   0  0  0  0  0  0  0  0  0  0  0  0
    3.4020   -6.5495    0.2005 H   0  0  0  0  0  0  0  0  0  0  0  0
    2.2098   -2.2051    1.4772 H   0  0  0  0  0  0  0  0  0  0  0  0
    3.6278   -3.1493    3.9740 H   0  0  0  0  0  0  0  0  0  0  0  0
    1.9586   -2.6880    3.7999 H   0  0  0  0  0  0  0  0  0  0  0  0
    2.9547   -5.3600    3.8164 H   0  0  0  0  0  0  0  0  0  0  0  0
    0.7272   -4.7046    3.8726 H   0  0  0  0  0  0  0  0  0  0  0  0
    2.9680    0.1705    2.3025 H   0  0  0  0  0  0  0  0  0  0  0  0
    4.6768    0.4122    2.6342 H   0  0  0  0  0  0  0  0  0  0  0  0
    3.7044   -0.5386    3.7399 H   0  0  0  0  0  0  0  0  0  0  0  0
    5.6819   -2.8578    1.9931 H   0  0  0  0  0  0  0  0  0  0  0  0
    3.5910   -0.8465   -0.0284 H   0  0  0  0  0  0  0  0  0  0  0  0
    5.2385   -0.4033    0.3234 H   0  0  0  0  0  0  0  0  0  0  0  0
    6.0313   -2.6730   -0.0817 H   0  0  0  0  0  0  0  0  0  0  0  0
    2.2317   -1.6878   -3.5559 H   0  0  0  0  0  0  0  0  0  0  0  0
    3.7298   -0.7517   -3.6836 H   0  0  0  0  0  0  0  0  0  0  0  0
    2.7777   -0.6926   -2.2064 H   0  0  0  0  0  0  0  0  0  0  0  0
    3.5503   -3.8534   -4.1575 H   0  0  0  0  0  0  0  0  0  0  0  0
    5.0107   -4.2604   -3.2476 H   0  0  0  0  0  0  0  0  0  0  0  0
    4.9910   -2.8503   -4.2960 H   0  0  0  0  0  0  0  0  0  0  0  0
    2.2891   -2.7047   -1.0055 H   0  0  0  0  0  0  0  0  0  0  0  0
    2.5806   -4.2195   -1.8025 H   0  0  0  0  0  0  0  0  0  0  0  0
    4.3703   -5.3123   -1.2467 H   0  0  0  0  0  0  0  0  0  0  0  0
  1  2  1  0
  1 20  1  0
  1 21  1  0
  1 22  1  0
  2  6  1  0
  2  3  2  0
  3 18  1  0
  3  4  1  0
  4  5  1  0
  4  8  1  0
  4 23  1  6
  5  6  1  0
  5 24  1  0
  5 25  1  0
  6  7  1  0
  6 26  1  1
  7 27  1  0
  8  9  1  0
  8 10  1  1
  8 11  1  0
  9 28  1  0
  9 29  1  0
  9 30  1  0
 10 31  1  0
 11 12  1  0
 11 32  1  0
 11 33  1  0
 12 18  1  0
 12 13  1  0
 12 34  1  1
 13 14  1  0
 14 15  1  0
 14 16  1  0
 14 17  1  0
 15 35  1  0
 15 36  1  0
 15 37  1  0
 16 38  1  0
 16 39  1  0
 16 40  1  0
 17 18  1  0
 17 41  1  0
 17 42  1  0
 18 19  1  6
 19 43  1  0
M  END
>  <i_m_ct_stereo_status>  (90) 
1

>  <s_m_source_file>  (90) 
/var/tmp/pbs.5076255.sched01/tmp5vb4dkz1/0x5hafel7.sdf

>  <i_m_source_file_index>  (90) 
34

>  <i_lp_mmshare_version>  (90) 
48012

>  <i_f3d_flags>  (90) 
0

>  <s_epik_input>  (90) 
W0NIM11DPTFbQ0BIXShbT0hdKVtDSDJdW0NASF0oQzFbQ0BdMjNbT0hdKVtDQEBdKFtDSDNdKShbT0hdKVtDSDJdW0NAQEhdMk9DKFtDSDNdKShbQ0gzXSlbQ0gyXTM=

>  <s_epik_cmdline>  (90) 
J2VwaWtfcHl0aG9uJywgJy1waHQnLCAnMi4wJywgJy1waCcsICc3LjAnLCAnLXRuJywgJzgnLCAnLW1hJywgJzIwMCcsICctaW1hZScsICc8aW5maWxlLm1hZT4nLCAnLW9tYWUnLCAnPG91dGZpbGUubWFlPic=

>  <r_lp_tautomer_probability>  (90) 
1

>  <r_epik_Ionization_Penalty>  (90) 
1.54617e-07

>  <r_epik_Ionization_Penalty_Charging>  (90) 
0

>  <r_epik_Ionization_Penalty_Neutral>  (90) 
1.54617e-07

>  <r_epik_State_Penalty>  (90) 
-0

>  <r_epik_Charging_Adjusted_Penalty>  (90) 
0

>  <i_epik_Tot_Q>  (90) 
0

>  <i_epik_Tot_abs_Q>  (90) 
0

>  <s_lp_Force_Field>  (90) 
OPLS3e

>  <r_lp_Energy>  (90) 
5.23751

>  <b_lp_Chiralities_Consistent>  (90) 
1

>  <s_lp_Variant>  (90) 
20:0-1

>  <s_i_glide_gridfile>  (90) 
pfpi4k_grid

>  <i_i_glide_lignum>  (90) 
34

>  <i_i_glide_rotatable_bonds>  (90) 
3

>  <r_i_docking_score>  (90) 
-3.76965

>  <r_i_glide_ligand_efficiency>  (90) 
-0.198403

>  <r_i_glide_ligand_efficiency_sa>  (90) 
-0.529418

>  <r_i_glide_ligand_efficiency_ln>  (90) 
-0.955687

>  <r_i_glide_gscore>  (90) 
-3.76965

>  <r_i_glide_lipo>  (90) 
-0.408852

>  <r_i_glide_hbond>  (90) 
0

>  <r_i_glide_metal>  (90) 
-0

>  <r_i_glide_rewards>  (90) 
-1.57944

>  <r_i_glide_evdw>  (90) 
-22.2289

>  <r_i_glide_ecoul>  (90) 
-4.46608

>  <r_i_glide_erotb>  (90) 
0

>  <r_i_glide_esite>  (90) 
0

>  <r_i_glide_emodel>  (90) 
-32.6152

>  <r_i_glide_energy>  (90) 
-26.6949

>  <r_i_glide_einternal>  (90) 
0.868753

>  <r_i_glide_intrahb_reward>  (90) 
-0

>  <i_i_glide_confnum>  (90) 
2

>  <i_i_glide_posenum>  (90) 
4

>  <r_i_glide_eff_state_penalty>  (90) 
0

>  <ligand_id>  (90) 
20

>  <original_smiles>  (90) 
CC1=C2C(CC1O)C(C)(O)CC1OC(C)(C)CC21O

>  <smiles>  (90) 
[H]OC1([H])C(C([H])([H])[H])=C2C([H])(C1([H])[H])C(O[H])(C([H])([H])[H])C([H])([H])C1([H])OC(C([H])([H])[H])(C([H])([H])[H])C([H])([H])C21O[H]

$$$$
20:0:1
     RDKit          3D

 43 45  0  0  1  0  0  0  0  0999 V2000
    3.2567   -6.4837    1.2206 C   0  0  0  0  0  0  0  0  0  0  0  0
    3.1440   -5.0462    1.6920 C   0  0  0  0  0  0  0  0  0  0  0  0
    3.4884   -3.9006    1.0785 C   0  0  0  0  0  0  0  0  0  0  0  0
    3.1695   -2.6949    1.9409 C   0  0  1  0  0  0  0  0  0  0  0  0
    2.8413   -3.3110    3.3240 C   0  0  0  0  0  0  0  0  0  0  0  0
    2.5625   -4.8021    3.0634 C   0  0  1  0  0  0  0  0  0  0  0  0
    1.1737   -5.0736    3.0642 O   0  0  0  0  0  0  0  0  0  0  0  0
    4.2769   -1.6154    1.9137 C   0  0  1  0  0  0  0  0  0  0  0  0
    3.9150   -0.3754    2.7453 C   0  0  0  0  0  0  0  0  0  0  0  0
    5.4861   -2.1141    2.4566 O   0  0  0  0  0  0  0  0  0  0  0  0
    4.5530   -1.2384    0.4490 C   0  0  0  0  0  0  0  0  0  0  0  0
    5.0557   -2.4398   -0.3763 C   0  0  2  0  0  0  0  0  0  0  0  0
    5.0559   -2.0303   -1.7419 O   0  0  0  0  0  0  0  0  0  0  0  0
    3.9074   -2.5297   -2.4248 C   0  0  0  0  0  0  0  0  0  0  0  0
    3.1177   -1.3267   -2.9544 C   0  0  0  0  0  0  0  0  0  0  0  0
    4.3972   -3.3904   -3.5986 C   0  0  0  0  0  0  0  0  0  0  0  0
    3.1181   -3.3435   -1.3802 C   0  0  0  0  0  0  0  0  0  0  0  0
    4.1323   -3.6727   -0.2979 C   0  0  2  0  0  0  0  0  0  0  0  0
    4.9206   -4.7842   -0.6783 O   0  0  0  0  0  0  0  0  0  0  0  0
    2.3211   -7.0150    1.4115 H   0  0  0  0  0  0  0  0  0  0  0  0
    4.0475   -6.9818    1.7821 H   0  0  0  0  0  0  0  0  0  0  0  0
    3.4694   -6.5789    0.1566 H   0  0  0  0  0  0  0  0  0  0  0  0
    2.2614   -2.2673    1.5161 H   0  0  0  0  0  0  0  0  0  0  0  0
    3.7008   -3.2490    3.9917 H   0  0  0  0  0  0  0  0  0  0  0  0
    2.0254   -2.7975    3.8335 H   0  0  0  0  0  0  0  0  0  0  0  0
    3.0466   -5.4461    3.8013 H   0  0  0  0  0  0  0  0  0  0  0  0
    1.0596   -5.9942    3.2375 H   0  0  0  0  0  0  0  0  0  0  0  0
    3.0138    0.1070    2.3763 H   0  0  0  0  0  0  0  0  0  0  0  0
    4.7214    0.3509    2.6957 H   0  0  0  0  0  0  0  0  0  0  0  0
    3.7619   -0.6156    3.7953 H   0  0  0  0  0  0  0  0  0  0  0  0
    5.3511   -2.3207    3.3670 H   0  0  0  0  0  0  0  0  0  0  0  0
    3.6221   -0.8711    0.0214 H   0  0  0  0  0  0  0  0  0  0  0  0
    5.2706   -0.4223    0.3692 H   0  0  0  0  0  0  0  0  0  0  0  0
    6.0773   -2.6787   -0.0728 H   0  0  0  0  0  0  0  0  0  0  0  0
    2.2305   -1.6630   -3.4917 H   0  0  0  0  0  0  0  0  0  0  0  0
    3.7205   -0.7158   -3.6287 H   0  0  0  0  0  0  0  0  0  0  0  0
    2.7896   -0.6839   -2.1381 H   0  0  0  0  0  0  0  0  0  0  0  0
    3.5522   -3.8143   -4.1437 H   0  0  0  0  0  0  0  0  0  0  0  0
    5.0346   -4.2126   -3.2703 H   0  0  0  0  0  0  0  0  0  0  0  0
    4.9827   -2.7880   -4.2928 H   0  0  0  0  0  0  0  0  0  0  0  0
    2.3244   -2.7223   -0.9670 H   0  0  0  0  0  0  0  0  0  0  0  0
    2.6288   -4.2217   -1.7933 H   0  0  0  0  0  0  0  0  0  0  0  0
    4.3996   -5.3303   -1.2513 H   0  0  0  0  0  0  0  0  0  0  0  0
  1  2  1  0
  1 20  1  0
  1 21  1  0
  1 22  1  0
  2  6  1  0
  2  3  2  0
  3 18  1  0
  3  4  1  0
  4  5  1  0
  4  8  1  0
  4 23  1  6
  5  6  1  0
  5 24  1  0
  5 25  1  0
  6  7  1  0
  6 26  1  1
  7 27  1  0
  8  9  1  0
  8 10  1  1
  8 11  1  0
  9 28  1  0
  9 29  1  0
  9 30  1  0
 10 31  1  0
 11 12  1  0
 11 32  1  0
 11 33  1  0
 12 18  1  0
 12 13  1  0
 12 34  1  1
 13 14  1  0
 14 15  1  0
 14 16  1  0
 14 17  1  0
 15 35  1  0
 15 36  1  0
 15 37  1  0
 16 38  1  0
 16 39  1  0
 16 40  1  0
 17 18  1  0
 17 41  1  0
 17 42  1  0
 18 19  1  6
 19 43  1  0
M  END
>  <i_m_ct_stereo_status>  (91) 
1

>  <s_m_source_file>  (91) 
/var/tmp/pbs.5076255.sched01/tmp5vb4dkz1/0x5hafel7.sdf

>  <i_m_source_file_index>  (91) 
34

>  <i_lp_mmshare_version>  (91) 
48012

>  <i_f3d_flags>  (91) 
0

>  <s_epik_input>  (91) 
W0NIM11DPTFbQ0BIXShbT0hdKVtDSDJdW0NASF0oQzFbQ0BdMjNbT0hdKVtDQEBdKFtDSDNdKShbT0hdKVtDSDJdW0NAQEhdMk9DKFtDSDNdKShbQ0gzXSlbQ0gyXTM=

>  <s_epik_cmdline>  (91) 
J2VwaWtfcHl0aG9uJywgJy1waHQnLCAnMi4wJywgJy1waCcsICc3LjAnLCAnLXRuJywgJzgnLCAnLW1hJywgJzIwMCcsICctaW1hZScsICc8aW5maWxlLm1hZT4nLCAnLW9tYWUnLCAnPG91dGZpbGUubWFlPic=

>  <r_lp_tautomer_probability>  (91) 
1

>  <r_epik_Ionization_Penalty>  (91) 
1.54617e-07

>  <r_epik_Ionization_Penalty_Charging>  (91) 
0

>  <r_epik_Ionization_Penalty_Neutral>  (91) 
1.54617e-07

>  <r_epik_State_Penalty>  (91) 
-0

>  <r_epik_Charging_Adjusted_Penalty>  (91) 
0

>  <i_epik_Tot_Q>  (91) 
0

>  <i_epik_Tot_abs_Q>  (91) 
0

>  <s_lp_Force_Field>  (91) 
OPLS3e

>  <r_lp_Energy>  (91) 
5.23751

>  <b_lp_Chiralities_Consistent>  (91) 
1

>  <s_lp_Variant>  (91) 
20:0-1

>  <s_i_glide_gridfile>  (91) 
pfpi4k_grid

>  <i_i_glide_lignum>  (91) 
34

>  <i_i_glide_rotatable_bonds>  (91) 
3

>  <r_i_docking_score>  (91) 
-3.58507

>  <r_i_glide_ligand_efficiency>  (91) 
-0.188688

>  <r_i_glide_ligand_efficiency_sa>  (91) 
-0.503495

>  <r_i_glide_ligand_efficiency_ln>  (91) 
-0.908892

>  <r_i_glide_gscore>  (91) 
-3.58507

>  <r_i_glide_lipo>  (91) 
-0.447532

>  <r_i_glide_hbond>  (91) 
0

>  <r_i_glide_metal>  (91) 
-0

>  <r_i_glide_rewards>  (91) 
-1.57944

>  <r_i_glide_evdw>  (91) 
-22.0082

>  <r_i_glide_ecoul>  (91) 
-3.05124

>  <r_i_glide_erotb>  (91) 
0

>  <r_i_glide_esite>  (91) 
0

>  <r_i_glide_emodel>  (91) 
-30.6677

>  <r_i_glide_energy>  (91) 
-25.0594

>  <r_i_glide_einternal>  (91) 
0.829714

>  <r_i_glide_intrahb_reward>  (91) 
-0

>  <i_i_glide_confnum>  (91) 
2

>  <i_i_glide_posenum>  (91) 
14

>  <r_i_glide_eff_state_penalty>  (91) 
0

>  <ligand_id>  (91) 
20

>  <original_smiles>  (91) 
CC1=C2C(CC1O)C(C)(O)CC1OC(C)(C)CC21O

>  <smiles>  (91) 
[H]OC1([H])C(C([H])([H])[H])=C2C([H])(C1([H])[H])C(O[H])(C([H])([H])[H])C([H])([H])C1([H])OC(C([H])([H])[H])(C([H])([H])[H])C([H])([H])C21O[H]

$$$$
20:0:2
     RDKit          3D

 43 45  0  0  1  0  0  0  0  0999 V2000
    3.1986   -6.5034    1.2038 C   0  0  0  0  0  0  0  0  0  0  0  0
    3.0862   -5.0669    1.6787 C   0  0  0  0  0  0  0  0  0  0  0  0
    3.4364   -3.9185    1.0721 C   0  0  0  0  0  0  0  0  0  0  0  0
    3.1203   -2.7177    1.9378 C   0  0  1  0  0  0  0  0  0  0  0  0
    2.7831   -3.3370    3.3167 C   0  0  0  0  0  0  0  0  0  0  0  0
    2.4980   -4.8243    3.0490 C   0  0  1  0  0  0  0  0  0  0  0  0
    1.1082   -5.0800    3.0375 O   0  0  0  0  0  0  0  0  0  0  0  0
    4.2372   -1.6500    1.9260 C   0  0  1  0  0  0  0  0  0  0  0  0
    3.8686   -0.4138    2.7611 C   0  0  0  0  0  0  0  0  0  0  0  0
    5.4355   -2.1633    2.4828 O   0  0  0  0  0  0  0  0  0  0  0  0
    4.5220   -1.2646    0.4659 C   0  0  0  0  0  0  0  0  0  0  0  0
    5.0237   -2.4603   -0.3641 C   0  0  2  0  0  0  0  0  0  0  0  0
    5.0391   -2.0439   -1.7257 O   0  0  0  0  0  0  0  0  0  0  0  0
    3.8944   -2.5387   -2.4196 C   0  0  0  0  0  0  0  0  0  0  0  0
    3.1185   -1.3281   -2.9534 C   0  0  0  0  0  0  0  0  0  0  0  0
    4.3945   -3.3968   -3.5912 C   0  0  0  0  0  0  0  0  0  0  0  0
    3.0907   -3.3528   -1.3864 C   0  0  0  0  0  0  0  0  0  0  0  0
    4.0934   -3.6894   -0.2974 C   0  0  2  0  0  0  0  0  0  0  0  0
    4.8843   -4.7988   -0.6647 O   0  0  0  0  0  0  0  0  0  0  0  0
    2.2577   -7.0343    1.3769 H   0  0  0  0  0  0  0  0  0  0  0  0
    3.9790   -7.0078    1.7775 H   0  0  0  0  0  0  0  0  0  0  0  0
    3.4274   -6.5944    0.1435 H   0  0  0  0  0  0  0  0  0  0  0  0
    2.2147   -2.2827    1.5134 H   0  0  0  0  0  0  0  0  0  0  0  0
    3.6404   -3.2738    3.9849 H   0  0  0  0  0  0  0  0  0  0  0  0
    1.9620   -2.8287    3.8232 H   0  0  0  0  0  0  0  0  0  0  0  0
    2.9721   -5.4773    3.7875 H   0  0  0  0  0  0  0  0  0  0  0  0
    0.9869   -6.0019    3.2074 H   0  0  0  0  0  0  0  0  0  0  0  0
    2.9697    0.0733    2.3896 H   0  0  0  0  0  0  0  0  0  0  0  0
    4.6785    0.3140    2.7248 H   0  0  0  0  0  0  0  0  0  0  0  0
    3.7097   -0.6666    3.8085 H   0  0  0  0  0  0  0  0  0  0  0  0
    5.6727   -2.9557    2.0245 H   0  0  0  0  0  0  0  0  0  0  0  0
    3.5963   -0.8870    0.0323 H   0  0  0  0  0  0  0  0  0  0  0  0
    5.2435   -0.4508    0.3979 H   0  0  0  0  0  0  0  0  0  0  0  0
    6.0416   -2.7060   -0.0579 H   0  0  0  0  0  0  0  0  0  0  0  0
    2.2297   -1.6575   -3.4989 H   0  0  0  0  0  0  0  0  0  0  0  0
    3.7303   -0.7151   -3.6171 H   0  0  0  0  0  0  0  0  0  0  0  0
    2.7840   -0.6885   -2.1382 H   0  0  0  0  0  0  0  0  0  0  0  0
    3.5547   -3.8088   -4.1533 H   0  0  0  0  0  0  0  0  0  0  0  0
    5.0184   -4.2265   -3.2557 H   0  0  0  0  0  0  0  0  0  0  0  0
    4.9877   -2.7902   -4.2729 H   0  0  0  0  0  0  0  0  0  0  0  0
    2.2978   -2.7264   -0.9816 H   0  0  0  0  0  0  0  0  0  0  0  0
    2.5973   -4.2231   -1.8115 H   0  0  0  0  0  0  0  0  0  0  0  0
    4.3750   -5.3378   -1.2586 H   0  0  0  0  0  0  0  0  0  0  0  0
  1  2  1  0
  1 20  1  0
  1 21  1  0
  1 22  1  0
  2  6  1  0
  2  3  2  0
  3 18  1  0
  3  4  1  0
  4  5  1  0
  4  8  1  0
  4 23  1  6
  5  6  1  0
  5 24  1  0
  5 25  1  0
  6  7  1  0
  6 26  1  1
  7 27  1  0
  8  9  1  0
  8 10  1  1
  8 11  1  0
  9 28  1  0
  9 29  1  0
  9 30  1  0
 10 31  1  0
 11 12  1  0
 11 32  1  0
 11 33  1  0
 12 18  1  0
 12 13  1  0
 12 34  1  1
 13 14  1  0
 14 15  1  0
 14 16  1  0
 14 17  1  0
 15 35  1  0
 15 36  1  0
 15 37  1  0
 16 38  1  0
 16 39  1  0
 16 40  1  0
 17 18  1  0
 17 41  1  0
 17 42  1  0
 18 19  1  6
 19 43  1  0
M  END
>  <i_m_ct_stereo_status>  (92) 
1

>  <s_m_source_file>  (92) 
/var/tmp/pbs.5076255.sched01/tmp5vb4dkz1/0x5hafel7.sdf

>  <i_m_source_file_index>  (92) 
34

>  <i_lp_mmshare_version>  (92) 
48012

>  <i_f3d_flags>  (92) 
0

>  <s_epik_input>  (92) 
W0NIM11DPTFbQ0BIXShbT0hdKVtDSDJdW0NASF0oQzFbQ0BdMjNbT0hdKVtDQEBdKFtDSDNdKShbT0hdKVtDSDJdW0NAQEhdMk9DKFtDSDNdKShbQ0gzXSlbQ0gyXTM=

>  <s_epik_cmdline>  (92) 
J2VwaWtfcHl0aG9uJywgJy1waHQnLCAnMi4wJywgJy1waCcsICc3LjAnLCAnLXRuJywgJzgnLCAnLW1hJywgJzIwMCcsICctaW1hZScsICc8aW5maWxlLm1hZT4nLCAnLW9tYWUnLCAnPG91dGZpbGUubWFlPic=

>  <r_lp_tautomer_probability>  (92) 
1

>  <r_epik_Ionization_Penalty>  (92) 
1.54617e-07

>  <r_epik_Ionization_Penalty_Charging>  (92) 
0

>  <r_epik_Ionization_Penalty_Neutral>  (92) 
1.54617e-07

>  <r_epik_State_Penalty>  (92) 
-0

>  <r_epik_Charging_Adjusted_Penalty>  (92) 
0

>  <i_epik_Tot_Q>  (92) 
0

>  <i_epik_Tot_abs_Q>  (92) 
0

>  <s_lp_Force_Field>  (92) 
OPLS3e

>  <r_lp_Energy>  (92) 
5.23751

>  <b_lp_Chiralities_Consistent>  (92) 
1

>  <s_lp_Variant>  (92) 
20:0-1

>  <s_i_glide_gridfile>  (92) 
pfpi4k_grid

>  <i_i_glide_lignum>  (92) 
34

>  <i_i_glide_rotatable_bonds>  (92) 
3

>  <r_i_docking_score>  (92) 
-3.58436

>  <r_i_glide_ligand_efficiency>  (92) 
-0.188651

>  <r_i_glide_ligand_efficiency_sa>  (92) 
-0.503396

>  <r_i_glide_ligand_efficiency_ln>  (92) 
-0.908713

>  <r_i_glide_gscore>  (92) 
-3.58436

>  <r_i_glide_lipo>  (92) 
-0.42012

>  <r_i_glide_hbond>  (92) 
0

>  <r_i_glide_metal>  (92) 
-0

>  <r_i_glide_rewards>  (92) 
-1.57944

>  <r_i_glide_evdw>  (92) 
-21.9059

>  <r_i_glide_ecoul>  (92) 
-3.26337

>  <r_i_glide_erotb>  (92) 
0

>  <r_i_glide_esite>  (92) 
0

>  <r_i_glide_emodel>  (92) 
-30.7425

>  <r_i_glide_energy>  (92) 
-25.1693

>  <r_i_glide_einternal>  (92) 
0.842388

>  <r_i_glide_intrahb_reward>  (92) 
-0

>  <i_i_glide_confnum>  (92) 
1

>  <i_i_glide_posenum>  (92) 
34

>  <r_i_glide_eff_state_penalty>  (92) 
0

>  <ligand_id>  (92) 
20

>  <original_smiles>  (92) 
CC1=C2C(CC1O)C(C)(O)CC1OC(C)(C)CC21O

>  <smiles>  (92) 
[H]OC1([H])C(C([H])([H])[H])=C2C([H])(C1([H])[H])C(O[H])(C([H])([H])[H])C([H])([H])C1([H])OC(C([H])([H])[H])(C([H])([H])[H])C([H])([H])C21O[H]

$$$$
21:0:0
     RDKit          3D

 81 90  0  0  1  0  0  0  0  0999 V2000
    5.7002   -2.6231    2.1314 C   0  0  0  0  0  0  0  0  0  0  0  0
    5.1978   -4.0194    1.8663 C   0  0  0  0  0  0  0  0  0  0  0  0
    5.8440   -5.1585    1.6797 C   0  0  0  0  0  0  0  0  0  0  0  0
    7.2902   -5.5320    1.5262 C   0  0  0  0  0  0  0  0  0  0  0  0
    7.1702   -7.0483    1.5301 C   0  0  0  0  0  0  0  0  0  0  0  0
    8.1372   -7.7945    1.5239 O   0  0  0  0  0  0  0  0  0  0  0  0
    5.7304   -7.5398    1.4755 C   0  0  1  0  0  0  0  0  0  0  0  0
    5.5058   -8.7485    2.2255 O   0  0  0  0  0  0  0  0  0  0  0  0
    5.4815   -8.9250    3.6518 C   0  0  1  0  0  0  0  0  0  0  0  0
    6.8099   -8.5913    4.3923 C   0  0  0  0  0  0  0  0  0  0  0  0
    6.9913   -7.1105    4.8427 C   0  0  0  0  0  0  0  0  0  0  0  0
    5.6914   -6.3197    5.0790 C   0  0  0  0  0  0  0  0  0  0  0  0
    4.6031   -6.8067    4.2371 N   0  0  0  0  0  0  0  0  0  0  0  0
    4.2978   -8.2406    4.3943 C   0  0  2  0  0  0  0  0  0  0  0  0
    4.3671   -8.7791    5.7789 C   0  0  0  0  0  0  0  0  0  0  0  0
    4.4381   -9.2158    6.8517 N   0  0  0  0  0  0  0  0  0  0  0  0
    2.8675   -8.3279    3.8391 C   0  0  1  0  0  0  0  0  0  0  0  0
    2.8178   -8.9923    2.4051 C   0  0  0  0  0  0  0  0  0  0  0  0
    1.5640   -8.7859    4.4400 C   0  0  0  0  0  0  0  0  0  0  0  0
    1.1419  -10.0687    4.7268 N   0  0  0  0  0  0  0  0  0  0  0  0
    1.0421   -7.6761    3.8766 C   0  0  0  0  0  0  0  0  0  0  0  0
   -0.3106   -7.2958    3.6845 C   0  0  0  0  0  0  0  0  0  0  0  0
   -1.3842   -6.9529    3.4269 N   0  0  0  0  0  0  0  0  0  0  0  0
    2.2691   -6.8976    4.3500 C   0  0  1  0  0  0  0  0  0  0  0  0
    1.8225   -6.4246    5.7857 C   0  0  0  0  0  0  0  0  0  0  0  0
    2.2404   -7.1755    6.8314 N   0  0  0  0  0  0  0  0  0  0  0  0
    1.9285   -6.8222    8.0925 C   0  0  0  0  0  0  0  0  0  0  0  0
    1.2487   -5.6363    8.4036 C   0  0  0  0  0  0  0  0  0  0  0  0
    0.8459   -4.8039    7.3348 C   0  0  0  0  0  0  0  0  0  0  0  0
    0.3059   -3.5978    7.6121 N   0  0  0  0  0  0  0  0  0  0  0  0
   -0.0231   -2.7829    6.5874 C   0  0  0  0  0  0  0  0  0  0  0  0
   -0.5540   -1.5547    6.8527 N   0  0  0  0  0  0  0  0  0  0  0  0
   -0.8696   -0.7232    5.8339 C   0  0  0  0  0  0  0  0  0  0  0  0
   -0.6066   -1.0281    4.4980 C   0  0  0  0  0  0  0  0  0  0  0  0
   -0.0344   -2.2852    4.2290 C   0  0  0  0  0  0  0  0  0  0  0  0
    0.2255   -3.2065    5.2554 C   0  0  0  0  0  0  0  0  0  0  0  0
    0.7160   -4.4082    4.9886 N   0  0  0  0  0  0  0  0  0  0  0  0
    1.0872   -5.2173    5.9876 C   0  0  0  0  0  0  0  0  0  0  0  0
    3.4608   -5.9771    3.7513 C   0  0  1  0  0  0  0  0  0  0  0  0
    3.5402   -4.5390    4.3869 C   0  0  0  0  0  0  0  0  0  0  0  0
    3.5329   -5.8057    2.1396 C   0  0  1  0  0  0  0  0  0  0  0  0
    2.2351   -6.2046    1.5309 C   0  0  0  0  0  0  0  0  0  0  0  0
    1.2171   -6.4758    1.0349 N   0  0  0  0  0  0  0  0  0  0  0  0
    3.7435   -4.3438    1.5690 C   0  0  2  0  0  0  0  0  0  0  0  0
    3.7022   -4.5473    0.0171 C   0  0  1  0  0  0  0  0  0  0  0  0
    4.2824   -3.4071   -0.8432 C   0  0  0  0  0  0  0  0  0  0  0  0
    4.4603   -5.9005   -0.1194 C   0  0  0  0  0  0  0  0  0  0  0  0
    4.8492   -6.2425    1.3507 C   0  0  1  0  0  0  0  0  0  0  0  0
    5.2789   -1.9251    1.4148 H   0  0  0  0  0  0  0  0  0  0  0  0
    6.7857   -2.5799    2.0621 H   0  0  0  0  0  0  0  0  0  0  0  0
    5.4045   -2.2936    3.1245 H   0  0  0  0  0  0  0  0  0  0  0  0
    7.6719   -5.2190    0.5521 H   0  0  0  0  0  0  0  0  0  0  0  0
    7.9438   -5.1485    2.3053 H   0  0  0  0  0  0  0  0  0  0  0  0
    5.6687   -8.0020    0.5023 H   0  0  0  0  0  0  0  0  0  0  0  0
    5.3451  -10.0049    3.7481 H   0  0  0  0  0  0  0  0  0  0  0  0
    6.8568   -9.2097    5.2918 H   0  0  0  0  0  0  0  0  0  0  0  0
    7.6682   -8.9088    3.8032 H   0  0  0  0  0  0  0  0  0  0  0  0
    7.6106   -7.0647    5.7453 H   0  0  0  0  0  0  0  0  0  0  0  0
    7.5657   -6.5688    4.0999 H   0  0  0  0  0  0  0  0  0  0  0  0
    5.3965   -6.3824    6.1223 H   0  0  0  0  0  0  0  0  0  0  0  0
    5.9161   -5.2690    4.8835 H   0  0  0  0  0  0  0  0  0  0  0  0
    3.3045   -8.4150    1.6423 H   0  0  0  0  0  0  0  0  0  0  0  0
    1.8088   -9.1374    2.0102 H   0  0  0  0  0  0  0  0  0  0  0  0
    3.2638   -9.9889    2.4004 H   0  0  0  0  0  0  0  0  0  0  0  0
    1.8112  -10.7539    5.0455 H   0  0  0  0  0  0  0  0  0  0  0  0
    0.2264  -10.2304    5.1272 H   0  0  0  0  0  0  0  0  0  0  0  0
    2.2099   -7.5226    8.8725 H   0  0  0  0  0  0  0  0  0  0  0  0
    1.0933   -5.3681    9.4384 H   0  0  0  0  0  0  0  0  0  0  0  0
   -1.3795    0.1992    6.0846 H   0  0  0  0  0  0  0  0  0  0  0  0
   -0.8603   -0.3631    3.6951 H   0  0  0  0  0  0  0  0  0  0  0  0
    0.2120   -2.5588    3.2140 H   0  0  0  0  0  0  0  0  0  0  0  0
    2.7214   -3.9259    4.0658 H   0  0  0  0  0  0  0  0  0  0  0  0
    4.4980   -4.0478    4.1894 H   0  0  0  0  0  0  0  0  0  0  0  0
    3.5208   -4.5658    5.4709 H   0  0  0  0  0  0  0  0  0  0  0  0
    3.0450   -3.5828    1.9122 H   0  0  0  0  0  0  0  0  0  0  0  0
    2.6754   -4.6746   -0.3179 H   0  0  0  0  0  0  0  0  0  0  0  0
    5.3524   -3.2643   -0.6964 H   0  0  0  0  0  0  0  0  0  0  0  0
    3.7836   -2.4628   -0.6332 H   0  0  0  0  0  0  0  0  0  0  0  0
    4.1371   -3.6225   -1.8991 H   0  0  0  0  0  0  0  0  0  0  0  0
    3.8242   -6.6722   -0.5409 H   0  0  0  0  0  0  0  0  0  0  0  0
    5.3403   -5.8082   -0.7651 H   0  0  0  0  0  0  0  0  0  0  0  0
  1  2  1  0
  1 49  1  0
  1 50  1  0
  1 51  1  0
  2 44  1  0
  2  3  2  0
  3 48  1  0
  3  4  1  0
  4  5  1  0
  4 52  1  0
  4 53  1  0
  5  6  2  0
  5  7  1  0
  7 48  1  0
  7  8  1  0
  7 54  1  6
  8  9  1  0
  9 14  1  0
  9 10  1  0
  9 55  1  6
 10 11  1  0
 10 56  1  0
 10 57  1  0
 11 12  1  0
 11 58  1  0
 11 59  1  0
 12 13  1  0
 12 60  1  0
 12 61  1  0
 13 39  1  0
 13 14  1  0
 14 15  1  1
 14 17  1  0
 15 16  3  0
 17 24  1  0
 17 18  1  6
 17 19  1  0
 18 62  1  0
 18 63  1  0
 18 64  1  0
 19 21  2  0
 19 20  1  0
 20 65  1  0
 20 66  1  0
 21 22  1  0
 21 24  1  0
 22 23  3  0
 24 25  1  1
 24 39  1  0
 25 38  1  0
 25 26  2  0
 26 27  1  0
 27 28  2  0
 27 67  1  0
 28 29  1  0
 28 68  1  0
 29 38  2  0
 29 30  1  0
 30 31  2  0
 31 36  1  0
 31 32  1  0
 32 33  2  0
 33 34  1  0
 33 69  1  0
 34 35  2  0
 34 70  1  0
 35 36  1  0
 35 71  1  0
 36 37  2  0
 37 38  1  0
 39 40  1  1
 39 41  1  0
 40 72  1  0
 40 73  1  0
 40 74  1  0
 41 48  1  0
 41 42  1  6
 41 44  1  0
 42 43  3  0
 44 45  1  0
 44 75  1  1
 45 46  1  0
 45 47  1  0
 45 76  1  6
 46 77  1  0
 46 78  1  0
 46 79  1  0
 48 47  1  6
 47 80  1  0
 47 81  1  0
M  END
>  <i_m_ct_stereo_status>  (93) 
1

>  <s_m_source_file>  (93) 
/var/tmp/pbs.5076255.sched01/tmp5vb4dkz1/0x5hafel7.sdf

>  <i_m_source_file_index>  (93) 
35

>  <i_lp_mmshare_version>  (93) 
48012

>  <i_f3d_flags>  (93) 
0

>  <s_epik_input>  (93) 
W0NAXTEyM0M0PUMoW0NIM10pW0NAQEhdKFtDQEBIXShbQ0gzXSlbQ0gyXTMpW0NAXTIoQyNOKVtDQF01KFtDSDNdKU42W0NAXShDI04pKFtDQEhdKFtDSDJdW0NIMl1bQ0gyXTYpT1tDQEBIXTFDKD1PKVtDSDJdNClbQ0BAXTcoW0NIM10pW0NAQF01KFtDQEhdKEMjTilDXDc9Ti9bSF0pYyhuW2NIXVtjSF04KWMoYzg5KW5jMWMobjkpbltjSF1bY0hdW2NIXTE=

>  <s_epik_cmdline>  (93) 
J2VwaWtfcHl0aG9uJywgJy1waHQnLCAnMi4wJywgJy1waCcsICc3LjAnLCAnLXRuJywgJzgnLCAnLW1hJywgJzIwMCcsICctaW1hZScsICc8aW5maWxlLm1hZT4nLCAnLW9tYWUnLCAnPG91dGZpbGUubWFlPic=

>  <r_lp_tautomer_probability>  (93) 
1

>  <r_epik_Ionization_Penalty>  (93) 
6.20374e-06

>  <r_epik_Ionization_Penalty_Charging>  (93) 
0

>  <r_epik_Ionization_Penalty_Neutral>  (93) 
6.20374e-06

>  <r_epik_State_Penalty>  (93) 
-0

>  <r_epik_Charging_Adjusted_Penalty>  (93) 
0

>  <i_epik_Tot_Q>  (93) 
0

>  <i_epik_Tot_abs_Q>  (93) 
0

>  <s_lp_Force_Field>  (93) 
OPLS3e

>  <r_lp_Energy>  (93) 
227.542

>  <b_lp_Chiralities_Consistent>  (93) 
1

>  <s_lp_Variant>  (93) 
21:0-1

>  <s_i_glide_gridfile>  (93) 
pfpi4k_grid

>  <i_i_glide_lignum>  (93) 
35

>  <i_i_glide_rotatable_bonds>  (93) 
4

>  <r_i_docking_score>  (93) 
-3.28529

>  <r_i_glide_ligand_efficiency>  (93) 
-0.0684436

>  <r_i_glide_ligand_efficiency_sa>  (93) 
-0.248741

>  <r_i_glide_ligand_efficiency_ln>  (93) 
-0.674432

>  <r_i_glide_gscore>  (93) 
-3.28529

>  <r_i_glide_lipo>  (93) 
-0.479863

>  <r_i_glide_hbond>  (93) 
-0.20276

>  <r_i_glide_metal>  (93) 
-0

>  <r_i_glide_rewards>  (93) 
-0.0894794

>  <r_i_glide_evdw>  (93) 
-27.3918

>  <r_i_glide_ecoul>  (93) 
-7.06128

>  <r_i_glide_erotb>  (93) 
0.0523831

>  <r_i_glide_esite>  (93) 
-0.136793

>  <r_i_glide_emodel>  (93) 
-33.338

>  <r_i_glide_energy>  (93) 
-34.4531

>  <r_i_glide_einternal>  (93) 
11.2061

>  <r_i_glide_intrahb_reward>  (93) 
-0

>  <i_i_glide_confnum>  (93) 
1

>  <i_i_glide_posenum>  (93) 
1

>  <r_i_glide_eff_state_penalty>  (93) 
0

>  <ligand_id>  (93) 
21

>  <original_smiles>  (93) 
CC1=C2CC(=O)C3OC4CCCN5C4(C#N)C4(C)C(=N)C(C#N)C4(c4nccc6nc7ncccc7nc46)C5(C)C4(C#N)C1C(C)CC234

>  <smiles>  (93) 
[H]c1nc2nc3c([H])c([H])nc(C45C(C#N)=C(N([H])[H])C4(C([H])([H])[H])C4(C#N)N6C([H])([H])C([H])([H])C([H])([H])C4([H])OC4([H])C(=O)C([H])([H])C7=C(C([H])([H])[H])C8([H])C([H])(C([H])([H])[H])C([H])([H])C74C8(C#N)C65C([H])([H])[H])c3nc2c([H])c1[H]

$$$$
21:0:1
     RDKit          3D

 81 90  0  0  1  0  0  0  0  0999 V2000
   -0.1590    2.0039    3.5021 C   0  0  0  0  0  0  0  0  0  0  0  0
    1.0354    1.3692    4.1813 C   0  0  0  0  0  0  0  0  0  0  0  0
    1.2040    0.9599    5.4252 C   0  0  0  0  0  0  0  0  0  0  0  0
    0.3745    1.0384    6.6706 C   0  0  0  0  0  0  0  0  0  0  0  0
    1.2101    0.1716    7.5931 C   0  0  0  0  0  0  0  0  0  0  0  0
    0.8083   -0.1599    8.7024 O   0  0  0  0  0  0  0  0  0  0  0  0
    2.5841   -0.2081    7.0281 C   0  0  1  0  0  0  0  0  0  0  0  0
    2.9854   -1.5523    7.3948 O   0  0  0  0  0  0  0  0  0  0  0  0
    2.4516   -2.8153    6.9366 C   0  0  1  0  0  0  0  0  0  0  0  0
    0.9651   -3.0951    7.3076 C   0  0  0  0  0  0  0  0  0  0  0  0
   -0.1046   -2.6016    6.2839 C   0  0  0  0  0  0  0  0  0  0  0  0
    0.3645   -2.4667    4.8213 C   0  0  0  0  0  0  0  0  0  0  0  0
    1.7944   -2.2017    4.7418 N   0  0  0  0  0  0  0  0  0  0  0  0
    2.6588   -3.1717    5.4438 C   0  0  2  0  0  0  0  0  0  0  0  0
    2.2670   -4.6014    5.3471 C   0  0  0  0  0  0  0  0  0  0  0  0
    1.9653   -5.7201    5.3086 N   0  0  0  0  0  0  0  0  0  0  0  0
    4.0161   -2.9399    4.7723 C   0  0  1  0  0  0  0  0  0  0  0  0
    5.0221   -2.1741    5.7129 C   0  0  0  0  0  0  0  0  0  0  0  0
    4.9347   -3.8142    3.9794 C   0  0  0  0  0  0  0  0  0  0  0  0
    5.7697   -4.8242    4.4413 N   0  0  0  0  0  0  0  0  0  0  0  0
    5.0187   -2.7880    3.1069 C   0  0  0  0  0  0  0  0  0  0  0  0
    5.8685   -2.5971    1.9953 C   0  0  0  0  0  0  0  0  0  0  0  0
    6.5957   -2.3681    1.1205 N   0  0  0  0  0  0  0  0  0  0  0  0
    3.5125   -2.6095    3.2603 C   0  0  1  0  0  0  0  0  0  0  0  0
    2.9761   -3.5667    2.1310 C   0  0  0  0  0  0  0  0  0  0  0  0
    2.3481   -4.6773    2.5619 N   0  0  0  0  0  0  0  0  0  0  0  0
    1.8763   -5.5596    1.6690 C   0  0  0  0  0  0  0  0  0  0  0  0
    1.9101   -5.3327    0.2857 C   0  0  0  0  0  0  0  0  0  0  0  0
    2.4831   -4.1485   -0.1808 C   0  0  0  0  0  0  0  0  0  0  0  0
    2.3833   -3.8300   -1.4883 N   0  0  0  0  0  0  0  0  0  0  0  0
    3.0136   -2.7393   -1.9607 C   0  0  0  0  0  0  0  0  0  0  0  0
    3.0352   -2.4768   -3.2965 N   0  0  0  0  0  0  0  0  0  0  0  0
    3.6116   -1.3421   -3.7330 C   0  0  0  0  0  0  0  0  0  0  0  0
    4.1794   -0.3865   -2.8704 C   0  0  0  0  0  0  0  0  0  0  0  0
    4.2232   -0.6764   -1.5026 C   0  0  0  0  0  0  0  0  0  0  0  0
    3.6596   -1.8722   -1.0290 C   0  0  0  0  0  0  0  0  0  0  0  0
    3.6766   -2.1359    0.2877 N   0  0  0  0  0  0  0  0  0  0  0  0
    3.0931   -3.2603    0.7416 C   0  0  0  0  0  0  0  0  0  0  0  0
    2.4600   -1.4701    3.6291 C   0  0  1  0  0  0  0  0  0  0  0  0
    1.4591   -1.2038    2.4595 C   0  0  0  0  0  0  0  0  0  0  0  0
    3.0320   -0.0525    4.1649 C   0  0  1  0  0  0  0  0  0  0  0  0
    4.4734    0.0500    3.8478 C   0  0  0  0  0  0  0  0  0  0  0  0
    5.5991    0.1395    3.5978 N   0  0  0  0  0  0  0  0  0  0  0  0
    2.4029    1.2642    3.5361 C   0  0  2  0  0  0  0  0  0  0  0  0
    3.2273    2.4058    4.2241 C   0  0  1  0  0  0  0  0  0  0  0  0
    2.6233    3.8260    4.1715 C   0  0  0  0  0  0  0  0  0  0  0  0
    3.4042    1.8463    5.6636 C   0  0  0  0  0  0  0  0  0  0  0  0
    2.6274    0.4957    5.6181 C   0  0  1  0  0  0  0  0  0  0  0  0
    0.1295    2.9384    3.0274 H   0  0  0  0  0  0  0  0  0  0  0  0
   -0.9757    2.1958    4.1981 H   0  0  0  0  0  0  0  0  0  0  0  0
   -0.5320    1.3557    2.7157 H   0  0  0  0  0  0  0  0  0  0  0  0
    0.3573    2.0552    7.0686 H   0  0  0  0  0  0  0  0  0  0  0  0
   -0.6474    0.6818    6.5515 H   0  0  0  0  0  0  0  0  0  0  0  0
    3.2713    0.3761    7.6493 H   0  0  0  0  0  0  0  0  0  0  0  0
    3.0392   -3.5332    7.5162 H   0  0  0  0  0  0  0  0  0  0  0  0
    0.8408   -4.1732    7.4201 H   0  0  0  0  0  0  0  0  0  0  0  0
    0.7528   -2.7037    8.2971 H   0  0  0  0  0  0  0  0  0  0  0  0
   -0.9875   -3.2468    6.3326 H   0  0  0  0  0  0  0  0  0  0  0  0
   -0.4570   -1.6255    6.5870 H   0  0  0  0  0  0  0  0  0  0  0  0
    0.1681   -3.3995    4.3029 H   0  0  0  0  0  0  0  0  0  0  0  0
   -0.2249   -1.6892    4.3218 H   0  0  0  0  0  0  0  0  0  0  0  0
    4.7156   -1.1677    5.9294 H   0  0  0  0  0  0  0  0  0  0  0  0
    6.0178   -2.0477    5.2886 H   0  0  0  0  0  0  0  0  0  0  0  0
    5.1858   -2.6823    6.6657 H   0  0  0  0  0  0  0  0  0  0  0  0
    5.4697   -5.3753    5.2277 H   0  0  0  0  0  0  0  0  0  0  0  0
    6.3385   -5.3584    3.8034 H   0  0  0  0  0  0  0  0  0  0  0  0
    1.3818   -6.4332    2.0531 H   0  0  0  0  0  0  0  0  0  0  0  0
    1.4325   -6.0104   -0.4112 H   0  0  0  0  0  0  0  0  0  0  0  0
    3.5901   -1.1433   -4.7903 H   0  0  0  0  0  0  0  0  0  0  0  0
    4.5671    0.5646   -3.2206 H   0  0  0  0  0  0  0  0  0  0  0  0
    4.6458   -0.0001   -0.7807 H   0  0  0  0  0  0  0  0  0  0  0  0
    1.9420   -0.6972    1.6287 H   0  0  0  0  0  0  0  0  0  0  0  0
    0.6167   -0.5850    2.7428 H   0  0  0  0  0  0  0  0  0  0  0  0
    1.0011   -2.1109    2.0794 H   0  0  0  0  0  0  0  0  0  0  0  0
    2.3869    1.3330    2.4462 H   0  0  0  0  0  0  0  0  0  0  0  0
    4.2087    2.4779    3.7749 H   0  0  0  0  0  0  0  0  0  0  0  0
    1.6861    3.9189    4.7211 H   0  0  0  0  0  0  0  0  0  0  0  0
    2.4299    4.1354    3.1464 H   0  0  0  0  0  0  0  0  0  0  0  0
    3.3040    4.5589    4.5997 H   0  0  0  0  0  0  0  0  0  0  0  0
    4.4577    1.6971    5.9044 H   0  0  0  0  0  0  0  0  0  0  0  0
    3.0035    2.5218    6.4223 H   0  0  0  0  0  0  0  0  0  0  0  0
  1  2  1  0
  1 49  1  0
  1 50  1  0
  1 51  1  0
  2 44  1  0
  2  3  2  0
  3 48  1  0
  3  4  1  0
  4  5  1  0
  4 52  1  0
  4 53  1  0
  5  6  2  0
  5  7  1  0
  7 48  1  0
  7  8  1  0
  7 54  1  1
  8  9  1  0
  9 14  1  0
  9 10  1  0
  9 55  1  1
 10 11  1  0
 10 56  1  0
 10 57  1  0
 11 12  1  0
 11 58  1  0
 11 59  1  0
 12 13  1  0
 12 60  1  0
 12 61  1  0
 13 39  1  0
 13 14  1  0
 14 15  1  1
 14 17  1  0
 15 16  3  0
 17 24  1  0
 17 18  1  1
 17 19  1  0
 18 62  1  0
 18 63  1  0
 18 64  1  0
 19 21  2  0
 19 20  1  0
 20 65  1  0
 20 66  1  0
 21 22  1  0
 21 24  1  0
 22 23  3  0
 24 25  1  6
 24 39  1  0
 25 38  1  0
 25 26  2  0
 26 27  1  0
 27 28  2  0
 27 67  1  0
 28 29  1  0
 28 68  1  0
 29 38  2  0
 29 30  1  0
 30 31  2  0
 31 36  1  0
 31 32  1  0
 32 33  2  0
 33 34  1  0
 33 69  1  0
 34 35  2  0
 34 70  1  0
 35 36  1  0
 35 71  1  0
 36 37  2  0
 37 38  1  0
 39 40  1  6
 39 41  1  0
 40 72  1  0
 40 73  1  0
 40 74  1  0
 41 48  1  0
 41 42  1  1
 41 44  1  0
 42 43  3  0
 44 45  1  0
 44 75  1  6
 45 46  1  0
 45 47  1  0
 45 76  1  6
 46 77  1  0
 46 78  1  0
 46 79  1  0
 48 47  1  1
 47 80  1  0
 47 81  1  0
M  END
>  <i_m_ct_stereo_status>  (94) 
1

>  <s_m_source_file>  (94) 
/var/tmp/pbs.5076255.sched01/tmp5vb4dkz1/0x5hafel7.sdf

>  <i_m_source_file_index>  (94) 
35

>  <i_lp_mmshare_version>  (94) 
48012

>  <i_f3d_flags>  (94) 
0

>  <s_epik_input>  (94) 
W0NAXTEyM0M0PUMoW0NIM10pW0NAQEhdKFtDQEBIXShbQ0gzXSlbQ0gyXTMpW0NAXTIoQyNOKVtDQF01KFtDSDNdKU42W0NAXShDI04pKFtDQEhdKFtDSDJdW0NIMl1bQ0gyXTYpT1tDQEBIXTFDKD1PKVtDSDJdNClbQ0BAXTcoW0NIM10pW0NAQF01KFtDQEhdKEMjTilDXDc9Ti9bSF0pYyhuW2NIXVtjSF04KWMoYzg5KW5jMWMobjkpbltjSF1bY0hdW2NIXTE=

>  <s_epik_cmdline>  (94) 
J2VwaWtfcHl0aG9uJywgJy1waHQnLCAnMi4wJywgJy1waCcsICc3LjAnLCAnLXRuJywgJzgnLCAnLW1hJywgJzIwMCcsICctaW1hZScsICc8aW5maWxlLm1hZT4nLCAnLW9tYWUnLCAnPG91dGZpbGUubWFlPic=

>  <r_lp_tautomer_probability>  (94) 
1

>  <r_epik_Ionization_Penalty>  (94) 
6.20374e-06

>  <r_epik_Ionization_Penalty_Charging>  (94) 
0

>  <r_epik_Ionization_Penalty_Neutral>  (94) 
6.20374e-06

>  <r_epik_State_Penalty>  (94) 
-0

>  <r_epik_Charging_Adjusted_Penalty>  (94) 
0

>  <i_epik_Tot_Q>  (94) 
0

>  <i_epik_Tot_abs_Q>  (94) 
0

>  <s_lp_Force_Field>  (94) 
OPLS3e

>  <r_lp_Energy>  (94) 
227.542

>  <b_lp_Chiralities_Consistent>  (94) 
1

>  <s_lp_Variant>  (94) 
21:0-1

>  <s_i_glide_gridfile>  (94) 
pfpi4k_grid

>  <i_i_glide_lignum>  (94) 
35

>  <i_i_glide_rotatable_bonds>  (94) 
4

>  <r_i_docking_score>  (94) 
-2.04931

>  <r_i_glide_ligand_efficiency>  (94) 
-0.0426939

>  <r_i_glide_ligand_efficiency_sa>  (94) 
-0.15516

>  <r_i_glide_ligand_efficiency_ln>  (94) 
-0.420698

>  <r_i_glide_gscore>  (94) 
-2.04931

>  <r_i_glide_lipo>  (94) 
-0.507713

>  <r_i_glide_hbond>  (94) 
-0.0205911

>  <r_i_glide_metal>  (94) 
-0

>  <r_i_glide_rewards>  (94) 
-0.110927

>  <r_i_glide_evdw>  (94) 
-27.6617

>  <r_i_glide_ecoul>  (94) 
-0.304394

>  <r_i_glide_erotb>  (94) 
0.0523831

>  <r_i_glide_esite>  (94) 
-0.0337154

>  <r_i_glide_emodel>  (94) 
-30.6327

>  <r_i_glide_energy>  (94) 
-27.9661

>  <r_i_glide_einternal>  (94) 
1.09004

>  <r_i_glide_intrahb_reward>  (94) 
-0

>  <i_i_glide_confnum>  (94) 
2

>  <i_i_glide_posenum>  (94) 
4

>  <r_i_glide_eff_state_penalty>  (94) 
0

>  <ligand_id>  (94) 
21

>  <original_smiles>  (94) 
CC1=C2CC(=O)C3OC4CCCN5C4(C#N)C4(C)C(=N)C(C#N)C4(c4nccc6nc7ncccc7nc46)C5(C)C4(C#N)C1C(C)CC234

>  <smiles>  (94) 
[H]c1nc2nc3c([H])c([H])nc(C45C(C#N)=C(N([H])[H])C4(C([H])([H])[H])C4(C#N)N6C([H])([H])C([H])([H])C([H])([H])C4([H])OC4([H])C(=O)C([H])([H])C7=C(C([H])([H])[H])C8([H])C([H])(C([H])([H])[H])C([H])([H])C74C8(C#N)C65C([H])([H])[H])c3nc2c([H])c1[H]

$$$$
21:0:2
     RDKit          3D

 81 90  0  0  1  0  0  0  0  0999 V2000
    2.6670   -5.3193    0.3350 C   0  0  0  0  0  0  0  0  0  0  0  0
    2.4607   -6.0152    1.6684 C   0  0  0  0  0  0  0  0  0  0  0  0
    3.0510   -7.0771    2.1938 C   0  0  0  0  0  0  0  0  0  0  0  0
    4.0639   -8.0678    1.6918 C   0  0  0  0  0  0  0  0  0  0  0  0
    4.3407   -8.8442    2.9692 C   0  0  0  0  0  0  0  0  0  0  0  0
    5.2322   -9.6819    3.0590 O   0  0  0  0  0  0  0  0  0  0  0  0
    3.3793   -8.4895    4.1093 C   0  0  1  0  0  0  0  0  0  0  0  0
    4.0155   -8.4812    5.4052 O   0  0  0  0  0  0  0  0  0  0  0  0
    4.9842   -7.5525    5.9427 C   0  0  1  0  0  0  0  0  0  0  0  0
    6.3485   -7.4770    5.1913 C   0  0  0  0  0  0  0  0  0  0  0  0
    6.4178   -6.4457    4.0230 C   0  0  0  0  0  0  0  0  0  0  0  0
    5.4563   -5.2403    4.1171 C   0  0  0  0  0  0  0  0  0  0  0  0
    4.2534   -5.5747    4.8706 N   0  0  0  0  0  0  0  0  0  0  0  0
    4.4838   -6.1116    6.2225 C   0  0  2  0  0  0  0  0  0  0  0  0
    5.5729   -5.4843    7.0112 C   0  0  0  0  0  0  0  0  0  0  0  0
    6.4334   -5.0239    7.6385 N   0  0  0  0  0  0  0  0  0  0  0  0
    3.1215   -5.8678    6.8922 C   0  0  1  0  0  0  0  0  0  0  0  0
    2.2959   -7.2029    7.0702 C   0  0  0  0  0  0  0  0  0  0  0  0
    2.7071   -5.0682    8.0891 C   0  0  0  0  0  0  0  0  0  0  0  0
    2.9021   -5.3595    9.4311 N   0  0  0  0  0  0  0  0  0  0  0  0
    1.6827   -4.6338    7.3291 C   0  0  0  0  0  0  0  0  0  0  0  0
    0.4982   -3.9236    7.6880 C   0  0  0  0  0  0  0  0  0  0  0  0
   -0.5072   -3.4219    7.9811 N   0  0  0  0  0  0  0  0  0  0  0  0
    2.6965   -4.4702    6.1820 C   0  0  1  0  0  0  0  0  0  0  0  0
    3.2463   -3.0096    6.4107 C   0  0  0  0  0  0  0  0  0  0  0  0
    4.5427   -2.9031    6.7700 N   0  0  0  0  0  0  0  0  0  0  0  0
    5.0886   -1.6906    6.9632 C   0  0  0  0  0  0  0  0  0  0  0  0
    4.3838   -0.4975    6.7656 C   0  0  0  0  0  0  0  0  0  0  0  0
    3.0448   -0.5710    6.3485 C   0  0  0  0  0  0  0  0  0  0  0  0
    2.3582    0.5675    6.1088 N   0  0  0  0  0  0  0  0  0  0  0  0
    1.0807    0.4920    5.6861 C   0  0  0  0  0  0  0  0  0  0  0  0
    0.3703    1.6201    5.4661 N   0  0  0  0  0  0  0  0  0  0  0  0
   -0.9066    1.5381    5.0444 C   0  0  0  0  0  0  0  0  0  0  0  0
   -1.5642    0.3177    4.8285 C   0  0  0  0  0  0  0  0  0  0  0  0
   -0.8457   -0.8639    5.0528 C   0  0  0  0  0  0  0  0  0  0  0  0
    0.4893   -0.7912    5.4913 C   0  0  0  0  0  0  0  0  0  0  0  0
    1.1796   -1.9297    5.7217 N   0  0  0  0  0  0  0  0  0  0  0  0
    2.4540   -1.8489    6.1626 C   0  0  0  0  0  0  0  0  0  0  0  0
    2.9202   -4.9386    4.6719 C   0  0  1  0  0  0  0  0  0  0  0  0
    3.0283   -3.7069    3.7099 C   0  0  0  0  0  0  0  0  0  0  0  0
    1.8738   -6.0121    4.0491 C   0  0  1  0  0  0  0  0  0  0  0  0
    0.6496   -6.0515    4.8859 C   0  0  0  0  0  0  0  0  0  0  0  0
   -0.3241   -6.0816    5.5163 N   0  0  0  0  0  0  0  0  0  0  0  0
    1.3101   -5.7040    2.6015 C   0  0  2  0  0  0  0  0  0  0  0  0
    0.2841   -6.8711    2.3685 C   0  0  1  0  0  0  0  0  0  0  0  0
   -0.1472   -7.1282    0.9106 C   0  0  0  0  0  0  0  0  0  0  0  0
    1.0429   -8.0691    3.0245 C   0  0  0  0  0  0  0  0  0  0  0  0
    2.3866   -7.4303    3.4999 C   0  0  1  0  0  0  0  0  0  0  0  0
    1.7299   -5.2530   -0.2144 H   0  0  0  0  0  0  0  0  0  0  0  0
    3.3946   -5.8414   -0.2856 H   0  0  0  0  0  0  0  0  0  0  0  0
    3.0229   -4.3052    0.4962 H   0  0  0  0  0  0  0  0  0  0  0  0
    3.6173   -8.7518    0.9679 H   0  0  0  0  0  0  0  0  0  0  0  0
    4.9555   -7.6186    1.2545 H   0  0  0  0  0  0  0  0  0  0  0  0
    2.7777   -9.3987    4.2054 H   0  0  0  0  0  0  0  0  0  0  0  0
    5.2142   -7.9938    6.9155 H   0  0  0  0  0  0  0  0  0  0  0  0
    7.1232   -7.2046    5.9124 H   0  0  0  0  0  0  0  0  0  0  0  0
    6.6436   -8.4621    4.8448 H   0  0  0  0  0  0  0  0  0  0  0  0
    7.4494   -6.0902    3.9081 H   0  0  0  0  0  0  0  0  0  0  0  0
    6.2111   -6.9549    3.0875 H   0  0  0  0  0  0  0  0  0  0  0  0
    5.9645   -4.4142    4.6112 H   0  0  0  0  0  0  0  0  0  0  0  0
    5.2256   -4.9064    3.1017 H   0  0  0  0  0  0  0  0  0  0  0  0
    1.9995   -7.6545    6.1377 H   0  0  0  0  0  0  0  0  0  0  0  0
    1.3492   -7.0807    7.6044 H   0  0  0  0  0  0  0  0  0  0  0  0
    2.8458   -7.9571    7.6380 H   0  0  0  0  0  0  0  0  0  0  0  0
    3.7373   -5.8596    9.7031 H   0  0  0  0  0  0  0  0  0  0  0  0
    2.5552   -4.7408   10.1506 H   0  0  0  0  0  0  0  0  0  0  0  0
    6.1192   -1.6662    7.2856 H   0  0  0  0  0  0  0  0  0  0  0  0
    4.8682    0.4568    6.9146 H   0  0  0  0  0  0  0  0  0  0  0  0
   -1.4159    2.4721    4.8722 H   0  0  0  0  0  0  0  0  0  0  0  0
   -2.5848    0.2850    4.4796 H   0  0  0  0  0  0  0  0  0  0  0  0
   -1.3093   -1.8301    4.8994 H   0  0  0  0  0  0  0  0  0  0  0  0
    2.0740   -3.1982    3.6053 H   0  0  0  0  0  0  0  0  0  0  0  0
    3.3547   -3.9718    2.7158 H   0  0  0  0  0  0  0  0  0  0  0  0
    3.7673   -2.9694    4.0149 H   0  0  0  0  0  0  0  0  0  0  0  0
    0.8823   -4.7121    2.4838 H   0  0  0  0  0  0  0  0  0  0  0  0
   -0.6386   -6.7038    2.9190 H   0  0  0  0  0  0  0  0  0  0  0  0
    0.6771   -7.4568    0.2813 H   0  0  0  0  0  0  0  0  0  0  0  0
   -0.5849   -6.2508    0.4498 H   0  0  0  0  0  0  0  0  0  0  0  0
   -0.9016   -7.9105    0.8808 H   0  0  0  0  0  0  0  0  0  0  0  0
    0.4830   -8.4870    3.8646 H   0  0  0  0  0  0  0  0  0  0  0  0
    1.2096   -8.8935    2.3229 H   0  0  0  0  0  0  0  0  0  0  0  0
  1  2  1  0
  1 49  1  0
  1 50  1  0
  1 51  1  0
  2 44  1  0
  2  3  2  0
  3 48  1  0
  3  4  1  0
  4  5  1  0
  4 52  1  0
  4 53  1  0
  5  6  2  0
  5  7  1  0
  7 48  1  0
  7  8  1  0
  7 54  1  1
  8  9  1  0
  9 14  1  0
  9 10  1  0
  9 55  1  1
 10 11  1  0
 10 56  1  0
 10 57  1  0
 11 12  1  0
 11 58  1  0
 11 59  1  0
 12 13  1  0
 12 60  1  0
 12 61  1  0
 13 39  1  0
 13 14  1  0
 14 15  1  1
 14 17  1  0
 15 16  3  0
 17 24  1  0
 17 18  1  6
 17 19  1  0
 18 62  1  0
 18 63  1  0
 18 64  1  0
 19 21  2  0
 19 20  1  0
 20 65  1  0
 20 66  1  0
 21 22  1  0
 21 24  1  0
 22 23  3  0
 24 25  1  1
 24 39  1  0
 25 38  1  0
 25 26  2  0
 26 27  1  0
 27 28  2  0
 27 67  1  0
 28 29  1  0
 28 68  1  0
 29 38  2  0
 29 30  1  0
 30 31  2  0
 31 36  1  0
 31 32  1  0
 32 33  2  0
 33 34  1  0
 33 69  1  0
 34 35  2  0
 34 70  1  0
 35 36  1  0
 35 71  1  0
 36 37  2  0
 37 38  1  0
 39 40  1  6
 39 41  1  0
 40 72  1  0
 40 73  1  0
 40 74  1  0
 41 48  1  0
 41 42  1  1
 41 44  1  0
 42 43  3  0
 44 45  1  0
 44 75  1  1
 45 46  1  0
 45 47  1  0
 45 76  1  1
 46 77  1  0
 46 78  1  0
 46 79  1  0
 48 47  1  6
 47 80  1  0
 47 81  1  0
M  END
>  <i_m_ct_stereo_status>  (95) 
1

>  <s_m_source_file>  (95) 
/var/tmp/pbs.5076255.sched01/tmp5vb4dkz1/0x5hafel7.sdf

>  <i_m_source_file_index>  (95) 
35

>  <i_lp_mmshare_version>  (95) 
48012

>  <i_f3d_flags>  (95) 
0

>  <s_epik_input>  (95) 
W0NAXTEyM0M0PUMoW0NIM10pW0NAQEhdKFtDQEBIXShbQ0gzXSlbQ0gyXTMpW0NAXTIoQyNOKVtDQF01KFtDSDNdKU42W0NAXShDI04pKFtDQEhdKFtDSDJdW0NIMl1bQ0gyXTYpT1tDQEBIXTFDKD1PKVtDSDJdNClbQ0BAXTcoW0NIM10pW0NAQF01KFtDQEhdKEMjTilDXDc9Ti9bSF0pYyhuW2NIXVtjSF04KWMoYzg5KW5jMWMobjkpbltjSF1bY0hdW2NIXTE=

>  <s_epik_cmdline>  (95) 
J2VwaWtfcHl0aG9uJywgJy1waHQnLCAnMi4wJywgJy1waCcsICc3LjAnLCAnLXRuJywgJzgnLCAnLW1hJywgJzIwMCcsICctaW1hZScsICc8aW5maWxlLm1hZT4nLCAnLW9tYWUnLCAnPG91dGZpbGUubWFlPic=

>  <r_lp_tautomer_probability>  (95) 
1

>  <r_epik_Ionization_Penalty>  (95) 
6.20374e-06

>  <r_epik_Ionization_Penalty_Charging>  (95) 
0

>  <r_epik_Ionization_Penalty_Neutral>  (95) 
6.20374e-06

>  <r_epik_State_Penalty>  (95) 
-0

>  <r_epik_Charging_Adjusted_Penalty>  (95) 
0

>  <i_epik_Tot_Q>  (95) 
0

>  <i_epik_Tot_abs_Q>  (95) 
0

>  <s_lp_Force_Field>  (95) 
OPLS3e

>  <r_lp_Energy>  (95) 
227.542

>  <b_lp_Chiralities_Consistent>  (95) 
1

>  <s_lp_Variant>  (95) 
21:0-1

>  <s_i_glide_gridfile>  (95) 
pfpi4k_grid

>  <i_i_glide_lignum>  (95) 
35

>  <i_i_glide_rotatable_bonds>  (95) 
4

>  <r_i_docking_score>  (95) 
-1.8763

>  <r_i_glide_ligand_efficiency>  (95) 
-0.0390895

>  <r_i_glide_ligand_efficiency_sa>  (95) 
-0.142061

>  <r_i_glide_ligand_efficiency_ln>  (95) 
-0.385181

>  <r_i_glide_gscore>  (95) 
-1.8763

>  <r_i_glide_lipo>  (95) 
-0.0105883

>  <r_i_glide_hbond>  (95) 
-0.0431971

>  <r_i_glide_metal>  (95) 
-0

>  <r_i_glide_rewards>  (95) 
0

>  <r_i_glide_evdw>  (95) 
-26.3799

>  <r_i_glide_ecoul>  (95) 
-3.51527

>  <r_i_glide_erotb>  (95) 
0.0523831

>  <r_i_glide_esite>  (95) 
-0.0286072

>  <r_i_glide_emodel>  (95) 
-32.7989

>  <r_i_glide_energy>  (95) 
-29.8952

>  <r_i_glide_einternal>  (95) 
0.70333

>  <r_i_glide_intrahb_reward>  (95) 
-0

>  <i_i_glide_confnum>  (95) 
2

>  <i_i_glide_posenum>  (95) 
18

>  <r_i_glide_eff_state_penalty>  (95) 
0

>  <ligand_id>  (95) 
21

>  <original_smiles>  (95) 
CC1=C2CC(=O)C3OC4CCCN5C4(C#N)C4(C)C(=N)C(C#N)C4(c4nccc6nc7ncccc7nc46)C5(C)C4(C#N)C1C(C)CC234

>  <smiles>  (95) 
[H]c1nc2nc3c([H])c([H])nc(C45C(C#N)=C(N([H])[H])C4(C([H])([H])[H])C4(C#N)N6C([H])([H])C([H])([H])C([H])([H])C4([H])OC4([H])C(=O)C([H])([H])C7=C(C([H])([H])[H])C8([H])C([H])(C([H])([H])[H])C([H])([H])C74C8(C#N)C65C([H])([H])[H])c3nc2c([H])c1[H]

$$$$
21:1:0
     RDKit          3D

 81 90  0  0  1  0  0  0  0  0999 V2000
    6.6433   -5.1109    3.3290 C   0  0  0  0  0  0  0  0  0  0  0  0
    5.5342   -5.9985    2.8786 C   0  0  0  0  0  0  0  0  0  0  0  0
    5.5440   -7.2130    2.3674 C   0  0  0  0  0  0  0  0  0  0  0  0
    6.6109   -8.1458    1.8436 C   0  0  0  0  0  0  0  0  0  0  0  0
    5.7642   -9.3865    1.6109 C   0  0  0  0  0  0  0  0  0  0  0  0
    6.2630  -10.4518    1.2585 O   0  0  0  0  0  0  0  0  0  0  0  0
    4.2580   -9.1462    1.8379 C   0  0  1  0  0  0  0  0  0  0  0  0
    3.6941  -10.1248    2.7485 O   0  0  0  0  0  0  0  0  0  0  0  0
    4.0281  -10.4024    4.1384 C   0  0  1  0  0  0  0  0  0  0  0  0
    5.5283  -10.4971    4.5790 C   0  0  0  0  0  0  0  0  0  0  0  0
    6.1968   -9.1759    5.0692 C   0  0  0  0  0  0  0  0  0  0  0  0
    5.2519   -8.0130    5.4537 C   0  0  0  0  0  0  0  0  0  0  0  0
    3.9113   -8.1741    4.8887 N   0  0  0  0  0  0  0  0  0  0  0  0
    3.2937   -9.4583    5.1116 C   0  0  2  0  0  0  0  0  0  0  0  0
    3.5731   -9.8986    6.5141 C   0  0  0  0  0  0  0  0  0  0  0  0
    3.8084  -10.2288    7.6039 N   0  0  0  0  0  0  0  0  0  0  0  0
    1.7661   -9.2908    4.9488 C   0  0  2  0  0  0  0  0  0  0  0  0
    0.9279  -10.2584    5.8176 C   0  0  0  0  0  0  0  0  0  0  0  0
    1.1522   -9.2315    3.5482 C   0  0  0  0  0  0  0  0  0  0  0  0
    0.8145  -10.2980    2.7332 N   0  0  0  0  0  0  0  0  0  0  0  0
    0.5676   -8.0839    3.8405 C   0  0  0  0  0  0  0  0  0  0  0  0
   -0.7069   -7.5815    3.4655 C   0  0  0  0  0  0  0  0  0  0  0  0
   -1.7354   -7.1753    3.0833 N   0  0  0  0  0  0  0  0  0  0  0  0
    1.5516   -7.7161    4.9595 C   0  0  1  0  0  0  0  0  0  0  0  0
    0.8442   -7.0329    6.1573 C   0  0  0  0  0  0  0  0  0  0  0  0
    0.8492   -7.7481    7.3030 N   0  0  0  0  0  0  0  0  0  0  0  0
    0.3561   -7.2201    8.4285 C   0  0  0  0  0  0  0  0  0  0  0  0
   -0.1005   -5.8937    8.5186 C   0  0  0  0  0  0  0  0  0  0  0  0
   -0.0565   -5.0953    7.3593 C   0  0  0  0  0  0  0  0  0  0  0  0
   -0.3676   -3.7837    7.4522 N   0  0  0  0  0  0  0  0  0  0  0  0
   -0.2450   -3.0070    6.3551 C   0  0  0  0  0  0  0  0  0  0  0  0
   -0.5615   -1.6862    6.4395 N   0  0  0  0  0  0  0  0  0  0  0  0
   -0.4117   -0.8954    5.3585 C   0  0  0  0  0  0  0  0  0  0  0  0
    0.1154   -1.3582    4.1418 C   0  0  0  0  0  0  0  0  0  0  0  0
    0.4493   -2.7218    4.0521 C   0  0  0  0  0  0  0  0  0  0  0  0
    0.2384   -3.5862    5.1335 C   0  0  0  0  0  0  0  0  0  0  0  0
    0.5132   -4.8861    5.0357 N   0  0  0  0  0  0  0  0  0  0  0  0
    0.4012   -5.6756    6.1313 C   0  0  0  0  0  0  0  0  0  0  0  0
    2.9966   -7.0772    4.5323 C   0  0  1  0  0  0  0  0  0  0  0  0
    3.3565   -5.7944    5.3708 C   0  0  0  0  0  0  0  0  0  0  0  0
    3.2107   -6.7141    2.9418 C   0  0  1  0  0  0  0  0  0  0  0  0
    1.9428   -6.3389    2.2807 C   0  0  0  0  0  0  0  0  0  0  0  0
    0.9701   -6.0374    1.7223 N   0  0  0  0  0  0  0  0  0  0  0  0
    4.1347   -5.4739    2.6303 C   0  0  2  0  0  0  0  0  0  0  0  0
    4.0519   -5.3122    1.0657 C   0  0  1  0  0  0  0  0  0  0  0  0
    5.1582   -4.4911    0.3722 C   0  0  0  0  0  0  0  0  0  0  0  0
    4.0217   -6.8051    0.6316 C   0  0  0  0  0  0  0  0  0  0  0  0
    4.1586   -7.5838    1.9852 C   0  0  1  0  0  0  0  0  0  0  0  0
    6.5417   -4.1748    2.7915 H   0  0  0  0  0  0  0  0  0  0  0  0
    7.6221   -5.5396    3.1224 H   0  0  0  0  0  0  0  0  0  0  0  0
    6.5615   -4.9330    4.3996 H   0  0  0  0  0  0  0  0  0  0  0  0
    6.9652   -7.7905    0.8786 H   0  0  0  0  0  0  0  0  0  0  0  0
    7.4798   -8.2893    2.4723 H   0  0  0  0  0  0  0  0  0  0  0  0
    3.7597   -9.4027    0.8937 H   0  0  0  0  0  0  0  0  0  0  0  0
    3.6134  -11.4016    4.2870 H   0  0  0  0  0  0  0  0  0  0  0  0
    5.5712  -11.1876    5.4228 H   0  0  0  0  0  0  0  0  0  0  0  0
    6.1393  -10.9785    3.8242 H   0  0  0  0  0  0  0  0  0  0  0  0
    6.8595   -9.3828    5.9145 H   0  0  0  0  0  0  0  0  0  0  0  0
    6.8736   -8.8040    4.3129 H   0  0  0  0  0  0  0  0  0  0  0  0
    5.1730   -7.9550    6.5356 H   0  0  0  0  0  0  0  0  0  0  0  0
    5.7110   -7.0797    5.1590 H   0  0  0  0  0  0  0  0  0  0  0  0
    1.1355  -10.1816    6.8863 H   0  0  0  0  0  0  0  0  0  0  0  0
    1.1031  -11.3106    5.5635 H   0  0  0  0  0  0  0  0  0  0  0  0
   -0.1442  -10.0729    5.7246 H   0  0  0  0  0  0  0  0  0  0  0  0
    1.4243  -11.1080    2.7249 H   0  0  0  0  0  0  0  0  0  0  0  0
    0.3971  -10.1255    1.8266 H   0  0  0  0  0  0  0  0  0  0  0  0
    0.2958   -7.8784    9.2814 H   0  0  0  0  0  0  0  0  0  0  0  0
   -0.4483   -5.4934    9.4643 H   0  0  0  0  0  0  0  0  0  0  0  0
   -0.7394    0.1238    5.4534 H   0  0  0  0  0  0  0  0  0  0  0  0
    0.2146   -0.7132    3.2884 H   0  0  0  0  0  0  0  0  0  0  0  0
    0.8582   -3.1135    3.1354 H   0  0  0  0  0  0  0  0  0  0  0  0
    2.7711   -4.9551    5.1067 H   0  0  0  0  0  0  0  0  0  0  0  0
    4.4243   -5.5297    5.2614 H   0  0  0  0  0  0  0  0  0  0  0  0
    3.2638   -6.0196    6.4452 H   0  0  0  0  0  0  0  0  0  0  0  0
    3.8992   -4.5457    3.1547 H   0  0  0  0  0  0  0  0  0  0  0  0
    3.1184   -4.8336    0.7790 H   0  0  0  0  0  0  0  0  0  0  0  0
    6.1426   -4.9477    0.4614 H   0  0  0  0  0  0  0  0  0  0  0  0
    5.2102   -3.4847    0.7820 H   0  0  0  0  0  0  0  0  0  0  0  0
    4.9532   -4.3991   -0.6946 H   0  0  0  0  0  0  0  0  0  0  0  0
    3.0697   -7.0012    0.1653 H   0  0  0  0  0  0  0  0  0  0  0  0
    4.7977   -7.0566   -0.0985 H   0  0  0  0  0  0  0  0  0  0  0  0
  1  2  1  0
  1 49  1  0
  1 50  1  0
  1 51  1  0
  2 44  1  0
  2  3  2  0
  3 48  1  0
  3  4  1  0
  4  5  1  0
  4 52  1  0
  4 53  1  0
  5  6  2  0
  5  7  1  0
  7 48  1  0
  7  8  1  0
  7 54  1  6
  8  9  1  0
  9 14  1  0
  9 10  1  0
  9 55  1  1
 10 11  1  0
 10 56  1  0
 10 57  1  0
 11 12  1  0
 11 58  1  0
 11 59  1  0
 12 13  1  0
 12 60  1  0
 12 61  1  0
 13 39  1  0
 13 14  1  0
 14 15  1  1
 14 17  1  0
 15 16  3  0
 17 24  1  0
 17 18  1  1
 17 19  1  0
 18 62  1  0
 18 63  1  0
 18 64  1  0
 19 21  2  0
 19 20  1  0
 20 65  1  0
 20 66  1  0
 21 22  1  0
 21 24  1  0
 22 23  3  0
 24 25  1  1
 24 39  1  0
 25 38  1  0
 25 26  2  0
 26 27  1  0
 27 28  2  0
 27 67  1  0
 28 29  1  0
 28 68  1  0
 29 38  2  0
 29 30  1  0
 30 31  2  0
 31 36  1  0
 31 32  1  0
 32 33  2  0
 33 34  1  0
 33 69  1  0
 34 35  2  0
 34 70  1  0
 35 36  1  0
 35 71  1  0
 36 37  2  0
 37 38  1  0
 39 40  1  1
 39 41  1  0
 40 72  1  0
 40 73  1  0
 40 74  1  0
 41 48  1  0
 41 42  1  6
 41 44  1  0
 42 43  3  0
 44 45  1  0
 44 75  1  1
 45 46  1  0
 45 47  1  0
 45 76  1  1
 46 77  1  0
 46 78  1  0
 46 79  1  0
 48 47  1  6
 47 80  1  0
 47 81  1  0
M  END
>  <i_m_ct_stereo_status>  (96) 
1

>  <s_m_source_file>  (96) 
/var/tmp/pbs.5076255.sched01/tmp5vb4dkz1/0x5hafel7.sdf

>  <i_m_source_file_index>  (96) 
36

>  <i_lp_mmshare_version>  (96) 
48012

>  <i_f3d_flags>  (96) 
0

>  <s_epik_input>  (96) 
W0NAXTEyM0M0PUMoW0NIM10pW0NAQEhdKFtDQEBIXShbQ0gzXSlbQ0gyXTMpW0NAXTIoQyNOKVtDQF01KFtDSDNdKU42W0NAXShDI04pKFtDQEhdKFtDSDJdW0NIMl1bQ0gyXTYpT1tDQEBIXTFDKD1PKVtDSDJdNClbQ0BAXTcoW0NIM10pW0NAQF01KFtDQEhdKEMjTilDXDc9Ti9bSF0pYyhuW2NIXVtjSF04KWMoYzg5KW5jMWMobjkpbltjSF1bY0hdW2NIXTE=

>  <s_epik_cmdline>  (96) 
J2VwaWtfcHl0aG9uJywgJy1waHQnLCAnMi4wJywgJy1waCcsICc3LjAnLCAnLXRuJywgJzgnLCAnLW1hJywgJzIwMCcsICctaW1hZScsICc8aW5maWxlLm1hZT4nLCAnLW9tYWUnLCAnPG91dGZpbGUubWFlPic=

>  <r_lp_tautomer_probability>  (96) 
1

>  <r_epik_Ionization_Penalty>  (96) 
6.20374e-06

>  <r_epik_Ionization_Penalty_Charging>  (96) 
0

>  <r_epik_Ionization_Penalty_Neutral>  (96) 
6.20374e-06

>  <r_epik_State_Penalty>  (96) 
-0

>  <r_epik_Charging_Adjusted_Penalty>  (96) 
0

>  <i_epik_Tot_Q>  (96) 
0

>  <i_epik_Tot_abs_Q>  (96) 
0

>  <s_lp_Force_Field>  (96) 
OPLS3e

>  <r_lp_Energy>  (96) 
175.531

>  <b_lp_Chiralities_Consistent>  (96) 
1

>  <s_lp_Variant>  (96) 
21:0-2

>  <s_i_glide_gridfile>  (96) 
pfpi4k_grid

>  <i_i_glide_lignum>  (96) 
36

>  <i_i_glide_rotatable_bonds>  (96) 
4

>  <r_i_docking_score>  (96) 
-3.70151

>  <r_i_glide_ligand_efficiency>  (96) 
-0.0771148

>  <r_i_glide_ligand_efficiency_sa>  (96) 
-0.280254

>  <r_i_glide_ligand_efficiency_ln>  (96) 
-0.759876

>  <r_i_glide_gscore>  (96) 
-3.70151

>  <r_i_glide_lipo>  (96) 
-0.410677

>  <r_i_glide_hbond>  (96) 
-0.457444

>  <r_i_glide_metal>  (96) 
-0

>  <r_i_glide_rewards>  (96) 
0

>  <r_i_glide_evdw>  (96) 
-28.9941

>  <r_i_glide_ecoul>  (96) 
-8.56994

>  <r_i_glide_erotb>  (96) 
0.0523831

>  <r_i_glide_esite>  (96) 
-0.150576

>  <r_i_glide_emodel>  (96) 
-39.4624

>  <r_i_glide_energy>  (96) 
-37.5641

>  <r_i_glide_einternal>  (96) 
7.84596

>  <r_i_glide_intrahb_reward>  (96) 
-0

>  <i_i_glide_confnum>  (96) 
1

>  <i_i_glide_posenum>  (96) 
36

>  <r_i_glide_eff_state_penalty>  (96) 
0

>  <ligand_id>  (96) 
21

>  <original_smiles>  (96) 
CC1=C2CC(=O)C3OC4CCCN5C4(C#N)C4(C)C(=N)C(C#N)C4(c4nccc6nc7ncccc7nc46)C5(C)C4(C#N)C1C(C)CC234

>  <smiles>  (96) 
[H]c1nc2nc3c([H])c([H])nc(C45C(C#N)=C(N([H])[H])C4(C([H])([H])[H])C4(C#N)N6C([H])([H])C([H])([H])C([H])([H])C4([H])OC4([H])C(=O)C([H])([H])C7=C(C([H])([H])[H])C8([H])C([H])(C([H])([H])[H])C([H])([H])C74C8(C#N)C65C([H])([H])[H])c3nc2c([H])c1[H]

$$$$
21:1:1
     RDKit          3D

 81 90  0  0  1  0  0  0  0  0999 V2000
    3.7444   -7.7902    1.0553 C   0  0  0  0  0  0  0  0  0  0  0  0
    2.7734   -7.7838    2.2170 C   0  0  0  0  0  0  0  0  0  0  0  0
    2.0889   -8.7649    2.7901 C   0  0  0  0  0  0  0  0  0  0  0  0
    1.8241  -10.2005    2.4655 C   0  0  0  0  0  0  0  0  0  0  0  0
    1.1326  -10.6239    3.7547 C   0  0  0  0  0  0  0  0  0  0  0  0
    0.7768  -11.7727    3.9557 O   0  0  0  0  0  0  0  0  0  0  0  0
    0.8688   -9.4683    4.7451 C   0  0  1  0  0  0  0  0  0  0  0  0
    1.3788   -9.7806    6.0677 O   0  0  0  0  0  0  0  0  0  0  0  0
    2.7414  -10.0668    6.4913 C   0  0  1  0  0  0  0  0  0  0  0  0
    3.6284  -11.0540    5.6664 C   0  0  0  0  0  0  0  0  0  0  0  0
    4.5277  -10.4236    4.5523 C   0  0  0  0  0  0  0  0  0  0  0  0
    4.7395   -8.8923    4.6083 C   0  0  0  0  0  0  0  0  0  0  0  0
    3.7776   -8.2091    5.4661 N   0  0  0  0  0  0  0  0  0  0  0  0
    3.5523   -8.7994    6.7702 C   0  0  2  0  0  0  0  0  0  0  0  0
    4.8649   -9.1769    7.3574 C   0  0  0  0  0  0  0  0  0  0  0  0
    5.8866   -9.4752    7.8163 N   0  0  0  0  0  0  0  0  0  0  0  0
    2.9201   -7.7090    7.6559 C   0  0  2  0  0  0  0  0  0  0  0  0
    3.2951   -7.8294    9.1596 C   0  0  0  0  0  0  0  0  0  0  0  0
    1.4262   -7.4152    7.5657 C   0  0  0  0  0  0  0  0  0  0  0  0
    0.3996   -8.0753    8.2398 N   0  0  0  0  0  0  0  0  0  0  0  0
    1.6571   -6.1427    7.3135 C   0  0  0  0  0  0  0  0  0  0  0  0
    0.9593   -4.9696    7.7678 C   0  0  0  0  0  0  0  0  0  0  0  0
    0.3371   -4.0848    8.1623 N   0  0  0  0  0  0  0  0  0  0  0  0
    3.0952   -6.3787    6.8177 C   0  0  1  0  0  0  0  0  0  0  0  0
    4.1032   -5.3073    7.3180 C   0  0  0  0  0  0  0  0  0  0  0  0
    5.2072   -5.8240    7.9087 N   0  0  0  0  0  0  0  0  0  0  0  0
    6.1931   -4.9967    8.3063 C   0  0  0  0  0  0  0  0  0  0  0  0
    6.1659   -3.6191    8.0773 C   0  0  0  0  0  0  0  0  0  0  0  0
    5.0669   -3.0685    7.3997 C   0  0  0  0  0  0  0  0  0  0  0  0
    5.0555   -1.7487    7.1020 N   0  0  0  0  0  0  0  0  0  0  0  0
    4.0208   -1.2337    6.4140 C   0  0  0  0  0  0  0  0  0  0  0  0
    3.9786    0.0864    6.1239 N   0  0  0  0  0  0  0  0  0  0  0  0
    2.9378    0.5996    5.4354 C   0  0  0  0  0  0  0  0  0  0  0  0
    1.8705   -0.1844    4.9806 C   0  0  0  0  0  0  0  0  0  0  0  0
    1.8955   -1.5548    5.2656 C   0  0  0  0  0  0  0  0  0  0  0  0
    2.9656   -2.1004    6.0002 C   0  0  0  0  0  0  0  0  0  0  0  0
    2.9712   -3.4185    6.3016 N   0  0  0  0  0  0  0  0  0  0  0  0
    4.0012   -3.9220    7.0075 C   0  0  0  0  0  0  0  0  0  0  0  0
    3.2927   -6.8403    5.2796 C   0  0  1  0  0  0  0  0  0  0  0  0
    4.3916   -5.9831    4.5880 C   0  0  0  0  0  0  0  0  0  0  0  0
    1.9667   -6.8419    4.3260 C   0  0  1  0  0  0  0  0  0  0  0  0
    0.9977   -5.7910    4.7161 C   0  0  0  0  0  0  0  0  0  0  0  0
    0.2124   -4.9759    4.9736 N   0  0  0  0  0  0  0  0  0  0  0  0
    2.1962   -6.5187    2.7917 C   0  0  2  0  0  0  0  0  0  0  0  0
    0.7225   -6.4838    2.2245 C   0  0  1  0  0  0  0  0  0  0  0  0
    0.5771   -6.6187    0.6940 C   0  0  0  0  0  0  0  0  0  0  0  0
    0.0509   -7.6508    3.0281 C   0  0  0  0  0  0  0  0  0  0  0  0
    1.2325   -8.2038    3.8909 C   0  0  1  0  0  0  0  0  0  0  0  0
    3.4500   -7.0341    0.3319 H   0  0  0  0  0  0  0  0  0  0  0  0
    3.8106   -8.7637    0.5740 H   0  0  0  0  0  0  0  0  0  0  0  0
    4.7348   -7.5061    1.4033 H   0  0  0  0  0  0  0  0  0  0  0  0
    1.0858  -10.2610    1.6631 H   0  0  0  0  0  0  0  0  0  0  0  0
    2.6891  -10.8099    2.1843 H   0  0  0  0  0  0  0  0  0  0  0  0
   -0.2178   -9.4507    4.8857 H   0  0  0  0  0  0  0  0  0  0  0  0
    2.6179  -10.5589    7.4578 H   0  0  0  0  0  0  0  0  0  0  0  0
    4.3065  -11.5402    6.3694 H   0  0  0  0  0  0  0  0  0  0  0  0
    3.0531  -11.8908    5.2794 H   0  0  0  0  0  0  0  0  0  0  0  0
    5.4985  -10.9298    4.5305 H   0  0  0  0  0  0  0  0  0  0  0  0
    4.1124  -10.6567    3.5839 H   0  0  0  0  0  0  0  0  0  0  0  0
    5.7256   -8.7215    5.0294 H   0  0  0  0  0  0  0  0  0  0  0  0
    4.7918   -8.4754    3.6014 H   0  0  0  0  0  0  0  0  0  0  0  0
    4.3648   -7.7647    9.3372 H   0  0  0  0  0  0  0  0  0  0  0  0
    2.9647   -8.7705    9.6041 H   0  0  0  0  0  0  0  0  0  0  0  0
    2.8689   -7.0138    9.7441 H   0  0  0  0  0  0  0  0  0  0  0  0
    0.4640   -9.0874    8.2020 H   0  0  0  0  0  0  0  0  0  0  0  0
   -0.5405   -7.8034    8.0058 H   0  0  0  0  0  0  0  0  0  0  0  0
    7.0307   -5.4477    8.8210 H   0  0  0  0  0  0  0  0  0  0  0  0
    6.9871   -2.9933    8.3976 H   0  0  0  0  0  0  0  0  0  0  0  0
    2.9733    1.6607    5.2499 H   0  0  0  0  0  0  0  0  0  0  0  0
    1.0497    0.2598    4.4240 H   0  0  0  0  0  0  0  0  0  0  0  0
    1.0908   -2.1962    4.9325 H   0  0  0  0  0  0  0  0  0  0  0  0
    4.0701   -4.9523    4.4528 H   0  0  0  0  0  0  0  0  0  0  0  0
    4.6482   -6.3506    3.5990 H   0  0  0  0  0  0  0  0  0  0  0  0
    5.3248   -5.9935    5.1498 H   0  0  0  0  0  0  0  0  0  0  0  0
    2.7623   -5.6118    2.5664 H   0  0  0  0  0  0  0  0  0  0  0  0
    0.2388   -5.5459    2.4799 H   0  0  0  0  0  0  0  0  0  0  0  0
    0.9143   -7.5915    0.3486 H   0  0  0  0  0  0  0  0  0  0  0  0
    1.1567   -5.8655    0.1618 H   0  0  0  0  0  0  0  0  0  0  0  0
   -0.4619   -6.5382    0.3791 H   0  0  0  0  0  0  0  0  0  0  0  0
   -0.7710   -7.2939    3.6502 H   0  0  0  0  0  0  0  0  0  0  0  0
   -0.3799   -8.4080    2.3664 H   0  0  0  0  0  0  0  0  0  0  0  0
  1  2  1  0
  1 49  1  0
  1 50  1  0
  1 51  1  0
  2 44  1  0
  2  3  2  0
  3 48  1  0
  3  4  1  0
  4  5  1  0
  4 52  1  0
  4 53  1  0
  5  6  2  0
  5  7  1  0
  7 48  1  0
  7  8  1  0
  7 54  1  1
  8  9  1  0
  9 14  1  0
  9 10  1  0
  9 55  1  1
 10 11  1  0
 10 56  1  0
 10 57  1  0
 11 12  1  0
 11 58  1  0
 11 59  1  0
 12 13  1  0
 12 60  1  0
 12 61  1  0
 13 39  1  0
 13 14  1  0
 14 15  1  1
 14 17  1  0
 15 16  3  0
 17 24  1  0
 17 18  1  1
 17 19  1  0
 18 62  1  0
 18 63  1  0
 18 64  1  0
 19 21  2  0
 19 20  1  0
 20 65  1  0
 20 66  1  0
 21 22  1  0
 21 24  1  0
 22 23  3  0
 24 25  1  1
 24 39  1  0
 25 38  1  0
 25 26  2  0
 26 27  1  0
 27 28  2  0
 27 67  1  0
 28 29  1  0
 28 68  1  0
 29 38  2  0
 29 30  1  0
 30 31  2  0
 31 36  1  0
 31 32  1  0
 32 33  2  0
 33 34  1  0
 33 69  1  0
 34 35  2  0
 34 70  1  0
 35 36  1  0
 35 71  1  0
 36 37  2  0
 37 38  1  0
 39 40  1  6
 39 41  1  0
 40 72  1  0
 40 73  1  0
 40 74  1  0
 41 48  1  0
 41 42  1  1
 41 44  1  0
 42 43  3  0
 44 45  1  0
 44 75  1  1
 45 46  1  0
 45 47  1  0
 45 76  1  1
 46 77  1  0
 46 78  1  0
 46 79  1  0
 48 47  1  6
 47 80  1  0
 47 81  1  0
M  END
>  <i_m_ct_stereo_status>  (97) 
1

>  <s_m_source_file>  (97) 
/var/tmp/pbs.5076255.sched01/tmp5vb4dkz1/0x5hafel7.sdf

>  <i_m_source_file_index>  (97) 
36

>  <i_lp_mmshare_version>  (97) 
48012

>  <i_f3d_flags>  (97) 
0

>  <s_epik_input>  (97) 
W0NAXTEyM0M0PUMoW0NIM10pW0NAQEhdKFtDQEBIXShbQ0gzXSlbQ0gyXTMpW0NAXTIoQyNOKVtDQF01KFtDSDNdKU42W0NAXShDI04pKFtDQEhdKFtDSDJdW0NIMl1bQ0gyXTYpT1tDQEBIXTFDKD1PKVtDSDJdNClbQ0BAXTcoW0NIM10pW0NAQF01KFtDQEhdKEMjTilDXDc9Ti9bSF0pYyhuW2NIXVtjSF04KWMoYzg5KW5jMWMobjkpbltjSF1bY0hdW2NIXTE=

>  <s_epik_cmdline>  (97) 
J2VwaWtfcHl0aG9uJywgJy1waHQnLCAnMi4wJywgJy1waCcsICc3LjAnLCAnLXRuJywgJzgnLCAnLW1hJywgJzIwMCcsICctaW1hZScsICc8aW5maWxlLm1hZT4nLCAnLW9tYWUnLCAnPG91dGZpbGUubWFlPic=

>  <r_lp_tautomer_probability>  (97) 
1

>  <r_epik_Ionization_Penalty>  (97) 
6.20374e-06

>  <r_epik_Ionization_Penalty_Charging>  (97) 
0

>  <r_epik_Ionization_Penalty_Neutral>  (97) 
6.20374e-06

>  <r_epik_State_Penalty>  (97) 
-0

>  <r_epik_Charging_Adjusted_Penalty>  (97) 
0

>  <i_epik_Tot_Q>  (97) 
0

>  <i_epik_Tot_abs_Q>  (97) 
0

>  <s_lp_Force_Field>  (97) 
OPLS3e

>  <r_lp_Energy>  (97) 
175.531

>  <b_lp_Chiralities_Consistent>  (97) 
1

>  <s_lp_Variant>  (97) 
21:0-2

>  <s_i_glide_gridfile>  (97) 
pfpi4k_grid

>  <i_i_glide_lignum>  (97) 
36

>  <i_i_glide_rotatable_bonds>  (97) 
4

>  <r_i_docking_score>  (97) 
-1.87812

>  <r_i_glide_ligand_efficiency>  (97) 
-0.0391275

>  <r_i_glide_ligand_efficiency_sa>  (97) 
-0.142199

>  <r_i_glide_ligand_efficiency_ln>  (97) 
-0.385556

>  <r_i_glide_gscore>  (97) 
-1.87812

>  <r_i_glide_lipo>  (97) 
-0.139594

>  <r_i_glide_hbond>  (97) 
0

>  <r_i_glide_metal>  (97) 
-0

>  <r_i_glide_rewards>  (97) 
-0.132518

>  <r_i_glide_evdw>  (97) 
-27.4039

>  <r_i_glide_ecoul>  (97) 
-1.62193

>  <r_i_glide_erotb>  (97) 
0.0523831

>  <r_i_glide_esite>  (97) 
-0.0449066

>  <r_i_glide_emodel>  (97) 
-30.0762

>  <r_i_glide_energy>  (97) 
-29.0259

>  <r_i_glide_einternal>  (97) 
3.24702

>  <r_i_glide_intrahb_reward>  (97) 
-0

>  <i_i_glide_confnum>  (97) 
1

>  <i_i_glide_posenum>  (97) 
13

>  <r_i_glide_eff_state_penalty>  (97) 
0

>  <ligand_id>  (97) 
21

>  <original_smiles>  (97) 
CC1=C2CC(=O)C3OC4CCCN5C4(C#N)C4(C)C(=N)C(C#N)C4(c4nccc6nc7ncccc7nc46)C5(C)C4(C#N)C1C(C)CC234

>  <smiles>  (97) 
[H]c1nc2nc3c([H])c([H])nc(C45C(C#N)=C(N([H])[H])C4(C([H])([H])[H])C4(C#N)N6C([H])([H])C([H])([H])C([H])([H])C4([H])OC4([H])C(=O)C([H])([H])C7=C(C([H])([H])[H])C8([H])C([H])(C([H])([H])[H])C([H])([H])C74C8(C#N)C65C([H])([H])[H])c3nc2c([H])c1[H]

$$$$
21:1:2
     RDKit          3D

 81 90  0  0  1  0  0  0  0  0999 V2000
    3.4629   -6.2476    0.4771 C   0  0  0  0  0  0  0  0  0  0  0  0
    2.9565   -6.5999    1.8616 C   0  0  0  0  0  0  0  0  0  0  0  0
    3.1346   -7.6841    2.6010 C   0  0  0  0  0  0  0  0  0  0  0  0
    3.7023   -9.0597    2.3759 C   0  0  0  0  0  0  0  0  0  0  0  0
    3.6839   -9.5789    3.8084 C   0  0  0  0  0  0  0  0  0  0  0  0
    4.1661  -10.6584    4.1252 O   0  0  0  0  0  0  0  0  0  0  0  0
    2.9911   -8.6264    4.8069 C   0  0  1  0  0  0  0  0  0  0  0  0
    3.8423   -8.3812    5.9572 O   0  0  0  0  0  0  0  0  0  0  0  0
    5.1481   -7.7455    6.0236 C   0  0  1  0  0  0  0  0  0  0  0  0
    6.2692   -8.1593    5.0134 C   0  0  0  0  0  0  0  0  0  0  0  0
    6.3592   -7.3259    3.6926 C   0  0  0  0  0  0  0  0  0  0  0  0
    5.6240   -5.9619    3.6701 C   0  0  0  0  0  0  0  0  0  0  0  0
    4.6283   -5.8343    4.7352 N   0  0  0  0  0  0  0  0  0  0  0  0
    5.0715   -6.2138    6.0607 C   0  0  2  0  0  0  0  0  0  0  0  0
    6.4365   -5.6546    6.2902 C   0  0  0  0  0  0  0  0  0  0  0  0
    7.4999   -5.2325    6.4724 N   0  0  0  0  0  0  0  0  0  0  0  0
    4.1051   -5.5572    7.0698 C   0  0  2  0  0  0  0  0  0  0  0  0
    4.7730   -5.1690    8.4181 C   0  0  0  0  0  0  0  0  0  0  0  0
    2.7504   -6.2005    7.3609 C   0  0  0  0  0  0  0  0  0  0  0  0
    2.4804   -7.2158    8.2709 N   0  0  0  0  0  0  0  0  0  0  0  0
    2.1230   -5.0727    7.0719 C   0  0  0  0  0  0  0  0  0  0  0  0
    0.9835   -4.4680    7.6764 C   0  0  0  0  0  0  0  0  0  0  0  0
    0.0337   -4.0264    8.1790 N   0  0  0  0  0  0  0  0  0  0  0  0
    3.2836   -4.5286    6.2021 C   0  0  1  0  0  0  0  0  0  0  0  0
    3.5376   -3.0031    6.3874 C   0  0  0  0  0  0  0  0  0  0  0  0
    4.8382   -2.6894    6.6169 N   0  0  0  0  0  0  0  0  0  0  0  0
    5.1839   -1.3921    6.7120 C   0  0  0  0  0  0  0  0  0  0  0  0
    4.2720   -0.3405    6.5581 C   0  0  0  0  0  0  0  0  0  0  0  0
    2.9289   -0.6424    6.2724 C   0  0  0  0  0  0  0  0  0  0  0  0
    2.0420    0.3558    6.0662 N   0  0  0  0  0  0  0  0  0  0  0  0
    0.7681    0.0598    5.7456 C   0  0  0  0  0  0  0  0  0  0  0  0
   -0.1392    1.0427    5.5621 N   0  0  0  0  0  0  0  0  0  0  0  0
   -1.4076    0.7393    5.2394 C   0  0  0  0  0  0  0  0  0  0  0  0
   -1.8696   -0.5813    5.1069 C   0  0  0  0  0  0  0  0  0  0  0  0
   -0.9464   -1.6186    5.2937 C   0  0  0  0  0  0  0  0  0  0  0  0
    0.3874   -1.3145    5.6141 C   0  0  0  0  0  0  0  0  0  0  0  0
    1.2784   -2.3128    5.8052 N   0  0  0  0  0  0  0  0  0  0  0  0
    2.5463   -2.0085    6.1624 C   0  0  0  0  0  0  0  0  0  0  0  0
    3.3959   -5.0430    4.6729 C   0  0  1  0  0  0  0  0  0  0  0  0
    3.5920   -3.8392    3.7053 C   0  0  0  0  0  0  0  0  0  0  0  0
    2.1732   -5.9720    4.0970 C   0  0  1  0  0  0  0  0  0  0  0  0
    0.8783   -5.6390    4.7358 C   0  0  0  0  0  0  0  0  0  0  0  0
   -0.1525   -5.3945    5.2024 N   0  0  0  0  0  0  0  0  0  0  0  0
    1.8521   -5.8356    2.5512 C   0  0  2  0  0  0  0  0  0  0  0  0
    0.5765   -6.7538    2.3765 C   0  0  1  0  0  0  0  0  0  0  0  0
    0.2491   -7.1944    0.9345 C   0  0  0  0  0  0  0  0  0  0  0  0
    0.9150   -7.9365    3.3399 C   0  0  0  0  0  0  0  0  0  0  0  0
    2.3419   -7.5498    3.8683 C   0  0  1  0  0  0  0  0  0  0  0  0
    2.6359   -5.9497   -0.1645 H   0  0  0  0  0  0  0  0  0  0  0  0
    4.0106   -7.0673    0.0250 H   0  0  0  0  0  0  0  0  0  0  0  0
    4.1335   -5.3945    0.5537 H   0  0  0  0  0  0  0  0  0  0  0  0
    3.0132   -9.6717    1.7871 H   0  0  0  0  0  0  0  0  0  0  0  0
    4.6733   -9.0986    1.8930 H   0  0  0  0  0  0  0  0  0  0  0  0
    2.1711   -9.2019    5.2387 H   0  0  0  0  0  0  0  0  0  0  0  0
    5.5158   -8.0689    7.0023 H   0  0  0  0  0  0  0  0  0  0  0  0
    7.2289   -8.0340    5.5185 H   0  0  0  0  0  0  0  0  0  0  0  0
    6.2394   -9.2231    4.7939 H   0  0  0  0  0  0  0  0  0  0  0  0
    7.4069   -7.1791    3.4248 H   0  0  0  0  0  0  0  0  0  0  0  0
    5.9753   -7.9148    2.8722 H   0  0  0  0  0  0  0  0  0  0  0  0
    6.3705   -5.1800    3.8108 H   0  0  0  0  0  0  0  0  0  0  0  0
    5.2070   -5.7766    2.6841 H   0  0  0  0  0  0  0  0  0  0  0  0
    5.5989   -4.4679    8.3042 H   0  0  0  0  0  0  0  0  0  0  0  0
    5.1696   -6.0357    8.9434 H   0  0  0  0  0  0  0  0  0  0  0  0
    4.0721   -4.6688    9.0867 H   0  0  0  0  0  0  0  0  0  0  0  0
    3.1343   -7.9927    8.2887 H   0  0  0  0  0  0  0  0  0  0  0  0
    1.5333   -7.5512    8.3249 H   0  0  0  0  0  0  0  0  0  0  0  0
    6.2214   -1.1816    6.9133 H   0  0  0  0  0  0  0  0  0  0  0  0
    4.5954    0.6876    6.6324 H   0  0  0  0  0  0  0  0  0  0  0  0
   -2.0796    1.5686    5.0909 H   0  0  0  0  0  0  0  0  0  0  0  0
   -2.9028   -0.7884    4.8551 H   0  0  0  0  0  0  0  0  0  0  0  0
   -1.2489   -2.6549    5.2107 H   0  0  0  0  0  0  0  0  0  0  0  0
    2.7039   -3.2114    3.6629 H   0  0  0  0  0  0  0  0  0  0  0  0
    3.8091   -4.1457    2.6874 H   0  0  0  0  0  0  0  0  0  0  0  0
    4.4420   -3.2210    3.9911 H   0  0  0  0  0  0  0  0  0  0  0  0
    1.7059   -4.8221    2.1840 H   0  0  0  0  0  0  0  0  0  0  0  0
   -0.3153   -6.2519    2.7363 H   0  0  0  0  0  0  0  0  0  0  0  0
    1.0156   -7.8369    0.5080 H   0  0  0  0  0  0  0  0  0  0  0  0
    0.1217   -6.3442    0.2686 H   0  0  0  0  0  0  0  0  0  0  0  0
   -0.6727   -7.7726    0.9093 H   0  0  0  0  0  0  0  0  0  0  0  0
    0.1903   -8.0232    4.1563 H   0  0  0  0  0  0  0  0  0  0  0  0
    0.9046   -8.9039    2.8324 H   0  0  0  0  0  0  0  0  0  0  0  0
  1  2  1  0
  1 49  1  0
  1 50  1  0
  1 51  1  0
  2 44  1  0
  2  3  2  0
  3 48  1  0
  3  4  1  0
  4  5  1  0
  4 52  1  0
  4 53  1  0
  5  6  2  0
  5  7  1  0
  7 48  1  0
  7  8  1  0
  7 54  1  1
  8  9  1  0
  9 14  1  0
  9 10  1  0
  9 55  1  1
 10 11  1  0
 10 56  1  0
 10 57  1  0
 11 12  1  0
 11 58  1  0
 11 59  1  0
 12 13  1  0
 12 60  1  0
 12 61  1  0
 13 39  1  0
 13 14  1  0
 14 15  1  1
 14 17  1  0
 15 16  3  0
 17 24  1  0
 17 18  1  1
 17 19  1  0
 18 62  1  0
 18 63  1  0
 18 64  1  0
 19 21  2  0
 19 20  1  0
 20 65  1  0
 20 66  1  0
 21 22  1  0
 21 24  1  0
 22 23  3  0
 24 25  1  6
 24 39  1  0
 25 38  1  0
 25 26  2  0
 26 27  1  0
 27 28  2  0
 27 67  1  0
 28 29  1  0
 28 68  1  0
 29 38  2  0
 29 30  1  0
 30 31  2  0
 31 36  1  0
 31 32  1  0
 32 33  2  0
 33 34  1  0
 33 69  1  0
 34 35  2  0
 34 70  1  0
 35 36  1  0
 35 71  1  0
 36 37  2  0
 37 38  1  0
 39 40  1  6
 39 41  1  0
 40 72  1  0
 40 73  1  0
 40 74  1  0
 41 48  1  0
 41 42  1  1
 41 44  1  0
 42 43  3  0
 44 45  1  0
 44 75  1  6
 45 46  1  0
 45 47  1  0
 45 76  1  1
 46 77  1  0
 46 78  1  0
 46 79  1  0
 48 47  1  6
 47 80  1  0
 47 81  1  0
M  END
>  <i_m_ct_stereo_status>  (98) 
1

>  <s_m_source_file>  (98) 
/var/tmp/pbs.5076255.sched01/tmp5vb4dkz1/0x5hafel7.sdf

>  <i_m_source_file_index>  (98) 
36

>  <i_lp_mmshare_version>  (98) 
48012

>  <i_f3d_flags>  (98) 
0

>  <s_epik_input>  (98) 
W0NAXTEyM0M0PUMoW0NIM10pW0NAQEhdKFtDQEBIXShbQ0gzXSlbQ0gyXTMpW0NAXTIoQyNOKVtDQF01KFtDSDNdKU42W0NAXShDI04pKFtDQEhdKFtDSDJdW0NIMl1bQ0gyXTYpT1tDQEBIXTFDKD1PKVtDSDJdNClbQ0BAXTcoW0NIM10pW0NAQF01KFtDQEhdKEMjTilDXDc9Ti9bSF0pYyhuW2NIXVtjSF04KWMoYzg5KW5jMWMobjkpbltjSF1bY0hdW2NIXTE=

>  <s_epik_cmdline>  (98) 
J2VwaWtfcHl0aG9uJywgJy1waHQnLCAnMi4wJywgJy1waCcsICc3LjAnLCAnLXRuJywgJzgnLCAnLW1hJywgJzIwMCcsICctaW1hZScsICc8aW5maWxlLm1hZT4nLCAnLW9tYWUnLCAnPG91dGZpbGUubWFlPic=

>  <r_lp_tautomer_probability>  (98) 
1

>  <r_epik_Ionization_Penalty>  (98) 
6.20374e-06

>  <r_epik_Ionization_Penalty_Charging>  (98) 
0

>  <r_epik_Ionization_Penalty_Neutral>  (98) 
6.20374e-06

>  <r_epik_State_Penalty>  (98) 
-0

>  <r_epik_Charging_Adjusted_Penalty>  (98) 
0

>  <i_epik_Tot_Q>  (98) 
0

>  <i_epik_Tot_abs_Q>  (98) 
0

>  <s_lp_Force_Field>  (98) 
OPLS3e

>  <r_lp_Energy>  (98) 
175.531

>  <b_lp_Chiralities_Consistent>  (98) 
1

>  <s_lp_Variant>  (98) 
21:0-2

>  <s_i_glide_gridfile>  (98) 
pfpi4k_grid

>  <i_i_glide_lignum>  (98) 
36

>  <i_i_glide_rotatable_bonds>  (98) 
4

>  <r_i_docking_score>  (98) 
-1.50336

>  <r_i_glide_ligand_efficiency>  (98) 
-0.03132

>  <r_i_glide_ligand_efficiency_sa>  (98) 
-0.113824

>  <r_i_glide_ligand_efficiency_ln>  (98) 
-0.308622

>  <r_i_glide_gscore>  (98) 
-1.50336

>  <r_i_glide_lipo>  (98) 
-0.0319256

>  <r_i_glide_hbond>  (98) 
0

>  <r_i_glide_metal>  (98) 
-0

>  <r_i_glide_rewards>  (98) 
-0.000669579

>  <r_i_glide_evdw>  (98) 
-26.85

>  <r_i_glide_ecoul>  (98) 
-1.07011

>  <r_i_glide_erotb>  (98) 
0.0523831

>  <r_i_glide_esite>  (98) 
-0.0201301

>  <r_i_glide_emodel>  (98) 
-28.7997

>  <r_i_glide_energy>  (98) 
-27.9201

>  <r_i_glide_einternal>  (98) 
2.84729

>  <r_i_glide_intrahb_reward>  (98) 
-0

>  <i_i_glide_confnum>  (98) 
3

>  <i_i_glide_posenum>  (98) 
4

>  <r_i_glide_eff_state_penalty>  (98) 
0

>  <ligand_id>  (98) 
21

>  <original_smiles>  (98) 
CC1=C2CC(=O)C3OC4CCCN5C4(C#N)C4(C)C(=N)C(C#N)C4(c4nccc6nc7ncccc7nc46)C5(C)C4(C#N)C1C(C)CC234

>  <smiles>  (98) 
[H]c1nc2nc3c([H])c([H])nc(C45C(C#N)=C(N([H])[H])C4(C([H])([H])[H])C4(C#N)N6C([H])([H])C([H])([H])C([H])([H])C4([H])OC4([H])C(=O)C([H])([H])C7=C(C([H])([H])[H])C8([H])C([H])(C([H])([H])[H])C([H])([H])C74C8(C#N)C65C([H])([H])[H])c3nc2c([H])c1[H]

$$$$
22:0:0
     RDKit          3D

 62 67  0  0  1  0  0  0  0  0999 V2000
    5.6105   -0.2809    2.2305 C   0  0  0  0  0  0  0  0  0  0  0  0
    4.8754   -1.5367    1.6794 C   0  0  0  0  0  0  0  0  0  0  0  0
    5.9465   -2.2430    0.8141 C   0  0  0  0  0  0  0  0  0  0  0  0
    4.1666   -2.3833    2.7863 C   0  0  1  0  0  0  0  0  0  0  0  0
    3.0847   -1.3852    3.2246 C   0  0  0  0  0  0  0  0  0  0  0  0
    2.6766   -0.6663    1.9509 N   0  0  1  0  0  0  0  0  0  0  0  0
    2.5937    0.8438    1.9730 C   0  0  0  0  0  0  0  0  0  0  0  0
    1.3762    1.4118    2.7410 C   0  0  2  0  0  0  0  0  0  0  0  0
    1.5372    2.8276    2.6034 O   0  0  0  0  0  0  0  0  0  0  0  0
    1.3951    1.0599    4.2759 C   0  0  0  0  0  0  0  0  0  0  0  0
    0.0294    0.8245    4.7752 N   0  0  0  0  0  0  0  0  0  0  0  0
   -0.5473   -0.3897    4.6315 C   0  0  0  0  0  0  0  0  0  0  0  0
   -0.0092   -1.3469    4.0685 O   0  0  0  0  0  0  0  0  0  0  0  0
   -1.9483   -0.5799    5.2429 C   0  0  0  0  0  0  0  0  0  0  0  0
   -2.0991    0.1492    6.4690 O   0  0  0  0  0  0  0  0  0  0  0  0
   -1.6825    1.4543    6.3904 C   0  0  0  0  0  0  0  0  0  0  0  0
   -2.3100    2.4201    7.2012 C   0  0  0  0  0  0  0  0  0  0  0  0
   -1.9007    3.7608    7.1102 C   0  0  0  0  0  0  0  0  0  0  0  0
   -0.8665    4.1427    6.2491 C   0  0  0  0  0  0  0  0  0  0  0  0
   -0.2108    3.1907    5.4665 C   0  0  0  0  0  0  0  0  0  0  0  0
   -0.6318    1.8419    5.5297 C   0  0  0  0  0  0  0  0  0  0  0  0
    3.5372   -1.3099    0.9002 C   0  0  2  0  0  0  0  0  0  0  0  0
    2.8650   -2.7348    0.8212 C   0  0  1  0  0  0  0  0  0  0  0  0
    2.6606   -3.8349   -0.2282 C   0  0  0  0  0  0  0  0  0  0  0  0
    2.2705   -4.9630    0.7539 C   0  0  0  0  0  0  0  0  0  0  0  0
    1.5286   -6.1214    0.4748 C   0  0  0  0  0  0  0  0  0  0  0  0
    1.2398   -7.0020    1.5541 C   0  0  0  0  0  0  0  0  0  0  0  0
    1.6669   -6.7038    2.8651 C   0  0  0  0  0  0  0  0  0  0  0  0
    2.4235   -5.5380    3.1431 C   0  0  0  0  0  0  0  0  0  0  0  0
    2.7158   -4.6994    2.0540 C   0  0  0  0  0  0  0  0  0  0  0  0
    3.6045   -3.5026    1.8980 C   0  0  2  0  0  0  0  0  0  0  0  0
    6.6171   -0.5392    2.5590 H   0  0  0  0  0  0  0  0  0  0  0  0
    5.1679    0.2129    3.0952 H   0  0  0  0  0  0  0  0  0  0  0  0
    5.6956    0.4597    1.4381 H   0  0  0  0  0  0  0  0  0  0  0  0
    5.5299   -2.9394    0.0890 H   0  0  0  0  0  0  0  0  0  0  0  0
    6.6459   -2.7810    1.4528 H   0  0  0  0  0  0  0  0  0  0  0  0
    6.5122   -1.5106    0.2414 H   0  0  0  0  0  0  0  0  0  0  0  0
    4.7902   -2.7308    3.6120 H   0  0  0  0  0  0  0  0  0  0  0  0
    2.2569   -1.9294    3.6725 H   0  0  0  0  0  0  0  0  0  0  0  0
    3.5058   -0.7166    3.9732 H   0  0  0  0  0  0  0  0  0  0  0  0
    3.5055    1.3100    2.3349 H   0  0  0  0  0  0  0  0  0  0  0  0
    2.4943    1.1543    0.9354 H   0  0  0  0  0  0  0  0  0  0  0  0
    0.4381    1.1127    2.2371 H   0  0  0  0  0  0  0  0  0  0  0  0
    0.9908    3.2032    1.9068 H   0  0  0  0  0  0  0  0  0  0  0  0
    1.9155    0.1610    4.5362 H   0  0  0  0  0  0  0  0  0  0  0  0
    1.9462    1.8310    4.8429 H   0  0  0  0  0  0  0  0  0  0  0  0
   -2.6391   -0.1973    4.4957 H   0  0  0  0  0  0  0  0  0  0  0  0
   -2.1647   -1.6380    5.3979 H   0  0  0  0  0  0  0  0  0  0  0  0
   -3.1124    2.1259    7.8490 H   0  0  0  0  0  0  0  0  0  0  0  0
   -2.3980    4.4985    7.7075 H   0  0  0  0  0  0  0  0  0  0  0  0
   -0.5415    5.1763    6.1723 H   0  0  0  0  0  0  0  0  0  0  0  0
    0.5982    3.5110    4.8311 H   0  0  0  0  0  0  0  0  0  0  0  0
    3.5810   -0.7542   -0.0457 H   0  0  0  0  0  0  0  0  0  0  0  0
    1.8273   -2.5698    1.1337 H   0  0  0  0  0  0  0  0  0  0  0  0
    1.8775   -3.5877   -0.9495 H   0  0  0  0  0  0  0  0  0  0  0  0
    3.5890   -4.0772   -0.7497 H   0  0  0  0  0  0  0  0  0  0  0  0
    1.2168   -6.3123   -0.5249 H   0  0  0  0  0  0  0  0  0  0  0  0
    0.7147   -7.9220    1.3432 H   0  0  0  0  0  0  0  0  0  0  0  0
    1.4527   -7.4106    3.6546 H   0  0  0  0  0  0  0  0  0  0  0  0
    2.7843   -5.3267    4.1437 H   0  0  0  0  0  0  0  0  0  0  0  0
    4.4777   -4.0437    1.5379 H   0  0  0  0  0  0  0  0  0  0  0  0
    1.7324   -0.9419    1.7243 H   0  0  0  0  0  0  0  0  0  0  0  0
  1  2  1  0
  1 32  1  0
  1 33  1  0
  1 34  1  0
  2 22  1  0
  2  3  1  0
  2  4  1  0
  3 35  1  0
  3 36  1  0
  3 37  1  0
  4 31  1  0
  4  5  1  0
  4 38  1  1
  5  6  1  0
  5 39  1  0
  5 40  1  0
  6  7  1  0
  6 22  1  0
  6 62  1  6
  7  8  1  0
  7 41  1  0
  7 42  1  0
  8  9  1  0
  8 10  1  0
  8 43  1  6
  9 44  1  0
 10 11  1  0
 10 45  1  0
 10 46  1  0
 11 21  1  0
 11 12  1  0
 12 13  2  0
 12 14  1  0
 14 15  1  0
 14 47  1  0
 14 48  1  0
 15 16  1  0
 16 21  2  0
 16 17  1  0
 17 18  2  0
 17 49  1  0
 18 19  1  0
 18 50  1  0
 19 20  2  0
 19 51  1  0
 20 21  1  0
 20 52  1  0
 22 23  1  0
 22 53  1  6
 23 31  1  0
 23 24  1  0
 23 54  1  1
 24 25  1  0
 24 55  1  0
 24 56  1  0
 25 30  2  0
 25 26  1  0
 26 27  2  0
 26 57  1  0
 27 28  1  0
 27 58  1  0
 28 29  2  0
 28 59  1  0
 29 30  1  0
 29 60  1  0
 30 31  1  0
 31 61  1  6
M  CHG  1   6   1
M  END
>  <i_m_ct_stereo_status>  (99) 
1

>  <s_m_source_file>  (99) 
/var/tmp/pbs.5076255.sched01/tmp5vb4dkz1/0x5hafel7.sdf

>  <i_m_source_file_index>  (99) 
37

>  <i_lp_mmshare_version>  (99) 
48012

>  <i_f3d_flags>  (99) 
0

>  <s_epik_input>  (99) 
W2NIXTFbY0hdW2NIXVtjSF1jMmMxW0NIMl1bQ0BASF0oW0NASF0yW0NAQEhdMzQpW0NASF0oQzMoW0NIM10pW0NIM10pTihbQ0gyXTQpW0NIMl1bQ0BIXShbT0hdKVtDSDJdTihDKD1PKVtDSDJdTzUpYyhjNTYpW2NIXVtjSF1bY0hdW2NIXTY=

>  <s_epik_cmdline>  (99) 
J2VwaWtfcHl0aG9uJywgJy1waHQnLCAnMi4wJywgJy1waCcsICc3LjAnLCAnLXRuJywgJzgnLCAnLW1hJywgJzIwMCcsICctaW1hZScsICc8aW5maWxlLm1hZT4nLCAnLW9tYWUnLCAnPG91dGZpbGUubWFlPic=

>  <r_lp_tautomer_probability>  (99) 
1

>  <r_epik_Ionization_Penalty>  (99) 
0.00107413

>  <r_epik_Ionization_Penalty_Charging>  (99) 
0.00107366

>  <r_epik_Ionization_Penalty_Neutral>  (99) 
4.73581e-07

>  <r_epik_State_Penalty>  (99) 
0.000703243

>  <r_epik_Charging_Adjusted_Penalty>  (99) 
0.0017769

>  <i_epik_Tot_Q>  (99) 
1

>  <i_epik_Tot_abs_Q>  (99) 
1

>  <s_lp_Force_Field>  (99) 
OPLS3e

>  <r_lp_Energy>  (99) 
123.272

>  <b_lp_Chiralities_Consistent>  (99) 
1

>  <s_lp_Variant>  (99) 
22:0-1

>  <s_i_glide_gridfile>  (99) 
pfpi4k_grid

>  <i_i_glide_lignum>  (99) 
37

>  <i_i_glide_rotatable_bonds>  (99) 
5

>  <r_i_docking_score>  (99) 
-3.21858

>  <r_i_glide_ligand_efficiency>  (99) 
-0.103825

>  <r_i_glide_ligand_efficiency_sa>  (99) 
-0.326154

>  <r_i_glide_ligand_efficiency_ln>  (99) 
-0.725888

>  <r_i_glide_gscore>  (99) 
-3.21858

>  <r_i_glide_lipo>  (99) 
-0.322076

>  <r_i_glide_hbond>  (99) 
-0.32

>  <r_i_glide_metal>  (99) 
-0

>  <r_i_glide_rewards>  (99) 
-0.548619

>  <r_i_glide_evdw>  (99) 
-24.6641

>  <r_i_glide_ecoul>  (99) 
-7.08846

>  <r_i_glide_erotb>  (99) 
0.337212

>  <r_i_glide_esite>  (99) 
-0.0686213

>  <r_i_glide_emodel>  (99) 
-35.4206

>  <r_i_glide_energy>  (99) 
-31.7526

>  <r_i_glide_einternal>  (99) 
3.86226

>  <r_i_glide_intrahb_reward>  (99) 
-0

>  <i_i_glide_confnum>  (99) 
2

>  <i_i_glide_posenum>  (99) 
16

>  <r_i_glide_eff_state_penalty>  (99) 
0

>  <ligand_id>  (99) 
22

>  <original_smiles>  (99) 
CC1(C)C2CN(CC(O)CN3C(=O)COc4ccccc43)C1C1Cc3ccccc3C12

>  <smiles>  (99) 
[H]OC([H])(C([H])([H])N1C(=O)C([H])([H])Oc2c([H])c([H])c([H])c([H])c21)C([H])([H])[N+]1([H])C([H])([H])C2([H])C3([H])c4c([H])c([H])c([H])c([H])c4C([H])([H])C3([H])C1([H])C2(C([H])([H])[H])C([H])([H])[H]

$$$$
22:0:1
     RDKit          3D

 62 67  0  0  1  0  0  0  0  0999 V2000
    5.6664   -0.5758    1.2734 C   0  0  0  0  0  0  0  0  0  0  0  0
    4.8708   -1.8889    1.0133 C   0  0  0  0  0  0  0  0  0  0  0  0
    5.7396   -2.6409   -0.0348 C   0  0  0  0  0  0  0  0  0  0  0  0
    4.4508   -2.6440    2.3321 C   0  0  1  0  0  0  0  0  0  0  0  0
    3.4224   -1.6331    2.9177 C   0  0  0  0  0  0  0  0  0  0  0  0
    2.7721   -1.0407    1.7071 N   0  0  1  0  0  0  0  0  0  0  0  0
    2.6416    0.4287    1.6221 C   0  0  0  0  0  0  0  0  0  0  0  0
    1.8898    1.0289    2.8480 C   0  0  2  0  0  0  0  0  0  0  0  0
    0.8159    1.8659    2.3784 O   0  0  0  0  0  0  0  0  0  0  0  0
    2.8785    1.8408    3.7547 C   0  0  0  0  0  0  0  0  0  0  0  0
    2.2618    2.4224    4.9564 N   0  0  0  0  0  0  0  0  0  0  0  0
    2.1486    1.6845    6.0856 C   0  0  0  0  0  0  0  0  0  0  0  0
    2.5778    0.5280    6.1860 O   0  0  0  0  0  0  0  0  0  0  0  0
    1.4320    2.3227    7.2829 C   0  0  0  0  0  0  0  0  0  0  0  0
    1.6980    3.7266    7.3671 O   0  0  0  0  0  0  0  0  0  0  0  0
    1.5487    4.4238    6.1953 C   0  0  0  0  0  0  0  0  0  0  0  0
    1.1385    5.7701    6.2325 C   0  0  0  0  0  0  0  0  0  0  0  0
    0.9188    6.4798    5.0429 C   0  0  0  0  0  0  0  0  0  0  0  0
    1.1589    5.8538    3.8038 C   0  0  0  0  0  0  0  0  0  0  0  0
    1.6613    4.5442    3.7595 C   0  0  0  0  0  0  0  0  0  0  0  0
    1.8264    3.7915    4.9491 C   0  0  0  0  0  0  0  0  0  0  0  0
    3.3886   -1.7487    0.5475 C   0  0  2  0  0  0  0  0  0  0  0  0
    2.7823   -3.1883    0.7262 C   0  0  1  0  0  0  0  0  0  0  0  0
    2.3838   -4.3820   -0.1676 C   0  0  0  0  0  0  0  0  0  0  0  0
    2.2632   -5.4324    0.9531 C   0  0  0  0  0  0  0  0  0  0  0  0
    1.5140   -6.6167    0.9517 C   0  0  0  0  0  0  0  0  0  0  0  0
    1.5385   -7.4142    2.1111 C   0  0  0  0  0  0  0  0  0  0  0  0
    2.2591   -7.0066    3.2666 C   0  0  0  0  0  0  0  0  0  0  0  0
    3.0104   -5.8090    3.2718 C   0  0  0  0  0  0  0  0  0  0  0  0
    2.9940   -5.0500    2.0933 C   0  0  0  0  0  0  0  0  0  0  0  0
    3.7754   -3.8520    1.6586 C   0  0  2  0  0  0  0  0  0  0  0  0
    6.7332   -0.7914    1.3653 H   0  0  0  0  0  0  0  0  0  0  0  0
    5.3980   -0.0411    2.1851 H   0  0  0  0  0  0  0  0  0  0  0  0
    5.5581    0.1213    0.4376 H   0  0  0  0  0  0  0  0  0  0  0  0
    5.1962   -3.4006   -0.5925 H   0  0  0  0  0  0  0  0  0  0  0  0
    6.5966   -3.1115    0.4470 H   0  0  0  0  0  0  0  0  0  0  0  0
    6.1184   -1.9490   -0.7849 H   0  0  0  0  0  0  0  0  0  0  0  0
    5.2696   -2.8888    3.0196 H   0  0  0  0  0  0  0  0  0  0  0  0
    2.6888   -2.1066    3.5702 H   0  0  0  0  0  0  0  0  0  0  0  0
    3.9465   -0.9008    3.5276 H   0  0  0  0  0  0  0  0  0  0  0  0
    3.5779    0.9596    1.4251 H   0  0  0  0  0  0  0  0  0  0  0  0
    2.0446    0.5865    0.7264 H   0  0  0  0  0  0  0  0  0  0  0  0
    1.3739    0.2376    3.4052 H   0  0  0  0  0  0  0  0  0  0  0  0
    0.6514    1.7266    1.4469 H   0  0  0  0  0  0  0  0  0  0  0  0
    3.6986    1.1991    4.0697 H   0  0  0  0  0  0  0  0  0  0  0  0
    3.3953    2.6234    3.1962 H   0  0  0  0  0  0  0  0  0  0  0  0
    0.3554    2.1857    7.1701 H   0  0  0  0  0  0  0  0  0  0  0  0
    1.7164    1.8276    8.2159 H   0  0  0  0  0  0  0  0  0  0  0  0
    0.9804    6.2451    7.1961 H   0  0  0  0  0  0  0  0  0  0  0  0
    0.5994    7.5029    5.0520 H   0  0  0  0  0  0  0  0  0  0  0  0
    0.9865    6.3760    2.8768 H   0  0  0  0  0  0  0  0  0  0  0  0
    1.8850    4.1526    2.7656 H   0  0  0  0  0  0  0  0  0  0  0  0
    3.2089   -1.2802   -0.4253 H   0  0  0  0  0  0  0  0  0  0  0  0
    1.8458   -3.0306    1.2710 H   0  0  0  0  0  0  0  0  0  0  0  0
    1.4553   -4.2221   -0.7206 H   0  0  0  0  0  0  0  0  0  0  0  0
    3.1842   -4.6486   -0.8586 H   0  0  0  0  0  0  0  0  0  0  0  0
    0.9566   -6.9350    0.0846 H   0  0  0  0  0  0  0  0  0  0  0  0
    1.0181   -8.3617    2.1109 H   0  0  0  0  0  0  0  0  0  0  0  0
    2.2601   -7.6547    4.1315 H   0  0  0  0  0  0  0  0  0  0  0  0
    3.5849   -5.5069    4.1377 H   0  0  0  0  0  0  0  0  0  0  0  0
    4.5717   -4.3870    1.1462 H   0  0  0  0  0  0  0  0  0  0  0  0
    1.8108   -1.3339    1.7148 H   0  0  0  0  0  0  0  0  0  0  0  0
  1  2  1  0
  1 32  1  0
  1 33  1  0
  1 34  1  0
  2 22  1  0
  2  3  1  0
  2  4  1  0
  3 35  1  0
  3 36  1  0
  3 37  1  0
  4 31  1  0
  4  5  1  0
  4 38  1  1
  5  6  1  0
  5 39  1  0
  5 40  1  0
  6  7  1  0
  6 22  1  0
  6 62  1  1
  7  8  1  0
  7 41  1  0
  7 42  1  0
  8  9  1  0
  8 10  1  0
  8 43  1  1
  9 44  1  0
 10 11  1  0
 10 45  1  0
 10 46  1  0
 11 21  1  0
 11 12  1  0
 12 13  2  0
 12 14  1  0
 14 15  1  0
 14 47  1  0
 14 48  1  0
 15 16  1  0
 16 21  2  0
 16 17  1  0
 17 18  2  0
 17 49  1  0
 18 19  1  0
 18 50  1  0
 19 20  2  0
 19 51  1  0
 20 21  1  0
 20 52  1  0
 22 23  1  0
 22 53  1  6
 23 31  1  0
 23 24  1  0
 23 54  1  1
 24 25  1  0
 24 55  1  0
 24 56  1  0
 25 30  2  0
 25 26  1  0
 26 27  2  0
 26 57  1  0
 27 28  1  0
 27 58  1  0
 28 29  2  0
 28 59  1  0
 29 30  1  0
 29 60  1  0
 30 31  1  0
 31 61  1  6
M  CHG  1   6   1
M  END
>  <i_m_ct_stereo_status>  (100) 
1

>  <s_m_source_file>  (100) 
/var/tmp/pbs.5076255.sched01/tmp5vb4dkz1/0x5hafel7.sdf

>  <i_m_source_file_index>  (100) 
37

>  <i_lp_mmshare_version>  (100) 
48012

>  <i_f3d_flags>  (100) 
0

>  <s_epik_input>  (100) 
W2NIXTFbY0hdW2NIXVtjSF1jMmMxW0NIMl1bQ0BASF0oW0NASF0yW0NAQEhdMzQpW0NASF0oQzMoW0NIM10pW0NIM10pTihbQ0gyXTQpW0NIMl1bQ0BIXShbT0hdKVtDSDJdTihDKD1PKVtDSDJdTzUpYyhjNTYpW2NIXVtjSF1bY0hdW2NIXTY=

>  <s_epik_cmdline>  (100) 
J2VwaWtfcHl0aG9uJywgJy1waHQnLCAnMi4wJywgJy1waCcsICc3LjAnLCAnLXRuJywgJzgnLCAnLW1hJywgJzIwMCcsICctaW1hZScsICc8aW5maWxlLm1hZT4nLCAnLW9tYWUnLCAnPG91dGZpbGUubWFlPic=

>  <r_lp_tautomer_probability>  (100) 
1

>  <r_epik_Ionization_Penalty>  (100) 
0.00107413

>  <r_epik_Ionization_Penalty_Charging>  (100) 
0.00107366

>  <r_epik_Ionization_Penalty_Neutral>  (100) 
4.73581e-07

>  <r_epik_State_Penalty>  (100) 
0.000703243

>  <r_epik_Charging_Adjusted_Penalty>  (100) 
0.0017769

>  <i_epik_Tot_Q>  (100) 
1

>  <i_epik_Tot_abs_Q>  (100) 
1

>  <s_lp_Force_Field>  (100) 
OPLS3e

>  <r_lp_Energy>  (100) 
123.272

>  <b_lp_Chiralities_Consistent>  (100) 
1

>  <s_lp_Variant>  (100) 
22:0-1

>  <s_i_glide_gridfile>  (100) 
pfpi4k_grid

>  <i_i_glide_lignum>  (100) 
37

>  <i_i_glide_rotatable_bonds>  (100) 
5

>  <r_i_docking_score>  (100) 
-2.3695

>  <r_i_glide_ligand_efficiency>  (100) 
-0.0764354

>  <r_i_glide_ligand_efficiency_sa>  (100) 
-0.240113

>  <r_i_glide_ligand_efficiency_ln>  (100) 
-0.534394

>  <r_i_glide_gscore>  (100) 
-2.3695

>  <r_i_glide_lipo>  (100) 
-0.172829

>  <r_i_glide_hbond>  (100) 
0

>  <r_i_glide_metal>  (100) 
-0

>  <r_i_glide_rewards>  (100) 
-0.548619

>  <r_i_glide_evdw>  (100) 
-23.6623

>  <r_i_glide_ecoul>  (100) 
-5.04348

>  <r_i_glide_erotb>  (100) 
0.337212

>  <r_i_glide_esite>  (100) 
-0.0456268

>  <r_i_glide_emodel>  (100) 
-31.0726

>  <r_i_glide_energy>  (100) 
-28.7057

>  <r_i_glide_einternal>  (100) 
5.42381

>  <r_i_glide_intrahb_reward>  (100) 
-0

>  <i_i_glide_confnum>  (100) 
2

>  <i_i_glide_posenum>  (100) 
19

>  <r_i_glide_eff_state_penalty>  (100) 
0

>  <ligand_id>  (100) 
22

>  <original_smiles>  (100) 
CC1(C)C2CN(CC(O)CN3C(=O)COc4ccccc43)C1C1Cc3ccccc3C12

>  <smiles>  (100) 
[H]OC([H])(C([H])([H])N1C(=O)C([H])([H])Oc2c([H])c([H])c([H])c([H])c21)C([H])([H])[N+]1([H])C([H])([H])C2([H])C3([H])c4c([H])c([H])c([H])c([H])c4C([H])([H])C3([H])C1([H])C2(C([H])([H])[H])C([H])([H])[H]

$$$$
23:0:0
     RDKit          3D

 81 86  0  0  1  0  0  0  0  0999 V2000
    1.0113    3.8986    5.7633 C   0  0  0  0  0  0  0  0  0  0  0  0
   -0.1000    3.6135    6.7097 N   0  0  2  0  0  0  0  0  0  0  0  0
    0.1138    2.5593    7.7207 C   0  0  1  0  0  0  0  0  0  0  0  0
   -1.2358    2.5485    8.4603 C   0  0  0  0  0  0  0  0  0  0  0  0
   -2.2623    3.0223    7.3988 C   0  0  0  0  0  0  0  0  0  0  0  0
   -1.4168    3.2676    6.1363 C   0  0  2  0  0  0  0  0  0  0  0  0
   -1.3177    1.9834    5.2751 C   0  0  0  0  0  0  0  0  0  0  0  0
   -0.7831    0.7871    6.0924 C   0  0  1  0  0  0  0  0  0  0  0  0
   -0.3950   -0.2942    5.1983 N   0  0  0  0  0  0  0  0  0  0  0  0
   -0.2809   -1.5797    5.5252 C   0  0  0  0  0  0  0  0  0  0  0  0
   -0.6026   -2.0052    6.6531 O   0  0  0  0  0  0  0  0  0  0  0  0
    0.2855   -2.5466    4.4457 C   0  0  2  0  0  0  0  0  0  0  0  0
    0.6285   -3.9730    4.9572 C   0  0  0  0  0  0  0  0  0  0  0  0
    1.9055   -4.4168    4.2249 C   0  0  0  0  0  0  0  0  0  0  0  0
    2.0806   -3.3829    3.0983 C   0  0  2  0  0  0  0  0  0  0  0  0
    3.4773   -3.2155    2.4600 C   0  0  1  0  0  0  0  0  0  0  0  0
    4.0442   -4.5344    1.8889 C   0  0  0  0  0  0  0  0  0  0  0  0
    5.4554   -4.3214    1.3123 C   0  0  0  0  0  0  0  0  0  0  0  0
    5.4946   -3.1986    0.2550 C   0  0  1  0  0  0  0  0  0  0  0  0
    6.8675   -3.0445   -0.0491 O   0  0  0  0  0  0  0  0  0  0  0  0
    4.8301   -3.6521   -1.0762 C   0  0  0  0  0  0  0  0  0  0  0  0
    4.8651   -2.5669   -2.1693 C   0  0  1  0  0  0  0  0  0  0  0  0
    4.1835   -3.0010   -3.3284 O   0  0  0  0  0  0  0  0  0  0  0  0
    4.2574   -1.2529   -1.6476 C   0  0  0  0  0  0  0  0  0  0  0  0
    4.9660   -0.7951   -0.3596 C   0  0  0  0  0  0  0  0  0  0  0  0
    4.9168   -1.8415    0.7969 C   0  0  2  0  0  0  0  0  0  0  0  0
    5.8424   -1.2698    1.9332 C   0  0  0  0  0  0  0  0  0  0  0  0
    3.4609   -2.0769    1.3707 C   0  0  2  0  0  0  0  0  0  0  0  0
    2.7421   -0.7836    1.9039 C   0  0  1  0  0  0  0  0  0  0  0  0
    2.4640    0.1164    0.8801 O   0  0  0  0  0  0  0  0  0  0  0  0
    1.3948   -1.0486    2.6116 C   0  0  0  0  0  0  0  0  0  0  0  0
    1.5894   -2.0765    3.7447 C   0  0  1  0  0  0  0  0  0  0  0  0
    2.5930   -1.5148    4.8274 C   0  0  0  0  0  0  0  0  0  0  0  0
    0.3855    1.1979    7.0312 C   0  0  0  0  0  0  0  0  0  0  0  0
    1.2718    3.0673    5.1088 H   0  0  0  0  0  0  0  0  0  0  0  0
    1.9284    4.1698    6.3011 H   0  0  0  0  0  0  0  0  0  0  0  0
    0.7682    4.7449    5.1084 H   0  0  0  0  0  0  0  0  0  0  0  0
    0.9300    2.8309    8.3890 H   0  0  0  0  0  0  0  0  0  0  0  0
   -1.4743    1.5786    8.8806 H   0  0  0  0  0  0  0  0  0  0  0  0
   -1.2215    3.2563    9.2918 H   0  0  0  0  0  0  0  0  0  0  0  0
   -3.0646    2.3118    7.2334 H   0  0  0  0  0  0  0  0  0  0  0  0
   -2.7267    3.9528    7.7306 H   0  0  0  0  0  0  0  0  0  0  0  0
   -1.8068    4.0918    5.5450 H   0  0  0  0  0  0  0  0  0  0  0  0
   -2.2908    1.7348    4.8639 H   0  0  0  0  0  0  0  0  0  0  0  0
   -0.6769    2.1656    4.4136 H   0  0  0  0  0  0  0  0  0  0  0  0
   -1.5989    0.4273    6.7154 H   0  0  0  0  0  0  0  0  0  0  0  0
   -0.0823   -0.0275    4.2689 H   0  0  0  0  0  0  0  0  0  0  0  0
   -0.5054   -2.6551    3.6936 H   0  0  0  0  0  0  0  0  0  0  0  0
    0.8098   -4.0079    6.0418 H   0  0  0  0  0  0  0  0  0  0  0  0
   -0.1966   -4.6687    4.7485 H   0  0  0  0  0  0  0  0  0  0  0  0
    2.7618   -4.3603    4.9053 H   0  0  0  0  0  0  0  0  0  0  0  0
    1.8555   -5.4495    3.8660 H   0  0  0  0  0  0  0  0  0  0  0  0
    1.3924   -3.6859    2.3151 H   0  0  0  0  0  0  0  0  0  0  0  0
    4.1385   -2.9415    3.2773 H   0  0  0  0  0  0  0  0  0  0  0  0
    4.1260   -5.2599    2.6969 H   0  0  0  0  0  0  0  0  0  0  0  0
    3.3818   -4.9790    1.1342 H   0  0  0  0  0  0  0  0  0  0  0  0
    6.1419   -4.0826    2.1296 H   0  0  0  0  0  0  0  0  0  0  0  0
    5.8352   -5.2572    0.8902 H   0  0  0  0  0  0  0  0  0  0  0  0
    7.3101   -2.7029    0.7141 H   0  0  0  0  0  0  0  0  0  0  0  0
    5.3118   -4.5603   -1.4548 H   0  0  0  0  0  0  0  0  0  0  0  0
    3.7901   -3.9382   -0.8996 H   0  0  0  0  0  0  0  0  0  0  0  0
    5.9013   -2.3813   -2.4586 H   0  0  0  0  0  0  0  0  0  0  0  0
    3.3156   -3.2955   -3.0851 H   0  0  0  0  0  0  0  0  0  0  0  0
    4.3483   -0.4813   -2.4144 H   0  0  0  0  0  0  0  0  0  0  0  0
    3.1830   -1.3737   -1.4842 H   0  0  0  0  0  0  0  0  0  0  0  0
    6.0142   -0.6217   -0.6330 H   0  0  0  0  0  0  0  0  0  0  0  0
    4.5418    0.1529   -0.0217 H   0  0  0  0  0  0  0  0  0  0  0  0
    5.4802   -0.3236    2.3419 H   0  0  0  0  0  0  0  0  0  0  0  0
    6.8584   -1.0614    1.5829 H   0  0  0  0  0  0  0  0  0  0  0  0
    5.9435   -1.9482    2.7878 H   0  0  0  0  0  0  0  0  0  0  0  0
    2.8282   -2.4345    0.5561 H   0  0  0  0  0  0  0  0  0  0  0  0
    3.3712   -0.2545    2.6126 H   0  0  0  0  0  0  0  0  0  0  0  0
    1.8537   -0.2589    0.2556 H   0  0  0  0  0  0  0  0  0  0  0  0
    1.0169   -0.1034    2.9992 H   0  0  0  0  0  0  0  0  0  0  0  0
    0.6525   -1.4050    1.8962 H   0  0  0  0  0  0  0  0  0  0  0  0
    3.5990   -1.3556    4.4429 H   0  0  0  0  0  0  0  0  0  0  0  0
    2.6994   -2.1874    5.6869 H   0  0  0  0  0  0  0  0  0  0  0  0
    2.2579   -0.5594    5.2396 H   0  0  0  0  0  0  0  0  0  0  0  0
    1.3216    1.2561    6.4802 H   0  0  0  0  0  0  0  0  0  0  0  0
    0.5486    0.4378    7.7933 H   0  0  0  0  0  0  0  0  0  0  0  0
   -0.2532    4.4564    7.2437 H   0  0  0  0  0  0  0  0  0  0  0  0
  1  2  1  0
  1 35  1  0
  1 36  1  0
  1 37  1  0
  2  6  1  0
  2  3  1  0
  2 81  1  1
  3 34  1  0
  3  4  1  0
  3 38  1  1
  4  5  1  0
  4 39  1  0
  4 40  1  0
  5  6  1  0
  5 41  1  0
  5 42  1  0
  6  7  1  0
  6 43  1  6
  7  8  1  0
  7 44  1  0
  7 45  1  0
  8  9  1  0
  8 34  1  0
  8 46  1  1
  9 10  1  0
  9 47  1  0
 10 11  2  0
 10 12  1  0
 12 32  1  0
 12 13  1  0
 12 48  1  6
 13 14  1  0
 13 49  1  0
 13 50  1  0
 14 15  1  0
 14 51  1  0
 14 52  1  0
 15 32  1  0
 15 16  1  0
 15 53  1  6
 16 28  1  0
 16 17  1  0
 16 54  1  1
 17 18  1  0
 17 55  1  0
 17 56  1  0
 18 19  1  0
 18 57  1  0
 18 58  1  0
 19 26  1  0
 19 20  1  6
 19 21  1  0
 20 59  1  0
 21 22  1  0
 21 60  1  0
 21 61  1  0
 22 23  1  0
 22 24  1  0
 22 62  1  6
 23 63  1  0
 24 25  1  0
 24 64  1  0
 24 65  1  0
 25 26  1  0
 25 66  1  0
 25 67  1  0
 26 27  1  1
 26 28  1  0
 27 68  1  0
 27 69  1  0
 27 70  1  0
 28 29  1  0
 28 71  1  6
 29 30  1  0
 29 31  1  0
 29 72  1  1
 30 73  1  0
 31 32  1  0
 31 74  1  0
 31 75  1  0
 32 33  1  1
 33 76  1  0
 33 77  1  0
 33 78  1  0
 34 79  1  0
 34 80  1  0
M  CHG  1   2   1
M  END
>  <i_m_ct_stereo_status>  (101) 
1

>  <s_m_source_file>  (101) 
/var/tmp/pbs.5076255.sched01/tmp5vb4dkz1/0x5hafel7.sdf

>  <i_m_source_file_index>  (101) 
38

>  <i_lp_mmshare_version>  (101) 
48012

>  <i_f3d_flags>  (101) 
0

>  <s_epik_input>  (101) 
W0NIM11OKFtDQEBIXTEyKVtDQEhdKFtDSDJdW0NIMl0xKVtDSDJdW0NASF0oW0NIMl0yKVtOSF1DKD1PKVtDQEhdKFtDSDJdW0NIMl0zKVtDQF0oW0NIM10pKFtDSDJdW0NAQEhdNFtPSF0pW0NASF0zW0NAQEhdKFtDSDJdW0NIMl01KVtDQEBIXTRbQ0BAXShbQ0gzXSkoW0NAQF01NltPSF0pW0NIMl1bQ0gyXVtDQEBIXShbQ0gyXTYpW09IXQ==

>  <s_epik_cmdline>  (101) 
J2VwaWtfcHl0aG9uJywgJy1waHQnLCAnMi4wJywgJy1waCcsICc3LjAnLCAnLXRuJywgJzgnLCAnLW1hJywgJzIwMCcsICctaW1hZScsICc8aW5maWxlLm1hZT4nLCAnLW9tYWUnLCAnPG91dGZpbGUubWFlPic=

>  <r_epik_Ionization_Penalty>  (101) 
0.00313089

>  <r_epik_Ionization_Penalty_Charging>  (101) 
0.00312544

>  <r_epik_Ionization_Penalty_Neutral>  (101) 
5.44492e-06

>  <r_epik_State_Penalty>  (101) 
0.00220056

>  <r_epik_Charging_Adjusted_Penalty>  (101) 
0.005326

>  <i_epik_Tot_Q>  (101) 
1

>  <i_epik_Tot_abs_Q>  (101) 
1

>  <s_lp_Force_Field>  (101) 
OPLS3e

>  <r_lp_Energy>  (101) 
78.6365

>  <b_lp_Chiralities_Consistent>  (101) 
1

>  <s_lp_Variant>  (101) 
23:0-1

>  <s_i_glide_gridfile>  (101) 
pfpi4k_grid

>  <i_i_glide_lignum>  (101) 
38

>  <i_i_glide_rotatable_bonds>  (101) 
6

>  <r_i_docking_score>  (101) 
-3.31853

>  <r_i_glide_ligand_efficiency>  (101) 
-0.0976039

>  <r_i_glide_ligand_efficiency_sa>  (101) 
-0.316199

>  <r_i_glide_ligand_efficiency_ln>  (101) 
-0.733157

>  <r_i_glide_gscore>  (101) 
-3.31853

>  <r_i_glide_lipo>  (101) 
-0.559781

>  <r_i_glide_hbond>  (101) 
-0.16

>  <r_i_glide_metal>  (101) 
-0

>  <r_i_glide_rewards>  (101) 
-0.165792

>  <r_i_glide_evdw>  (101) 
-24.2698

>  <r_i_glide_ecoul>  (101) 
-9.61426

>  <r_i_glide_erotb>  (101) 
0.268402

>  <r_i_glide_esite>  (101) 
-0.0457351

>  <r_i_glide_emodel>  (101) 
-41.9132

>  <r_i_glide_energy>  (101) 
-33.884

>  <r_i_glide_einternal>  (101) 
1.85313

>  <r_i_glide_intrahb_reward>  (101) 
-0

>  <i_i_glide_confnum>  (101) 
3

>  <i_i_glide_posenum>  (101) 
5

>  <r_i_glide_eff_state_penalty>  (101) 
0

>  <ligand_id>  (101) 
23

>  <original_smiles>  (101) 
CN1C2CCC1CC(NC(=O)C1CCC3C4CCC5(O)CC(O)CCC5(C)C4C(O)CC13C)C2

>  <smiles>  (101) 
[H]OC1([H])C([H])([H])C([H])([H])C2(C([H])([H])[H])C3([H])C([H])(O[H])C([H])([H])C4(C([H])([H])[H])C([H])(C(=O)N([H])C5([H])C([H])([H])C6([H])C([H])([H])C([H])([H])C([H])(C5([H])[H])[N+]6([H])C([H])([H])[H])C([H])([H])C([H])([H])C4([H])C3([H])C([H])([H])C([H])([H])C2(O[H])C1([H])[H]

$$$$
23:0:1
     RDKit          3D

 81 86  0  0  1  0  0  0  0  0999 V2000
    0.0953   -9.6028    6.7950 C   0  0  0  0  0  0  0  0  0  0  0  0
    0.6173  -10.1101    5.4997 N   0  0  2  0  0  0  0  0  0  0  0  0
    2.0721  -10.2186    5.3409 C   0  0  1  0  0  0  0  0  0  0  0  0
    2.2003  -10.7421    3.8969 C   0  0  0  0  0  0  0  0  0  0  0  0
    0.9421  -10.2022    3.1810 C   0  0  0  0  0  0  0  0  0  0  0  0
    0.1947   -9.4105    4.2722 C   0  0  2  0  0  0  0  0  0  0  0  0
    0.6589   -7.9348    4.2985 C   0  0  0  0  0  0  0  0  0  0  0  0
    2.2020   -7.8089    4.4553 C   0  0  1  0  0  0  0  0  0  0  0  0
    2.6061   -6.4619    4.8442 N   0  0  0  0  0  0  0  0  0  0  0  0
    2.3724   -5.3456    4.1352 C   0  0  0  0  0  0  0  0  0  0  0  0
    1.9292   -5.3867    2.9866 O   0  0  0  0  0  0  0  0  0  0  0  0
    2.6705   -3.9931    4.8419 C   0  0  2  0  0  0  0  0  0  0  0  0
    2.4871   -4.0278    6.3879 C   0  0  0  0  0  0  0  0  0  0  0  0
    1.9058   -2.6632    6.8006 C   0  0  0  0  0  0  0  0  0  0  0  0
    2.0750   -1.7838    5.5540 C   0  0  2  0  0  0  0  0  0  0  0  0
    1.1841   -0.5222    5.4237 C   0  0  1  0  0  0  0  0  0  0  0  0
    1.3215    0.4464    6.6171 C   0  0  0  0  0  0  0  0  0  0  0  0
    0.3862    1.6597    6.4589 C   0  0  0  0  0  0  0  0  0  0  0  0
    0.5981    2.3915    5.1140 C   0  0  1  0  0  0  0  0  0  0  0  0
   -0.4099    3.3799    5.0545 O   0  0  0  0  0  0  0  0  0  0  0  0
    1.9310    3.1912    5.1197 C   0  0  0  0  0  0  0  0  0  0  0  0
    2.1541    3.9576    3.8015 C   0  0  1  0  0  0  0  0  0  0  0  0
    3.4022    4.6142    3.8373 O   0  0  0  0  0  0  0  0  0  0  0  0
    2.0770    3.0111    2.6006 C   0  0  0  0  0  0  0  0  0  0  0  0
    0.7325    2.2563    2.5941 C   0  0  0  0  0  0  0  0  0  0  0  0
    0.4568    1.4264    3.8806 C   0  0  2  0  0  0  0  0  0  0  0  0
   -1.0103    0.9120    3.7698 C   0  0  0  0  0  0  0  0  0  0  0  0
    1.4401    0.2035    4.0566 C   0  0  2  0  0  0  0  0  0  0  0  0
    1.4444   -0.8104    2.8588 C   0  0  1  0  0  0  0  0  0  0  0  0
    1.9621   -0.2296    1.6831 O   0  0  0  0  0  0  0  0  0  0  0  0
    2.2662   -2.0981    3.1008 C   0  0  0  0  0  0  0  0  0  0  0  0
    1.8190   -2.7677    4.4065 C   0  0  1  0  0  0  0  0  0  0  0  0
    0.3217   -3.1767    4.3029 C   0  0  0  0  0  0  0  0  0  0  0  0
    2.7431   -8.8261    5.4894 C   0  0  0  0  0  0  0  0  0  0  0  0
    0.3809   -8.5737    7.0050 H   0  0  0  0  0  0  0  0  0  0  0  0
    0.4458  -10.2323    7.6150 H   0  0  0  0  0  0  0  0  0  0  0  0
   -0.9922   -9.6343    6.8051 H   0  0  0  0  0  0  0  0  0  0  0  0
    2.4926  -10.9267    6.0572 H   0  0  0  0  0  0  0  0  0  0  0  0
    3.1293  -10.4261    3.4207 H   0  0  0  0  0  0  0  0  0  0  0  0
    2.1935  -11.8325    3.8868 H   0  0  0  0  0  0  0  0  0  0  0  0
    1.1809   -9.5892    2.3106 H   0  0  0  0  0  0  0  0  0  0  0  0
    0.3355  -11.0344    2.8232 H   0  0  0  0  0  0  0  0  0  0  0  0
   -0.8838   -9.4529    4.1286 H   0  0  0  0  0  0  0  0  0  0  0  0
    0.3265   -7.4546    3.3770 H   0  0  0  0  0  0  0  0  0  0  0  0
    0.1437   -7.4038    5.0975 H   0  0  0  0  0  0  0  0  0  0  0  0
    2.6614   -8.0292    3.4902 H   0  0  0  0  0  0  0  0  0  0  0  0
    3.0939   -6.3624    5.7216 H   0  0  0  0  0  0  0  0  0  0  0  0
    3.7212   -3.7784    4.6290 H   0  0  0  0  0  0  0  0  0  0  0  0
    1.8019   -4.8126    6.7100 H   0  0  0  0  0  0  0  0  0  0  0  0
    3.4477   -4.2016    6.8776 H   0  0  0  0  0  0  0  0  0  0  0  0
    0.8459   -2.7688    7.0381 H   0  0  0  0  0  0  0  0  0  0  0  0
    2.3912   -2.2501    7.6886 H   0  0  0  0  0  0  0  0  0  0  0  0
    3.1232   -1.4749    5.5326 H   0  0  0  0  0  0  0  0  0  0  0  0
    0.1556   -0.8702    5.4640 H   0  0  0  0  0  0  0  0  0  0  0  0
    1.0452   -0.0775    7.5316 H   0  0  0  0  0  0  0  0  0  0  0  0
    2.3577    0.7696    6.7512 H   0  0  0  0  0  0  0  0  0  0  0  0
   -0.6500    1.3251    6.5329 H   0  0  0  0  0  0  0  0  0  0  0  0
    0.5219    2.3451    7.3003 H   0  0  0  0  0  0  0  0  0  0  0  0
   -0.3862    3.7575    4.1847 H   0  0  0  0  0  0  0  0  0  0  0  0
    1.9482    3.8978    5.9592 H   0  0  0  0  0  0  0  0  0  0  0  0
    2.7792    2.5236    5.2906 H   0  0  0  0  0  0  0  0  0  0  0  0
    1.4083    4.7401    3.6947 H   0  0  0  0  0  0  0  0  0  0  0  0
    3.5546    5.0159    2.9902 H   0  0  0  0  0  0  0  0  0  0  0  0
    2.1954    3.5925    1.6838 H   0  0  0  0  0  0  0  0  0  0  0  0
    2.9155    2.3143    2.6152 H   0  0  0  0  0  0  0  0  0  0  0  0
   -0.0512    3.0089    2.5037 H   0  0  0  0  0  0  0  0  0  0  0  0
    0.6589    1.6456    1.6932 H   0  0  0  0  0  0  0  0  0  0  0  0
   -1.1625    0.2519    2.9173 H   0  0  0  0  0  0  0  0  0  0  0  0
   -1.7240    1.7257    3.6336 H   0  0  0  0  0  0  0  0  0  0  0  0
   -1.3486    0.3627    4.6471 H   0  0  0  0  0  0  0  0  0  0  0  0
    2.4624    0.5839    4.0986 H   0  0  0  0  0  0  0  0  0  0  0  0
    0.4339   -1.1083    2.5994 H   0  0  0  0  0  0  0  0  0  0  0  0
    1.4927   -0.5926    0.9481 H   0  0  0  0  0  0  0  0  0  0  0  0
    2.1490   -2.7809    2.2545 H   0  0  0  0  0  0  0  0  0  0  0  0
    3.3290   -1.8557    3.1417 H   0  0  0  0  0  0  0  0  0  0  0  0
   -0.3764   -2.3505    4.1783 H   0  0  0  0  0  0  0  0  0  0  0  0
   -0.0394   -3.7492    5.1593 H   0  0  0  0  0  0  0  0  0  0  0  0
    0.2097   -3.8105    3.4304 H   0  0  0  0  0  0  0  0  0  0  0  0
    2.5844   -8.4548    6.5014 H   0  0  0  0  0  0  0  0  0  0  0  0
    3.8242   -8.9186    5.3799 H   0  0  0  0  0  0  0  0  0  0  0  0
    0.2584  -11.0504    5.4173 H   0  0  0  0  0  0  0  0  0  0  0  0
  1  2  1  0
  1 35  1  0
  1 36  1  0
  1 37  1  0
  2  6  1  0
  2  3  1  0
  2 81  1  6
  3 34  1  0
  3  4  1  0
  3 38  1  1
  4  5  1  0
  4 39  1  0
  4 40  1  0
  5  6  1  0
  5 41  1  0
  5 42  1  0
  6  7  1  0
  6 43  1  6
  7  8  1  0
  7 44  1  0
  7 45  1  0
  8  9  1  0
  8 34  1  0
  8 46  1  6
  9 10  1  0
  9 47  1  0
 10 11  2  0
 10 12  1  0
 12 32  1  0
 12 13  1  0
 12 48  1  1
 13 14  1  0
 13 49  1  0
 13 50  1  0
 14 15  1  0
 14 51  1  0
 14 52  1  0
 15 32  1  0
 15 16  1  0
 15 53  1  6
 16 28  1  0
 16 17  1  0
 16 54  1  6
 17 18  1  0
 17 55  1  0
 17 56  1  0
 18 19  1  0
 18 57  1  0
 18 58  1  0
 19 26  1  0
 19 20  1  6
 19 21  1  0
 20 59  1  0
 21 22  1  0
 21 60  1  0
 21 61  1  0
 22 23  1  0
 22 24  1  0
 22 62  1  6
 23 63  1  0
 24 25  1  0
 24 64  1  0
 24 65  1  0
 25 26  1  0
 25 66  1  0
 25 67  1  0
 26 27  1  6
 26 28  1  0
 27 68  1  0
 27 69  1  0
 27 70  1  0
 28 29  1  0
 28 71  1  1
 29 30  1  0
 29 31  1  0
 29 72  1  6
 30 73  1  0
 31 32  1  0
 31 74  1  0
 31 75  1  0
 32 33  1  6
 33 76  1  0
 33 77  1  0
 33 78  1  0
 34 79  1  0
 34 80  1  0
M  CHG  1   2   1
M  END
>  <i_m_ct_stereo_status>  (102) 
1

>  <s_m_source_file>  (102) 
/var/tmp/pbs.5076255.sched01/tmp5vb4dkz1/0x5hafel7.sdf

>  <i_m_source_file_index>  (102) 
38

>  <i_lp_mmshare_version>  (102) 
48012

>  <i_f3d_flags>  (102) 
0

>  <s_epik_input>  (102) 
W0NIM11OKFtDQEBIXTEyKVtDQEhdKFtDSDJdW0NIMl0xKVtDSDJdW0NASF0oW0NIMl0yKVtOSF1DKD1PKVtDQEhdKFtDSDJdW0NIMl0zKVtDQF0oW0NIM10pKFtDSDJdW0NAQEhdNFtPSF0pW0NASF0zW0NAQEhdKFtDSDJdW0NIMl01KVtDQEBIXTRbQ0BAXShbQ0gzXSkoW0NAQF01NltPSF0pW0NIMl1bQ0gyXVtDQEBIXShbQ0gyXTYpW09IXQ==

>  <s_epik_cmdline>  (102) 
J2VwaWtfcHl0aG9uJywgJy1waHQnLCAnMi4wJywgJy1waCcsICc3LjAnLCAnLXRuJywgJzgnLCAnLW1hJywgJzIwMCcsICctaW1hZScsICc8aW5maWxlLm1hZT4nLCAnLW9tYWUnLCAnPG91dGZpbGUubWFlPic=

>  <r_epik_Ionization_Penalty>  (102) 
0.00313089

>  <r_epik_Ionization_Penalty_Charging>  (102) 
0.00312544

>  <r_epik_Ionization_Penalty_Neutral>  (102) 
5.44492e-06

>  <r_epik_State_Penalty>  (102) 
0.00220056

>  <r_epik_Charging_Adjusted_Penalty>  (102) 
0.005326

>  <i_epik_Tot_Q>  (102) 
1

>  <i_epik_Tot_abs_Q>  (102) 
1

>  <s_lp_Force_Field>  (102) 
OPLS3e

>  <r_lp_Energy>  (102) 
78.6365

>  <b_lp_Chiralities_Consistent>  (102) 
1

>  <s_lp_Variant>  (102) 
23:0-1

>  <s_i_glide_gridfile>  (102) 
pfpi4k_grid

>  <i_i_glide_lignum>  (102) 
38

>  <i_i_glide_rotatable_bonds>  (102) 
6

>  <r_i_docking_score>  (102) 
-2.55864

>  <r_i_glide_ligand_efficiency>  (102) 
-0.0752542

>  <r_i_glide_ligand_efficiency_sa>  (102) 
-0.243794

>  <r_i_glide_ligand_efficiency_ln>  (102) 
-0.565276

>  <r_i_glide_gscore>  (102) 
-2.55864

>  <r_i_glide_lipo>  (102) 
-0.126908

>  <r_i_glide_hbond>  (102) 
-0.16

>  <r_i_glide_metal>  (102) 
-0

>  <r_i_glide_rewards>  (102) 
-0.165792

>  <r_i_glide_evdw>  (102) 
-21.927

>  <r_i_glide_ecoul>  (102) 
-7.96355

>  <r_i_glide_erotb>  (102) 
0.268402

>  <r_i_glide_esite>  (102) 
-0.0834619

>  <r_i_glide_emodel>  (102) 
-34.118

>  <r_i_glide_energy>  (102) 
-29.8905

>  <r_i_glide_einternal>  (102) 
4.22715

>  <r_i_glide_intrahb_reward>  (102) 
-0

>  <i_i_glide_confnum>  (102) 
1

>  <i_i_glide_posenum>  (102) 
18

>  <r_i_glide_eff_state_penalty>  (102) 
0

>  <ligand_id>  (102) 
23

>  <original_smiles>  (102) 
CN1C2CCC1CC(NC(=O)C1CCC3C4CCC5(O)CC(O)CCC5(C)C4C(O)CC13C)C2

>  <smiles>  (102) 
[H]OC1([H])C([H])([H])C([H])([H])C2(C([H])([H])[H])C3([H])C([H])(O[H])C([H])([H])C4(C([H])([H])[H])C([H])(C(=O)N([H])C5([H])C([H])([H])C6([H])C([H])([H])C([H])([H])C([H])(C5([H])[H])[N+]6([H])C([H])([H])[H])C([H])([H])C([H])([H])C4([H])C3([H])C([H])([H])C([H])([H])C2(O[H])C1([H])[H]

$$$$
23:0:2
     RDKit          3D

 81 86  0  0  1  0  0  0  0  0999 V2000
    3.9532   -7.5012    4.7498 C   0  0  0  0  0  0  0  0  0  0  0  0
    3.6468   -8.2883    3.5281 N   0  0  2  0  0  0  0  0  0  0  0  0
    4.5160   -8.1056    2.3392 C   0  0  1  0  0  0  0  0  0  0  0  0
    3.8738   -9.0524    1.3226 C   0  0  0  0  0  0  0  0  0  0  0  0
    2.3862   -9.1077    1.7320 C   0  0  0  0  0  0  0  0  0  0  0  0
    2.2832   -8.1902    2.9568 C   0  0  2  0  0  0  0  0  0  0  0  0
    1.9704   -6.7358    2.5395 C   0  0  0  0  0  0  0  0  0  0  0  0
    3.0054   -6.1873    1.5150 C   0  0  1  0  0  0  0  0  0  0  0  0
    2.8851   -4.7270    1.3716 N   0  0  0  0  0  0  0  0  0  0  0  0
    3.1770   -3.8374    2.3030 C   0  0  0  0  0  0  0  0  0  0  0  0
    3.6725   -4.1666    3.4141 O   0  0  0  0  0  0  0  0  0  0  0  0
    2.9270   -2.3319    2.0551 C   0  0  2  0  0  0  0  0  0  0  0  0
    4.2441   -1.5999    1.6963 C   0  0  0  0  0  0  0  0  0  0  0  0
    4.1291   -0.2054    2.3326 C   0  0  0  0  0  0  0  0  0  0  0  0
    2.6567   -0.0782    2.7468 C   0  0  2  0  0  0  0  0  0  0  0  0
    2.2743    0.9679    3.8195 C   0  0  1  0  0  0  0  0  0  0  0  0
    2.7062    2.4022    3.4609 C   0  0  0  0  0  0  0  0  0  0  0  0
    2.3700    3.3849    4.5943 C   0  0  0  0  0  0  0  0  0  0  0  0
    0.8846    3.3356    4.9893 C   0  0  1  0  0  0  0  0  0  0  0  0
    0.7974    4.1923    6.1035 O   0  0  0  0  0  0  0  0  0  0  0  0
    0.0060    3.9906    3.8969 C   0  0  0  0  0  0  0  0  0  0  0  0
   -1.4872    3.9785    4.2596 C   0  0  1  0  0  0  0  0  0  0  0  0
   -2.2252    4.5407    3.1917 O   0  0  0  0  0  0  0  0  0  0  0  0
   -1.9695    2.5548    4.5718 C   0  0  0  0  0  0  0  0  0  0  0  0
   -1.1185    1.9425    5.7020 C   0  0  0  0  0  0  0  0  0  0  0  0
    0.4041    1.8830    5.3728 C   0  0  2  0  0  0  0  0  0  0  0  0
    1.1171    1.4086    6.6841 C   0  0  0  0  0  0  0  0  0  0  0  0
    0.7440    0.8808    4.1889 C   0  0  2  0  0  0  0  0  0  0  0  0
    0.2675   -0.6131    4.4037 C   0  0  1  0  0  0  0  0  0  0  0  0
   -1.1511   -0.7281    4.4405 O   0  0  0  0  0  0  0  0  0  0  0  0
    0.7919   -1.5992    3.3365 C   0  0  0  0  0  0  0  0  0  0  0  0
    2.3143   -1.4936    3.2274 C   0  0  1  0  0  0  0  0  0  0  0  0
    2.9693   -1.8445    4.6137 C   0  0  0  0  0  0  0  0  0  0  0  0
    4.4676   -6.6441    1.8457 C   0  0  0  0  0  0  0  0  0  0  0  0
    3.8506   -6.4139    4.6239 H   0  0  0  0  0  0  0  0  0  0  0  0
    4.9800   -7.6700    5.0942 H   0  0  0  0  0  0  0  0  0  0  0  0
    3.2909   -7.7725    5.5811 H   0  0  0  0  0  0  0  0  0  0  0  0
    5.5426   -8.4023    2.5747 H   0  0  0  0  0  0  0  0  0  0  0  0
    4.0298   -8.7154    0.2921 H   0  0  0  0  0  0  0  0  0  0  0  0
    4.3143  -10.0458    1.4040 H   0  0  0  0  0  0  0  0  0  0  0  0
    1.7143   -8.7911    0.9285 H   0  0  0  0  0  0  0  0  0  0  0  0
    2.1159  -10.1311    1.9965 H   0  0  0  0  0  0  0  0  0  0  0  0
    1.5451   -8.5585    3.6781 H   0  0  0  0  0  0  0  0  0  0  0  0
    0.9643   -6.6903    2.1098 H   0  0  0  0  0  0  0  0  0  0  0  0
    1.9114   -6.1378    3.4435 H   0  0  0  0  0  0  0  0  0  0  0  0
    2.7601   -6.5975    0.5464 H   0  0  0  0  0  0  0  0  0  0  0  0
    2.5659   -4.3745    0.4567 H   0  0  0  0  0  0  0  0  0  0  0  0
    2.2588   -2.2520    1.1902 H   0  0  0  0  0  0  0  0  0  0  0  0
    5.1265   -2.1200    2.0734 H   0  0  0  0  0  0  0  0  0  0  0  0
    4.3411   -1.5231    0.6144 H   0  0  0  0  0  0  0  0  0  0  0  0
    4.7818   -0.1353    3.2027 H   0  0  0  0  0  0  0  0  0  0  0  0
    4.4506    0.5537    1.6160 H   0  0  0  0  0  0  0  0  0  0  0  0
    2.1016    0.1437    1.8341 H   0  0  0  0  0  0  0  0  0  0  0  0
    2.8885    0.7457    4.6848 H   0  0  0  0  0  0  0  0  0  0  0  0
    3.7902    2.4096    3.3494 H   0  0  0  0  0  0  0  0  0  0  0  0
    2.2818    2.7344    2.5092 H   0  0  0  0  0  0  0  0  0  0  0  0
    2.9961    3.1620    5.4585 H   0  0  0  0  0  0  0  0  0  0  0  0
    2.6562    4.4001    4.3003 H   0  0  0  0  0  0  0  0  0  0  0  0
    1.2280    3.7846    6.8305 H   0  0  0  0  0  0  0  0  0  0  0  0
    0.3183    5.0237    3.7168 H   0  0  0  0  0  0  0  0  0  0  0  0
    0.1350    3.4851    2.9379 H   0  0  0  0  0  0  0  0  0  0  0  0
   -1.6592    4.5897    5.1419 H   0  0  0  0  0  0  0  0  0  0  0  0
   -1.9329    4.1438    2.3833 H   0  0  0  0  0  0  0  0  0  0  0  0
   -3.0136    2.5954    4.8851 H   0  0  0  0  0  0  0  0  0  0  0  0
   -1.9519    1.9366    3.6714 H   0  0  0  0  0  0  0  0  0  0  0  0
   -1.2679    2.5844    6.5767 H   0  0  0  0  0  0  0  0  0  0  0  0
   -1.5145    0.9547    5.9709 H   0  0  0  0  0  0  0  0  0  0  0  0
    0.8216    0.3933    6.9981 H   0  0  0  0  0  0  0  0  0  0  0  0
    0.8859    2.0511    7.5484 H   0  0  0  0  0  0  0  0  0  0  0  0
    2.2114    1.3875    6.6118 H   0  0  0  0  0  0  0  0  0  0  0  0
    0.2195    1.2213    3.2936 H   0  0  0  0  0  0  0  0  0  0  0  0
    0.5910   -0.9894    5.3706 H   0  0  0  0  0  0  0  0  0  0  0  0
   -1.5205   -0.1563    3.7932 H   0  0  0  0  0  0  0  0  0  0  0  0
    0.4926   -2.6143    3.5956 H   0  0  0  0  0  0  0  0  0  0  0  0
    0.3348   -1.3664    2.3808 H   0  0  0  0  0  0  0  0  0  0  0  0
    2.7723   -1.1260    5.4276 H   0  0  0  0  0  0  0  0  0  0  0  0
    4.0613   -1.9161    4.5587 H   0  0  0  0  0  0  0  0  0  0  0  0
    2.6258   -2.8316    4.9768 H   0  0  0  0  0  0  0  0  0  0  0  0
    4.9765   -6.0622    2.6093 H   0  0  0  0  0  0  0  0  0  0  0  0
    5.1014   -6.5251    0.9607 H   0  0  0  0  0  0  0  0  0  0  0  0
    3.7512   -9.2666    3.7729 H   0  0  0  0  0  0  0  0  0  0  0  0
  1  2  1  0
  1 35  1  0
  1 36  1  0
  1 37  1  0
  2  6  1  0
  2  3  1  0
  2 81  1  1
  3 34  1  0
  3  4  1  0
  3 38  1  1
  4  5  1  0
  4 39  1  0
  4 40  1  0
  5  6  1  0
  5 41  1  0
  5 42  1  0
  6  7  1  0
  6 43  1  1
  7  8  1  0
  7 44  1  0
  7 45  1  0
  8  9  1  0
  8 34  1  0
  8 46  1  6
  9 10  1  0
  9 47  1  0
 10 11  2  0
 10 12  1  0
 12 32  1  0
 12 13  1  0
 12 48  1  6
 13 14  1  0
 13 49  1  0
 13 50  1  0
 14 15  1  0
 14 51  1  0
 14 52  1  0
 15 32  1  0
 15 16  1  0
 15 53  1  6
 16 28  1  0
 16 17  1  0
 16 54  1  1
 17 18  1  0
 17 55  1  0
 17 56  1  0
 18 19  1  0
 18 57  1  0
 18 58  1  0
 19 26  1  0
 19 20  1  1
 19 21  1  0
 20 59  1  0
 21 22  1  0
 21 60  1  0
 21 61  1  0
 22 23  1  0
 22 24  1  0
 22 62  1  1
 23 63  1  0
 24 25  1  0
 24 64  1  0
 24 65  1  0
 25 26  1  0
 25 66  1  0
 25 67  1  0
 26 27  1  1
 26 28  1  0
 27 68  1  0
 27 69  1  0
 27 70  1  0
 28 29  1  0
 28 71  1  6
 29 30  1  0
 29 31  1  0
 29 72  1  1
 30 73  1  0
 31 32  1  0
 31 74  1  0
 31 75  1  0
 32 33  1  1
 33 76  1  0
 33 77  1  0
 33 78  1  0
 34 79  1  0
 34 80  1  0
M  CHG  1   2   1
M  END
>  <i_m_ct_stereo_status>  (103) 
1

>  <s_m_source_file>  (103) 
/var/tmp/pbs.5076255.sched01/tmp5vb4dkz1/0x5hafel7.sdf

>  <i_m_source_file_index>  (103) 
38

>  <i_lp_mmshare_version>  (103) 
48012

>  <i_f3d_flags>  (103) 
0

>  <s_epik_input>  (103) 
W0NIM11OKFtDQEBIXTEyKVtDQEhdKFtDSDJdW0NIMl0xKVtDSDJdW0NASF0oW0NIMl0yKVtOSF1DKD1PKVtDQEhdKFtDSDJdW0NIMl0zKVtDQF0oW0NIM10pKFtDSDJdW0NAQEhdNFtPSF0pW0NASF0zW0NAQEhdKFtDSDJdW0NIMl01KVtDQEBIXTRbQ0BAXShbQ0gzXSkoW0NAQF01NltPSF0pW0NIMl1bQ0gyXVtDQEBIXShbQ0gyXTYpW09IXQ==

>  <s_epik_cmdline>  (103) 
J2VwaWtfcHl0aG9uJywgJy1waHQnLCAnMi4wJywgJy1waCcsICc3LjAnLCAnLXRuJywgJzgnLCAnLW1hJywgJzIwMCcsICctaW1hZScsICc8aW5maWxlLm1hZT4nLCAnLW9tYWUnLCAnPG91dGZpbGUubWFlPic=

>  <r_epik_Ionization_Penalty>  (103) 
0.00313089

>  <r_epik_Ionization_Penalty_Charging>  (103) 
0.00312544

>  <r_epik_Ionization_Penalty_Neutral>  (103) 
5.44492e-06

>  <r_epik_State_Penalty>  (103) 
0.00220056

>  <r_epik_Charging_Adjusted_Penalty>  (103) 
0.005326

>  <i_epik_Tot_Q>  (103) 
1

>  <i_epik_Tot_abs_Q>  (103) 
1

>  <s_lp_Force_Field>  (103) 
OPLS3e

>  <r_lp_Energy>  (103) 
78.6365

>  <b_lp_Chiralities_Consistent>  (103) 
1

>  <s_lp_Variant>  (103) 
23:0-1

>  <s_i_glide_gridfile>  (103) 
pfpi4k_grid

>  <i_i_glide_lignum>  (103) 
38

>  <i_i_glide_rotatable_bonds>  (103) 
6

>  <r_i_docking_score>  (103) 
-2.53176

>  <r_i_glide_ligand_efficiency>  (103) 
-0.0744637

>  <r_i_glide_ligand_efficiency_sa>  (103) 
-0.241233

>  <r_i_glide_ligand_efficiency_ln>  (103) 
-0.559338

>  <r_i_glide_gscore>  (103) 
-2.53176

>  <r_i_glide_lipo>  (103) 
-0.130838

>  <r_i_glide_hbond>  (103) 
-0.16

>  <r_i_glide_metal>  (103) 
-0

>  <r_i_glide_rewards>  (103) 
-0.166096

>  <r_i_glide_evdw>  (103) 
-21.5356

>  <r_i_glide_ecoul>  (103) 
-8.38541

>  <r_i_glide_erotb>  (103) 
0.268402

>  <r_i_glide_esite>  (103) 
-0.00864082

>  <r_i_glide_emodel>  (103) 
-34.3258

>  <r_i_glide_energy>  (103) 
-29.921

>  <r_i_glide_einternal>  (103) 
3.27129

>  <r_i_glide_intrahb_reward>  (103) 
-0

>  <i_i_glide_confnum>  (103) 
2

>  <i_i_glide_posenum>  (103) 
4

>  <r_i_glide_eff_state_penalty>  (103) 
0

>  <ligand_id>  (103) 
23

>  <original_smiles>  (103) 
CN1C2CCC1CC(NC(=O)C1CCC3C4CCC5(O)CC(O)CCC5(C)C4C(O)CC13C)C2

>  <smiles>  (103) 
[H]OC1([H])C([H])([H])C([H])([H])C2(C([H])([H])[H])C3([H])C([H])(O[H])C([H])([H])C4(C([H])([H])[H])C([H])(C(=O)N([H])C5([H])C([H])([H])C6([H])C([H])([H])C([H])([H])C([H])(C5([H])[H])[N+]6([H])C([H])([H])[H])C([H])([H])C([H])([H])C4([H])C3([H])C([H])([H])C([H])([H])C2(O[H])C1([H])[H]

$$$$
26:0:0
     RDKit          3D

 63 69  0  0  1  0  0  0  0  0999 V2000
    2.4653   -3.1751    5.9696 C   0  0  0  0  0  0  0  0  0  0  0  0
    2.6799   -3.2492    4.6425 C   0  0  0  0  0  0  0  0  0  0  0  0
    1.8703   -2.5248    3.6522 C   0  0  0  0  0  0  0  0  0  0  0  0
    1.0006   -1.6875    3.8859 O   0  0  0  0  0  0  0  0  0  0  0  0
    2.2785   -2.9142    2.4279 O   0  0  0  0  0  0  0  0  0  0  0  0
    3.0867   -4.0795    2.4768 C   0  0  2  0  0  0  0  0  0  0  0  0
    3.7371   -3.9814    3.8553 C   0  0  2  0  0  0  0  0  0  0  0  0
    4.4831   -5.3010    4.2950 C   0  0  2  0  0  0  0  0  0  0  0  0
    5.1126   -4.8893    5.5001 O   0  0  0  0  0  0  0  0  0  0  0  0
    5.6655   -5.5019    3.2398 C   0  0  1  0  0  0  0  0  0  0  0  0
    6.0264   -6.9632    2.9764 C   0  0  0  0  0  0  0  0  0  0  0  0
    4.7936   -7.7759    2.7021 C   0  0  0  0  0  0  0  0  0  0  0  0
    3.6547   -7.6483    3.4104 C   0  0  0  0  0  0  0  0  0  0  0  0
    2.4323   -8.5765    3.1352 C   0  0  1  0  0  0  0  0  0  0  0  0
    1.6838   -8.0579    1.8984 C   0  0  0  0  0  0  0  0  0  0  0  0
    2.9046  -10.0026    2.8250 C   0  0  0  0  0  0  0  0  0  0  0  0
    2.3590  -11.1414    3.2816 C   0  0  0  0  0  0  0  0  0  0  0  0
    1.1571  -11.1241    4.1021 C   0  0  0  0  0  0  0  0  0  0  0  0
    0.6195  -12.1578    4.4813 O   0  0  0  0  0  0  0  0  0  0  0  0
    0.4785   -9.7952    4.4002 C   0  0  0  0  0  0  0  0  0  0  0  0
    1.4140   -8.5951    4.2859 C   0  0  0  0  0  0  0  0  0  0  0  0
    1.3109   -7.5675    5.1435 C   0  0  0  0  0  0  0  0  0  0  0  0
    0.3892   -7.6053    6.1220 F   0  0  0  0  0  0  0  0  0  0  0  0
    2.1756   -6.3376    5.0234 C   0  0  0  0  0  0  0  0  0  0  0  0
    3.6327   -6.6483    4.5999 C   0  0  2  0  0  0  0  0  0  0  0  0
    4.2509   -7.4264    5.8014 C   0  0  0  0  0  0  0  0  0  0  0  0
    5.5053   -4.6510    1.9290 C   0  0  1  0  0  0  0  0  0  0  0  0
    6.4237   -4.7981    0.7035 C   0  0  0  0  0  0  0  0  0  0  0  0
    5.7914   -3.8424   -0.2893 C   0  0  1  0  0  0  0  0  0  0  0  0
    4.7056   -4.3101   -1.0827 O   0  0  0  0  0  0  0  0  0  0  0  0
    4.3358   -3.6086    0.1146 C   0  0  2  0  0  0  0  0  0  0  0  0
    3.6981   -2.2423   -0.0418 C   0  0  0  0  0  0  0  0  0  0  0  0
    4.0862   -4.4641    1.3573 C   0  0  2  0  0  0  0  0  0  0  0  0
    3.5819   -5.6764    0.8318 O   0  0  0  0  0  0  0  0  0  0  0  0
    3.0878   -3.6950    6.6820 H   0  0  0  0  0  0  0  0  0  0  0  0
    1.6566   -2.5739    6.3602 H   0  0  0  0  0  0  0  0  0  0  0  0
    2.3614   -4.8858    2.5293 H   0  0  0  0  0  0  0  0  0  0  0  0
    4.4953   -3.1934    3.8247 H   0  0  0  0  0  0  0  0  0  0  0  0
    5.6632   -5.5967    5.8083 H   0  0  0  0  0  0  0  0  0  0  0  0
    6.5758   -5.0909    3.6809 H   0  0  0  0  0  0  0  0  0  0  0  0
    6.7227   -7.0602    2.1468 H   0  0  0  0  0  0  0  0  0  0  0  0
    6.5406   -7.3914    3.8379 H   0  0  0  0  0  0  0  0  0  0  0  0
    4.8934   -8.4744    1.8857 H   0  0  0  0  0  0  0  0  0  0  0  0
    0.8037   -8.6690    1.6845 H   0  0  0  0  0  0  0  0  0  0  0  0
    2.3225   -8.0834    1.0156 H   0  0  0  0  0  0  0  0  0  0  0  0
    1.3439   -7.0304    2.0448 H   0  0  0  0  0  0  0  0  0  0  0  0
    3.7318  -10.1227    2.1452 H   0  0  0  0  0  0  0  0  0  0  0  0
    2.7362  -12.1042    2.9724 H   0  0  0  0  0  0  0  0  0  0  0  0
   -0.3541   -9.6800    3.7073 H   0  0  0  0  0  0  0  0  0  0  0  0
    0.0488   -9.8510    5.4001 H   0  0  0  0  0  0  0  0  0  0  0  0
    1.6714   -5.7159    4.2930 H   0  0  0  0  0  0  0  0  0  0  0  0
    2.1534   -5.8134    5.9784 H   0  0  0  0  0  0  0  0  0  0  0  0
    4.1137   -6.9009    6.7486 H   0  0  0  0  0  0  0  0  0  0  0  0
    5.3165   -7.6147    5.6811 H   0  0  0  0  0  0  0  0  0  0  0  0
    3.7820   -8.4019    5.9242 H   0  0  0  0  0  0  0  0  0  0  0  0
    5.8011   -3.6527    2.2571 H   0  0  0  0  0  0  0  0  0  0  0  0
    7.4548   -4.5132    0.9137 H   0  0  0  0  0  0  0  0  0  0  0  0
    6.4141   -5.8082    0.2848 H   0  0  0  0  0  0  0  0  0  0  0  0
    6.3946   -3.0550   -0.7361 H   0  0  0  0  0  0  0  0  0  0  0  0
    3.9531   -1.5986    0.8033 H   0  0  0  0  0  0  0  0  0  0  0  0
    2.6134   -2.3304   -0.1091 H   0  0  0  0  0  0  0  0  0  0  0  0
    4.0540   -1.7662   -0.9523 H   0  0  0  0  0  0  0  0  0  0  0  0
    4.0224   -5.8306    0.0023 H   0  0  0  0  0  0  0  0  0  0  0  0
  1  2  2  0
  1 35  1  0
  1 36  1  0
  2  7  1  0
  2  3  1  0
  3  4  2  0
  3  5  1  0
  5  6  1  0
  6 33  1  0
  6  7  1  0
  6 37  1  1
  7  8  1  0
  7 38  1  6
  8 25  1  0
  8  9  1  1
  8 10  1  0
  9 39  1  0
 10 11  1  0
 10 27  1  0
 10 40  1  1
 11 12  1  0
 11 41  1  0
 11 42  1  0
 12 13  2  0
 12 43  1  0
 13 25  1  0
 13 14  1  0
 14 21  1  0
 14 15  1  6
 14 16  1  0
 15 44  1  0
 15 45  1  0
 15 46  1  0
 16 17  2  0
 16 47  1  0
 17 18  1  0
 17 48  1  0
 18 19  2  0
 18 20  1  0
 20 21  1  0
 20 49  1  0
 20 50  1  0
 21 22  2  0
 22 23  1  0
 22 24  1  0
 24 25  1  0
 24 51  1  0
 24 52  1  0
 25 26  1  1
 26 53  1  0
 26 54  1  0
 26 55  1  0
 27 33  1  0
 27 28  1  0
 27 56  1  1
 28 29  1  0
 28 57  1  0
 28 58  1  0
 29 31  1  0
 29 30  1  0
 29 59  1  6
 30 31  1  0
 31 32  1  6
 31 33  1  0
 32 60  1  0
 32 61  1  0
 32 62  1  0
 33 34  1  6
 34 63  1  0
M  END
>  <i_m_ct_stereo_status>  (104) 
1

>  <s_m_source_file>  (104) 
/var/tmp/pbs.5076255.sched01/tmp5vb4dkz1/0x5hafel7.sdf

>  <i_m_source_file_index>  (104) 
41

>  <i_lp_mmshare_version>  (104) 
48012

>  <i_f3d_flags>  (104) 
0

>  <s_epik_input>  (104) 
W0NIMl09QzFDKD1PKU9bQ0BIXShbQ0BASF0xW0NAXTIzW09IXSlbQ0BdNChbT0hdKVtDQEhdKFtDSDJdW0NAQEhdNVtDQF00KE81KVtDSDNdKVtDQEBIXTJbQ0gyXVtDSF09QzZbQ0BdNyhbQ0gzXSlDKFtDSDJdQyg9TylbQ0hdPVtDSF03KT1DKEYpW0NIMl1bQ0BdMzZbQ0gzXQ==

>  <s_epik_cmdline>  (104) 
J2VwaWtfcHl0aG9uJywgJy1waHQnLCAnMi4wJywgJy1waCcsICc3LjAnLCAnLXRuJywgJzgnLCAnLW1hJywgJzIwMCcsICctaW1hZScsICc8aW5maWxlLm1hZT4nLCAnLW9tYWUnLCAnPG91dGZpbGUubWFlPic=

>  <r_lp_tautomer_probability>  (104) 
1

>  <r_epik_Ionization_Penalty>  (104) 
1.57088e-06

>  <r_epik_Ionization_Penalty_Charging>  (104) 
0

>  <r_epik_Ionization_Penalty_Neutral>  (104) 
1.57088e-06

>  <r_epik_State_Penalty>  (104) 
-0

>  <r_epik_Charging_Adjusted_Penalty>  (104) 
0

>  <i_epik_Tot_Q>  (104) 
0

>  <i_epik_Tot_abs_Q>  (104) 
0

>  <s_epik_Chemistry_Notes>  (104) 
This compound has an ester and may undergo hydrolysis at high or low pH.

>  <s_lp_Force_Field>  (104) 
OPLS3e

>  <r_lp_Energy>  (104) 
99.6233

>  <b_lp_Chiralities_Consistent>  (104) 
1

>  <s_lp_Variant>  (104) 
26:0-1

>  <s_i_glide_gridfile>  (104) 
pfpi4k_grid

>  <i_i_glide_lignum>  (104) 
41

>  <i_i_glide_rotatable_bonds>  (104) 
2

>  <r_i_docking_score>  (104) 
-2.161

>  <r_i_glide_ligand_efficiency>  (104) 
-0.0635588

>  <r_i_glide_ligand_efficiency_sa>  (104) 
-0.205906

>  <r_i_glide_ligand_efficiency_ln>  (104) 
-0.477425

>  <r_i_glide_gscore>  (104) 
-2.161

>  <r_i_glide_lipo>  (104) 
-0.30777

>  <r_i_glide_hbond>  (104) 
0

>  <r_i_glide_metal>  (104) 
-0

>  <r_i_glide_rewards>  (104) 
-0.414969

>  <r_i_glide_evdw>  (104) 
-29.0344

>  <r_i_glide_ecoul>  (104) 
0.216084

>  <r_i_glide_erotb>  (104) 
0

>  <r_i_glide_esite>  (104) 
-0.0189545

>  <r_i_glide_emodel>  (104) 
-31.6244

>  <r_i_glide_energy>  (104) 
-28.8183

>  <r_i_glide_einternal>  (104) 
0.157766

>  <r_i_glide_intrahb_reward>  (104) 
-0

>  <i_i_glide_confnum>  (104) 
2

>  <i_i_glide_posenum>  (104) 
16

>  <r_i_glide_eff_state_penalty>  (104) 
0

>  <ligand_id>  (104) 
26

>  <original_smiles>  (104) 
C=C1C(=O)OC2C1C1(O)C(CC=C3C4(C)C=CC(=O)CC4=C(F)CC31C)C1CC3OC3(C)C12O

>  <smiles>  (104) 
[H]OC12C3([H])OC(=O)C(=C([H])[H])C3([H])C3(O[H])C([H])(C([H])([H])C([H])=C4C5(C([H])([H])[H])C([H])=C([H])C(=O)C([H])([H])C5=C(F)C([H])([H])C43C([H])([H])[H])C1([H])C([H])([H])C1([H])OC12C([H])([H])[H]

$$$$
26:0:1
     RDKit          3D

 63 69  0  0  1  0  0  0  0  0999 V2000
    2.4507   -3.1151    5.8909 C   0  0  0  0  0  0  0  0  0  0  0  0
    2.6720   -3.2007    4.5657 C   0  0  0  0  0  0  0  0  0  0  0  0
    1.8652   -2.4861    3.5668 C   0  0  0  0  0  0  0  0  0  0  0  0
    0.9956   -1.6461    3.7871 O   0  0  0  0  0  0  0  0  0  0  0  0
    2.2781   -2.8858    2.3468 O   0  0  0  0  0  0  0  0  0  0  0  0
    3.0850   -4.0522    2.4088 C   0  0  2  0  0  0  0  0  0  0  0  0
    3.7319   -3.9381    3.7880 C   0  0  2  0  0  0  0  0  0  0  0  0
    4.4807   -5.2549    4.2410 C   0  0  2  0  0  0  0  0  0  0  0  0
    5.1084   -4.8435    5.4489 O   0  0  0  0  0  0  0  0  0  0  0  0
    5.6655   -5.4681    3.1911 C   0  0  1  0  0  0  0  0  0  0  0  0
    6.0255   -6.9308    2.9423 C   0  0  0  0  0  0  0  0  0  0  0  0
    4.7956   -7.7455    2.6722 C   0  0  0  0  0  0  0  0  0  0  0  0
    3.6537   -7.6105    3.3777 C   0  0  0  0  0  0  0  0  0  0  0  0
    2.4334   -8.5424    3.1080 C   0  0  1  0  0  0  0  0  0  0  0  0
    1.6874   -8.0356    1.8667 C   0  0  0  0  0  0  0  0  0  0  0  0
    2.9063   -9.9737    2.8099 C   0  0  0  0  0  0  0  0  0  0  0  0
    2.3580  -11.1107    3.2725 C   0  0  0  0  0  0  0  0  0  0  0  0
    1.1534  -11.0869    4.0928 C   0  0  0  0  0  0  0  0  0  0  0  0
    0.6112  -12.1134    4.4792 O   0  0  0  0  0  0  0  0  0  0  0  0
    0.4761   -9.7535    4.3755 C   0  0  0  0  0  0  0  0  0  0  0  0
    1.4103   -8.5516    4.2555 C   0  0  0  0  0  0  0  0  0  0  0  0
    1.3039   -7.5185    5.1011 C   0  0  0  0  0  0  0  0  0  0  0  0
    0.3740   -7.5429    6.0725 F   0  0  0  0  0  0  0  0  0  0  0  0
    2.1675   -6.2857    4.9709 C   0  0  0  0  0  0  0  0  0  0  0  0
    3.6273   -6.5990    4.5548 C   0  0  2  0  0  0  0  0  0  0  0  0
    4.2398   -7.3666    5.7654 C   0  0  0  0  0  0  0  0  0  0  0  0
    5.5082   -4.6273    1.8746 C   0  0  1  0  0  0  0  0  0  0  0  0
    6.4307   -4.7815    0.6540 C   0  0  0  0  0  0  0  0  0  0  0  0
    5.7994   -3.8339   -0.3450 C   0  0  1  0  0  0  0  0  0  0  0  0
    4.7177   -4.3074   -1.1376 O   0  0  0  0  0  0  0  0  0  0  0  0
    4.3424   -3.5961    0.0495 C   0  0  2  0  0  0  0  0  0  0  0  0
    3.6997   -2.2346   -0.1216 C   0  0  0  0  0  0  0  0  0  0  0  0
    4.0904   -4.4440    1.2970 C   0  0  2  0  0  0  0  0  0  0  0  0
    3.5850   -5.6608    0.7805 O   0  0  0  0  0  0  0  0  0  0  0  0
    3.0668   -3.6311    6.6136 H   0  0  0  0  0  0  0  0  0  0  0  0
    1.6378   -2.5127    6.2739 H   0  0  0  0  0  0  0  0  0  0  0  0
    2.3607   -4.8598    2.4681 H   0  0  0  0  0  0  0  0  0  0  0  0
    4.4854   -3.1469    3.7437 H   0  0  0  0  0  0  0  0  0  0  0  0
    5.6125   -4.0613    5.2847 H   0  0  0  0  0  0  0  0  0  0  0  0
    6.5794   -5.0669    3.6328 H   0  0  0  0  0  0  0  0  0  0  0  0
    6.7293   -7.0333    2.1193 H   0  0  0  0  0  0  0  0  0  0  0  0
    6.5364   -7.3450    3.8125 H   0  0  0  0  0  0  0  0  0  0  0  0
    4.8987   -8.4505    1.8645 H   0  0  0  0  0  0  0  0  0  0  0  0
    0.8089   -8.6526    1.6685 H   0  0  0  0  0  0  0  0  0  0  0  0
    2.3239   -8.0711    0.9828 H   0  0  0  0  0  0  0  0  0  0  0  0
    1.3452   -7.0086    1.9999 H   0  0  0  0  0  0  0  0  0  0  0  0
    3.7396  -10.0998    2.1323 H   0  0  0  0  0  0  0  0  0  0  0  0
    2.7382  -12.0742    2.9664 H   0  0  0  0  0  0  0  0  0  0  0  0
   -0.3511   -9.6420    3.6756 H   0  0  0  0  0  0  0  0  0  0  0  0
    0.0400   -9.8027    5.3723 H   0  0  0  0  0  0  0  0  0  0  0  0
    1.6620   -5.6689    4.2365 H   0  0  0  0  0  0  0  0  0  0  0  0
    2.1411   -5.7539    5.9216 H   0  0  0  0  0  0  0  0  0  0  0  0
    4.1023   -6.8303    6.7061 H   0  0  0  0  0  0  0  0  0  0  0  0
    5.3075   -7.5464    5.6511 H   0  0  0  0  0  0  0  0  0  0  0  0
    3.7762   -8.3441    5.8962 H   0  0  0  0  0  0  0  0  0  0  0  0
    5.8009   -3.6264    2.1941 H   0  0  0  0  0  0  0  0  0  0  0  0
    7.4631   -4.4973    0.8664 H   0  0  0  0  0  0  0  0  0  0  0  0
    6.4214   -5.7951    0.2414 H   0  0  0  0  0  0  0  0  0  0  0  0
    6.4040   -3.0565   -0.8040 H   0  0  0  0  0  0  0  0  0  0  0  0
    3.9520   -1.5819    0.7172 H   0  0  0  0  0  0  0  0  0  0  0  0
    2.6153   -2.3237   -0.1916 H   0  0  0  0  0  0  0  0  0  0  0  0
    4.0572   -1.7658   -1.0349 H   0  0  0  0  0  0  0  0  0  0  0  0
    4.0224   -5.8220   -0.0478 H   0  0  0  0  0  0  0  0  0  0  0  0
  1  2  2  0
  1 35  1  0
  1 36  1  0
  2  7  1  0
  2  3  1  0
  3  4  2  0
  3  5  1  0
  5  6  1  0
  6 33  1  0
  6  7  1  0
  6 37  1  1
  7  8  1  0
  7 38  1  6
  8 25  1  0
  8  9  1  1
  8 10  1  0
  9 39  1  0
 10 11  1  0
 10 27  1  0
 10 40  1  1
 11 12  1  0
 11 41  1  0
 11 42  1  0
 12 13  2  0
 12 43  1  0
 13 25  1  0
 13 14  1  0
 14 21  1  0
 14 15  1  6
 14 16  1  0
 15 44  1  0
 15 45  1  0
 15 46  1  0
 16 17  2  0
 16 47  1  0
 17 18  1  0
 17 48  1  0
 18 19  2  0
 18 20  1  0
 20 21  1  0
 20 49  1  0
 20 50  1  0
 21 22  2  0
 22 23  1  0
 22 24  1  0
 24 25  1  0
 24 51  1  0
 24 52  1  0
 25 26  1  1
 26 53  1  0
 26 54  1  0
 26 55  1  0
 27 33  1  0
 27 28  1  0
 27 56  1  1
 28 29  1  0
 28 57  1  0
 28 58  1  0
 29 31  1  0
 29 30  1  0
 29 59  1  6
 30 31  1  0
 31 32  1  6
 31 33  1  0
 32 60  1  0
 32 61  1  0
 32 62  1  0
 33 34  1  6
 34 63  1  0
M  END
>  <i_m_ct_stereo_status>  (105) 
1

>  <s_m_source_file>  (105) 
/var/tmp/pbs.5076255.sched01/tmp5vb4dkz1/0x5hafel7.sdf

>  <i_m_source_file_index>  (105) 
41

>  <i_lp_mmshare_version>  (105) 
48012

>  <i_f3d_flags>  (105) 
0

>  <s_epik_input>  (105) 
W0NIMl09QzFDKD1PKU9bQ0BIXShbQ0BASF0xW0NAXTIzW09IXSlbQ0BdNChbT0hdKVtDQEhdKFtDSDJdW0NAQEhdNVtDQF00KE81KVtDSDNdKVtDQEBIXTJbQ0gyXVtDSF09QzZbQ0BdNyhbQ0gzXSlDKFtDSDJdQyg9TylbQ0hdPVtDSF03KT1DKEYpW0NIMl1bQ0BdMzZbQ0gzXQ==

>  <s_epik_cmdline>  (105) 
J2VwaWtfcHl0aG9uJywgJy1waHQnLCAnMi4wJywgJy1waCcsICc3LjAnLCAnLXRuJywgJzgnLCAnLW1hJywgJzIwMCcsICctaW1hZScsICc8aW5maWxlLm1hZT4nLCAnLW9tYWUnLCAnPG91dGZpbGUubWFlPic=

>  <r_lp_tautomer_probability>  (105) 
1

>  <r_epik_Ionization_Penalty>  (105) 
1.57088e-06

>  <r_epik_Ionization_Penalty_Charging>  (105) 
0

>  <r_epik_Ionization_Penalty_Neutral>  (105) 
1.57088e-06

>  <r_epik_State_Penalty>  (105) 
-0

>  <r_epik_Charging_Adjusted_Penalty>  (105) 
0

>  <i_epik_Tot_Q>  (105) 
0

>  <i_epik_Tot_abs_Q>  (105) 
0

>  <s_epik_Chemistry_Notes>  (105) 
This compound has an ester and may undergo hydrolysis at high or low pH.

>  <s_lp_Force_Field>  (105) 
OPLS3e

>  <r_lp_Energy>  (105) 
99.6233

>  <b_lp_Chiralities_Consistent>  (105) 
1

>  <s_lp_Variant>  (105) 
26:0-1

>  <s_i_glide_gridfile>  (105) 
pfpi4k_grid

>  <i_i_glide_lignum>  (105) 
41

>  <i_i_glide_rotatable_bonds>  (105) 
2

>  <r_i_docking_score>  (105) 
-2.12899

>  <r_i_glide_ligand_efficiency>  (105) 
-0.0626174

>  <r_i_glide_ligand_efficiency_sa>  (105) 
-0.202856

>  <r_i_glide_ligand_efficiency_ln>  (105) 
-0.470354

>  <r_i_glide_gscore>  (105) 
-2.12899

>  <r_i_glide_lipo>  (105) 
-0.310575

>  <r_i_glide_hbond>  (105) 
0

>  <r_i_glide_metal>  (105) 
-0

>  <r_i_glide_rewards>  (105) 
-0.408907

>  <r_i_glide_evdw>  (105) 
-29.2276

>  <r_i_glide_ecoul>  (105) 
0.465973

>  <r_i_glide_erotb>  (105) 
0

>  <r_i_glide_esite>  (105) 
-0.0180288

>  <r_i_glide_emodel>  (105) 
-31.66

>  <r_i_glide_energy>  (105) 
-28.7616

>  <r_i_glide_einternal>  (105) 
0.193918

>  <r_i_glide_intrahb_reward>  (105) 
-0

>  <i_i_glide_confnum>  (105) 
1

>  <i_i_glide_posenum>  (105) 
2

>  <r_i_glide_eff_state_penalty>  (105) 
0

>  <ligand_id>  (105) 
26

>  <original_smiles>  (105) 
C=C1C(=O)OC2C1C1(O)C(CC=C3C4(C)C=CC(=O)CC4=C(F)CC31C)C1CC3OC3(C)C12O

>  <smiles>  (105) 
[H]OC12C3([H])OC(=O)C(=C([H])[H])C3([H])C3(O[H])C([H])(C([H])([H])C([H])=C4C5(C([H])([H])[H])C([H])=C([H])C(=O)C([H])([H])C5=C(F)C([H])([H])C43C([H])([H])[H])C1([H])C([H])([H])C1([H])OC12C([H])([H])[H]

$$$$
26:0:2
     RDKit          3D

 63 69  0  0  1  0  0  0  0  0999 V2000
    2.5891   -1.4131    4.7435 C   0  0  0  0  0  0  0  0  0  0  0  0
    2.8645   -1.5327    3.4234 C   0  0  0  0  0  0  0  0  0  0  0  0
    2.1988   -0.7385    2.3923 C   0  0  0  0  0  0  0  0  0  0  0  0
    1.4194    0.2010    2.5714 O   0  0  0  0  0  0  0  0  0  0  0  0
    2.6402   -1.1742    1.2090 O   0  0  0  0  0  0  0  0  0  0  0  0
    3.2830   -2.4335    1.2839 C   0  0  2  0  0  0  0  0  0  0  0  0
    3.8595   -2.3963    2.6944 C   0  0  2  0  0  0  0  0  0  0  0  0
    4.4215   -3.7845    3.1855 C   0  0  2  0  0  0  0  0  0  0  0  0
    5.0252   -3.4258    4.4179 O   0  0  0  0  0  0  0  0  0  0  0  0
    5.5889   -4.1462    2.1743 C   0  0  1  0  0  0  0  0  0  0  0  0
    5.8303   -5.6333    1.9658 C   0  0  0  0  0  0  0  0  0  0  0  0
    4.5400   -6.3173    1.6468 C   0  0  0  0  0  0  0  0  0  0  0  0
    3.3902   -6.0475    2.3015 C   0  0  0  0  0  0  0  0  0  0  0  0
    2.0908   -6.8265    1.9748 C   0  0  1  0  0  0  0  0  0  0  0  0
    1.4751   -6.2400    0.7040 C   0  0  0  0  0  0  0  0  0  0  0  0
    2.4232   -8.2966    1.6945 C   0  0  0  0  0  0  0  0  0  0  0  0
    1.7490   -9.3566    2.1402 C   0  0  0  0  0  0  0  0  0  0  0  0
    0.5170   -9.1960    2.9066 C   0  0  0  0  0  0  0  0  0  0  0  0
   -0.1295  -10.1511    3.2962 O   0  0  0  0  0  0  0  0  0  0  0  0
   -0.0535   -7.8012    3.1442 C   0  0  0  0  0  0  0  0  0  0  0  0
    1.0053   -6.7033    3.0645 C   0  0  0  0  0  0  0  0  0  0  0  0
    1.0021   -5.6772    3.9154 C   0  0  0  0  0  0  0  0  0  0  0  0
    0.0231   -5.5938    4.8416 F   0  0  0  0  0  0  0  0  0  0  0  0
    1.9970   -4.5452    3.8169 C   0  0  0  0  0  0  0  0  0  0  0  0
    3.4254   -5.0248    3.4693 C   0  0  2  0  0  0  0  0  0  0  0  0
    3.8952   -5.8387    4.7124 C   0  0  0  0  0  0  0  0  0  0  0  0
    5.6248   -3.2916    0.8667 C   0  0  1  0  0  0  0  0  0  0  0  0
    6.5864   -3.5607   -0.2976 C   0  0  0  0  0  0  0  0  0  0  0  0
    6.1172   -2.5765   -1.3464 C   0  0  1  0  0  0  0  0  0  0  0  0
    5.0355   -2.9093   -2.2084 O   0  0  0  0  0  0  0  0  0  0  0  0
    4.6880   -2.1701   -1.0247 C   0  0  2  0  0  0  0  0  0  0  0  0
    4.2196   -0.7503   -1.2246 C   0  0  0  0  0  0  0  0  0  0  0  0
    4.2731   -2.9476    0.2216 C   0  0  2  0  0  0  0  0  0  0  0  0
    3.6656   -4.1063   -0.2973 O   0  0  0  0  0  0  0  0  0  0  0  0
    3.1129   -1.9863    5.4917 H   0  0  0  0  0  0  0  0  0  0  0  0
    1.8338   -0.7136    5.0771 H   0  0  0  0  0  0  0  0  0  0  0  0
    2.4643   -3.1472    1.3175 H   0  0  0  0  0  0  0  0  0  0  0  0
    4.7057   -1.7051    2.7034 H   0  0  0  0  0  0  0  0  0  0  0  0
    5.4423   -4.1940    4.7924 H   0  0  0  0  0  0  0  0  0  0  0  0
    6.5130   -3.8167    2.6277 H   0  0  0  0  0  0  0  0  0  0  0  0
    6.5565   -5.8158    1.1803 H   0  0  0  0  0  0  0  0  0  0  0  0
    6.2577   -6.0797    2.8632 H   0  0  0  0  0  0  0  0  0  0  0  0
    4.6102   -7.0286    0.8403 H   0  0  0  0  0  0  0  0  0  0  0  0
    0.5453   -6.7519    0.4355 H   0  0  0  0  0  0  0  0  0  0  0  0
    2.1527   -6.2471   -0.1487 H   0  0  0  0  0  0  0  0  0  0  0  0
    1.2899   -5.1837    0.8536 H   0  0  0  0  0  0  0  0  0  0  0  0
    3.2747   -8.5160    1.0739 H   0  0  0  0  0  0  0  0  0  0  0  0
    2.0360  -10.3591    1.8773 H   0  0  0  0  0  0  0  0  0  0  0  0
   -0.8267   -7.6053    2.4059 H   0  0  0  0  0  0  0  0  0  0  0  0
   -0.5268   -7.7906    4.1270 H   0  0  0  0  0  0  0  0  0  0  0  0
    1.5960   -3.8822    3.0536 H   0  0  0  0  0  0  0  0  0  0  0  0
    1.9838   -3.9994    4.7598 H   0  0  0  0  0  0  0  0  0  0  0  0
    3.7710   -5.2841    5.6447 H   0  0  0  0  0  0  0  0  0  0  0  0
    4.9376   -6.1435    4.6444 H   0  0  0  0  0  0  0  0  0  0  0  0
    3.3202   -6.7574    4.8240 H   0  0  0  0  0  0  0  0  0  0  0  0
    6.0161   -2.3313    1.2026 H   0  0  0  0  0  0  0  0  0  0  0  0
    7.6309   -3.3943   -0.0428 H   0  0  0  0  0  0  0  0  0  0  0  0
    6.4595   -4.5645   -0.6976 H   0  0  0  0  0  0  0  0  0  0  0  0
    6.8303   -1.8690   -1.7679 H   0  0  0  0  0  0  0  0  0  0  0  0
    4.5004   -0.1372   -0.3666 H   0  0  0  0  0  0  0  0  0  0  0  0
    3.1353   -0.7313   -1.3438 H   0  0  0  0  0  0  0  0  0  0  0  0
    4.6714   -0.3237   -2.1210 H   0  0  0  0  0  0  0  0  0  0  0  0
    2.9726   -3.8327   -0.8850 H   0  0  0  0  0  0  0  0  0  0  0  0
  1  2  2  0
  1 35  1  0
  1 36  1  0
  2  7  1  0
  2  3  1  0
  3  4  2  0
  3  5  1  0
  5  6  1  0
  6 33  1  0
  6  7  1  0
  6 37  1  1
  7  8  1  0
  7 38  1  6
  8 25  1  0
  8  9  1  1
  8 10  1  0
  9 39  1  0
 10 11  1  0
 10 27  1  0
 10 40  1  1
 11 12  1  0
 11 41  1  0
 11 42  1  0
 12 13  2  0
 12 43  1  0
 13 25  1  0
 13 14  1  0
 14 21  1  0
 14 15  1  6
 14 16  1  0
 15 44  1  0
 15 45  1  0
 15 46  1  0
 16 17  2  0
 16 47  1  0
 17 18  1  0
 17 48  1  0
 18 19  2  0
 18 20  1  0
 20 21  1  0
 20 49  1  0
 20 50  1  0
 21 22  2  0
 22 23  1  0
 22 24  1  0
 24 25  1  0
 24 51  1  0
 24 52  1  0
 25 26  1  1
 26 53  1  0
 26 54  1  0
 26 55  1  0
 27 33  1  0
 27 28  1  0
 27 56  1  1
 28 29  1  0
 28 57  1  0
 28 58  1  0
 29 31  1  0
 29 30  1  0
 29 59  1  6
 30 31  1  0
 31 32  1  6
 31 33  1  0
 32 60  1  0
 32 61  1  0
 32 62  1  0
 33 34  1  6
 34 63  1  0
M  END
>  <i_m_ct_stereo_status>  (106) 
1

>  <s_m_source_file>  (106) 
/var/tmp/pbs.5076255.sched01/tmp5vb4dkz1/0x5hafel7.sdf

>  <i_m_source_file_index>  (106) 
41

>  <i_lp_mmshare_version>  (106) 
48012

>  <i_f3d_flags>  (106) 
0

>  <s_epik_input>  (106) 
W0NIMl09QzFDKD1PKU9bQ0BIXShbQ0BASF0xW0NAXTIzW09IXSlbQ0BdNChbT0hdKVtDQEhdKFtDSDJdW0NAQEhdNVtDQF00KE81KVtDSDNdKVtDQEBIXTJbQ0gyXVtDSF09QzZbQ0BdNyhbQ0gzXSlDKFtDSDJdQyg9TylbQ0hdPVtDSF03KT1DKEYpW0NIMl1bQ0BdMzZbQ0gzXQ==

>  <s_epik_cmdline>  (106) 
J2VwaWtfcHl0aG9uJywgJy1waHQnLCAnMi4wJywgJy1waCcsICc3LjAnLCAnLXRuJywgJzgnLCAnLW1hJywgJzIwMCcsICctaW1hZScsICc8aW5maWxlLm1hZT4nLCAnLW9tYWUnLCAnPG91dGZpbGUubWFlPic=

>  <r_lp_tautomer_probability>  (106) 
1

>  <r_epik_Ionization_Penalty>  (106) 
1.57088e-06

>  <r_epik_Ionization_Penalty_Charging>  (106) 
0

>  <r_epik_Ionization_Penalty_Neutral>  (106) 
1.57088e-06

>  <r_epik_State_Penalty>  (106) 
-0

>  <r_epik_Charging_Adjusted_Penalty>  (106) 
0

>  <i_epik_Tot_Q>  (106) 
0

>  <i_epik_Tot_abs_Q>  (106) 
0

>  <s_epik_Chemistry_Notes>  (106) 
This compound has an ester and may undergo hydrolysis at high or low pH.

>  <s_lp_Force_Field>  (106) 
OPLS3e

>  <r_lp_Energy>  (106) 
99.6233

>  <b_lp_Chiralities_Consistent>  (106) 
1

>  <s_lp_Variant>  (106) 
26:0-1

>  <s_i_glide_gridfile>  (106) 
pfpi4k_grid

>  <i_i_glide_lignum>  (106) 
41

>  <i_i_glide_rotatable_bonds>  (106) 
2

>  <r_i_docking_score>  (106) 
-1.90138

>  <r_i_glide_ligand_efficiency>  (106) 
-0.0559228

>  <r_i_glide_ligand_efficiency_sa>  (106) 
-0.181168

>  <r_i_glide_ligand_efficiency_ln>  (106) 
-0.420067

>  <r_i_glide_gscore>  (106) 
-1.90138

>  <r_i_glide_lipo>  (106) 
-0.38707

>  <r_i_glide_hbond>  (106) 
0

>  <r_i_glide_metal>  (106) 
-0

>  <r_i_glide_rewards>  (106) 
-0.214678

>  <r_i_glide_evdw>  (106) 
-30.25

>  <r_i_glide_ecoul>  (106) 
1.81419

>  <r_i_glide_erotb>  (106) 
0

>  <r_i_glide_esite>  (106) 
-0.0592573

>  <r_i_glide_emodel>  (106) 
-30.8789

>  <r_i_glide_energy>  (106) 
-28.4358

>  <r_i_glide_einternal>  (106) 
0.127488

>  <r_i_glide_intrahb_reward>  (106) 
-0

>  <i_i_glide_confnum>  (106) 
1

>  <i_i_glide_posenum>  (106) 
35

>  <r_i_glide_eff_state_penalty>  (106) 
0

>  <ligand_id>  (106) 
26

>  <original_smiles>  (106) 
C=C1C(=O)OC2C1C1(O)C(CC=C3C4(C)C=CC(=O)CC4=C(F)CC31C)C1CC3OC3(C)C12O

>  <smiles>  (106) 
[H]OC12C3([H])OC(=O)C(=C([H])[H])C3([H])C3(O[H])C([H])(C([H])([H])C([H])=C4C5(C([H])([H])[H])C([H])=C([H])C(=O)C([H])([H])C5=C(F)C([H])([H])C43C([H])([H])[H])C1([H])C([H])([H])C1([H])OC12C([H])([H])[H]

$$$$
27:0:0
     RDKit          3D

 14 15  0  0  1  0  0  0  0  0999 V2000
   -7.2530   -4.6460   -4.5946 C   0  0  0  0  0  0  0  0  0  0  0  0
   -6.5847   -5.8780   -4.8047 C   0  0  0  0  0  0  0  0  0  0  0  0
   -6.8650   -6.6377   -5.9187 C   0  0  0  0  0  0  0  0  0  0  0  0
   -7.7869   -6.1756   -6.8097 N   0  0  0  0  0  0  0  0  0  0  0  0
   -8.1832   -6.7834   -7.9574 N   0  0  0  0  0  0  0  0  0  0  0  0
   -9.0797   -5.9268   -8.4325 C   0  0  0  0  0  0  0  0  0  0  0  0
   -9.2893   -4.7972   -7.6974 N   0  0  0  0  0  0  0  0  0  0  0  0
   -8.4783   -4.9608   -6.6557 C   0  0  0  0  0  0  0  0  0  0  0  0
   -8.1880   -4.1926   -5.5001 C   0  0  0  0  0  0  0  0  0  0  0  0
   -7.0297   -4.0503   -3.7125 H   0  0  0  0  0  0  0  0  0  0  0  0
   -5.8560   -6.2288   -4.0807 H   0  0  0  0  0  0  0  0  0  0  0  0
   -6.3930   -7.5900   -6.1380 H   0  0  0  0  0  0  0  0  0  0  0  0
   -9.5996   -6.1174   -9.3609 H   0  0  0  0  0  0  0  0  0  0  0  0
   -8.7030   -3.2493   -5.3504 H   0  0  0  0  0  0  0  0  0  0  0  0
  1  9  2  0
  1  2  1  0
  1 10  1  0
  2  3  2  0
  2 11  1  0
  3  4  1  0
  3 12  1  0
  4  8  1  0
  4  5  1  0
  5  6  2  0
  6  7  1  0
  6 13  1  0
  7  8  2  0
  8  9  1  0
  9 14  1  0
M  END
>  <i_m_ct_stereo_status>  (107) 
1

>  <s_m_source_file>  (107) 
/var/tmp/pbs.5076255.sched01/tmp7rtc4ovb/41r77q45k8.sdf

>  <i_m_source_file_index>  (107) 
1

>  <i_lp_mmshare_version>  (107) 
48012

>  <i_f3d_flags>  (107) 
0

>  <s_epik_input>  (107) 
W2NIXTFbY0hdW2NIXVtjSF1jKG4xMiluW2NIXW4y

>  <s_epik_cmdline>  (107) 
J2VwaWtfcHl0aG9uJywgJy1waHQnLCAnMi4wJywgJy1waCcsICc3LjAnLCAnLXRuJywgJzgnLCAnLW1hJywgJzIwMCcsICctaW1hZScsICc8aW5maWxlLm1hZT4nLCAnLW9tYWUnLCAnPG91dGZpbGUubWFlPic=

>  <r_epik_Ionization_Penalty>  (107) 
0.00240877

>  <r_epik_Ionization_Penalty_Charging>  (107) 
0

>  <r_epik_Ionization_Penalty_Neutral>  (107) 
0.00240877

>  <r_epik_State_Penalty>  (107) 
0.00166627

>  <r_epik_Charging_Adjusted_Penalty>  (107) 
0.00166627

>  <i_epik_Tot_Q>  (107) 
0

>  <i_epik_Tot_abs_Q>  (107) 
0

>  <s_lp_Force_Field>  (107) 
OPLS3e

>  <r_lp_Energy>  (107) 
12.9833

>  <b_lp_Chiralities_Consistent>  (107) 
1

>  <s_lp_Variant>  (107) 
27:0-1

>  <s_i_glide_gridfile>  (107) 
pfpi4k_grid

>  <i_i_glide_lignum>  (107) 
1

>  <i_i_glide_rotatable_bonds>  (107) 
0

>  <r_i_docking_score>  (107) 
-5.6352

>  <r_i_glide_ligand_efficiency>  (107) 
-0.626133

>  <r_i_glide_ligand_efficiency_sa>  (107) 
-1.30241

>  <r_i_glide_ligand_efficiency_ln>  (107) 
-1.76253

>  <r_i_glide_gscore>  (107) 
-5.6352

>  <r_i_glide_lipo>  (107) 
-1.26606

>  <r_i_glide_hbond>  (107) 
0

>  <r_i_glide_metal>  (107) 
-0

>  <r_i_glide_rewards>  (107) 
-3.35495

>  <r_i_glide_evdw>  (107) 
-17.7162

>  <r_i_glide_ecoul>  (107) 
-0.85591

>  <r_i_glide_erotb>  (107) 
0

>  <r_i_glide_esite>  (107) 
0

>  <r_i_glide_emodel>  (107) 
-26.2043

>  <r_i_glide_energy>  (107) 
-18.5721

>  <r_i_glide_einternal>  (107) 
0

>  <r_i_glide_intrahb_reward>  (107) 
-0

>  <i_i_glide_confnum>  (107) 
1

>  <i_i_glide_posenum>  (107) 
3

>  <r_i_glide_eff_state_penalty>  (107) 
0

>  <ligand_id>  (107) 
27

>  <original_smiles>  (107) 
c1ccn2ncnc2c1

>  <smiles>  (107) 
[H]c1nc2c([H])c([H])c([H])c([H])n2n1

$$$$
27:0:1
     RDKit          3D

 14 15  0  0  1  0  0  0  0  0999 V2000
    2.7175   -2.1305   -3.7640 C   0  0  0  0  0  0  0  0  0  0  0  0
    3.1524   -0.8201   -3.4536 C   0  0  0  0  0  0  0  0  0  0  0  0
    4.2482   -0.6326   -2.6458 C   0  0  0  0  0  0  0  0  0  0  0  0
    4.9121   -1.7185   -2.1708 N   0  0  0  0  0  0  0  0  0  0  0  0
    6.0131   -1.7125   -1.3729 N   0  0  0  0  0  0  0  0  0  0  0  0
    6.2512   -3.0096   -1.2206 C   0  0  0  0  0  0  0  0  0  0  0  0
    5.3950   -3.8579   -1.8538 N   0  0  0  0  0  0  0  0  0  0  0  0
    4.5442   -3.0400   -2.4639 C   0  0  0  0  0  0  0  0  0  0  0  0
    3.4116   -3.2212   -3.3011 C   0  0  0  0  0  0  0  0  0  0  0  0
    1.8144   -2.2845   -4.3416 H   0  0  0  0  0  0  0  0  0  0  0  0
    2.6029    0.0491   -3.8092 H   0  0  0  0  0  0  0  0  0  0  0  0
    4.6094    0.3468   -2.3499 H   0  0  0  0  0  0  0  0  0  0  0  0
    7.0846   -3.3616   -0.6313 H   0  0  0  0  0  0  0  0  0  0  0  0
    3.0842   -4.2290   -3.5300 H   0  0  0  0  0  0  0  0  0  0  0  0
  1  9  2  0
  1  2  1  0
  1 10  1  0
  2  3  2  0
  2 11  1  0
  3  4  1  0
  3 12  1  0
  4  8  1  0
  4  5  1  0
  5  6  2  0
  6  7  1  0
  6 13  1  0
  7  8  2  0
  8  9  1  0
  9 14  1  0
M  END
>  <i_m_ct_stereo_status>  (108) 
1

>  <s_m_source_file>  (108) 
/var/tmp/pbs.5076255.sched01/tmp7rtc4ovb/41r77q45k8.sdf

>  <i_m_source_file_index>  (108) 
1

>  <i_lp_mmshare_version>  (108) 
48012

>  <i_f3d_flags>  (108) 
0

>  <s_epik_input>  (108) 
W2NIXTFbY0hdW2NIXVtjSF1jKG4xMiluW2NIXW4y

>  <s_epik_cmdline>  (108) 
J2VwaWtfcHl0aG9uJywgJy1waHQnLCAnMi4wJywgJy1waCcsICc3LjAnLCAnLXRuJywgJzgnLCAnLW1hJywgJzIwMCcsICctaW1hZScsICc8aW5maWxlLm1hZT4nLCAnLW9tYWUnLCAnPG91dGZpbGUubWFlPic=

>  <r_epik_Ionization_Penalty>  (108) 
0.00240877

>  <r_epik_Ionization_Penalty_Charging>  (108) 
0

>  <r_epik_Ionization_Penalty_Neutral>  (108) 
0.00240877

>  <r_epik_State_Penalty>  (108) 
0.00166627

>  <r_epik_Charging_Adjusted_Penalty>  (108) 
0.00166627

>  <i_epik_Tot_Q>  (108) 
0

>  <i_epik_Tot_abs_Q>  (108) 
0

>  <s_lp_Force_Field>  (108) 
OPLS3e

>  <r_lp_Energy>  (108) 
12.9833

>  <b_lp_Chiralities_Consistent>  (108) 
1

>  <s_lp_Variant>  (108) 
27:0-1

>  <s_i_glide_gridfile>  (108) 
pfpi4k_grid

>  <i_i_glide_lignum>  (108) 
1

>  <i_i_glide_rotatable_bonds>  (108) 
0

>  <r_i_docking_score>  (108) 
-4.37898

>  <r_i_glide_ligand_efficiency>  (108) 
-0.486553

>  <r_i_glide_ligand_efficiency_sa>  (108) 
-1.01207

>  <r_i_glide_ligand_efficiency_ln>  (108) 
-1.36962

>  <r_i_glide_gscore>  (108) 
-4.37898

>  <r_i_glide_lipo>  (108) 
-0.57165

>  <r_i_glide_hbond>  (108) 
-0.110266

>  <r_i_glide_metal>  (108) 
-0

>  <r_i_glide_rewards>  (108) 
-2.36941

>  <r_i_glide_evdw>  (108) 
-14.2642

>  <r_i_glide_ecoul>  (108) 
-3.9509

>  <r_i_glide_erotb>  (108) 
0

>  <r_i_glide_esite>  (108) 
-0.0218086

>  <r_i_glide_emodel>  (108) 
-24.1393

>  <r_i_glide_energy>  (108) 
-18.2151

>  <r_i_glide_einternal>  (108) 
0

>  <r_i_glide_intrahb_reward>  (108) 
-0

>  <i_i_glide_confnum>  (108) 
1

>  <i_i_glide_posenum>  (108) 
37

>  <r_i_glide_eff_state_penalty>  (108) 
0

>  <ligand_id>  (108) 
27

>  <original_smiles>  (108) 
c1ccn2ncnc2c1

>  <smiles>  (108) 
[H]c1nc2c([H])c([H])c([H])c([H])n2n1

$$$$
27:0:2
     RDKit          3D

 14 15  0  0  1  0  0  0  0  0999 V2000
   -0.9797   -9.0530    3.1993 C   0  0  0  0  0  0  0  0  0  0  0  0
    0.2294   -9.7572    3.4136 C   0  0  0  0  0  0  0  0  0  0  0  0
    1.4193   -9.2735    2.9156 C   0  0  0  0  0  0  0  0  0  0  0  0
    1.4049   -8.1021    2.2211 N   0  0  0  0  0  0  0  0  0  0  0  0
    2.4771   -7.4642    1.6831 N   0  0  0  0  0  0  0  0  0  0  0  0
    1.9208   -6.3899    1.1381 C   0  0  0  0  0  0  0  0  0  0  0  0
    0.5669   -6.2672    1.2793 N   0  0  0  0  0  0  0  0  0  0  0  0
    0.2385   -7.3585    1.9729 C   0  0  0  0  0  0  0  0  0  0  0  0
   -0.9843   -7.8708    2.4914 C   0  0  0  0  0  0  0  0  0  0  0  0
   -1.9095   -9.4511    3.6001 H   0  0  0  0  0  0  0  0  0  0  0  0
    0.2185  -10.6846    3.9796 H   0  0  0  0  0  0  0  0  0  0  0  0
    2.3762   -9.7685    3.0530 H   0  0  0  0  0  0  0  0  0  0  0  0
    2.5177   -5.6677    0.6003 H   0  0  0  0  0  0  0  0  0  0  0  0
   -1.9112   -7.3386    2.3281 H   0  0  0  0  0  0  0  0  0  0  0  0
  1  9  2  0
  1  2  1  0
  1 10  1  0
  2  3  2  0
  2 11  1  0
  3  4  1  0
  3 12  1  0
  4  8  1  0
  4  5  1  0
  5  6  2  0
  6  7  1  0
  6 13  1  0
  7  8  2  0
  8  9  1  0
  9 14  1  0
M  END
>  <i_m_ct_stereo_status>  (109) 
1

>  <s_m_source_file>  (109) 
/var/tmp/pbs.5076255.sched01/tmp7rtc4ovb/41r77q45k8.sdf

>  <i_m_source_file_index>  (109) 
1

>  <i_lp_mmshare_version>  (109) 
48012

>  <i_f3d_flags>  (109) 
0

>  <s_epik_input>  (109) 
W2NIXTFbY0hdW2NIXVtjSF1jKG4xMiluW2NIXW4y

>  <s_epik_cmdline>  (109) 
J2VwaWtfcHl0aG9uJywgJy1waHQnLCAnMi4wJywgJy1waCcsICc3LjAnLCAnLXRuJywgJzgnLCAnLW1hJywgJzIwMCcsICctaW1hZScsICc8aW5maWxlLm1hZT4nLCAnLW9tYWUnLCAnPG91dGZpbGUubWFlPic=

>  <r_epik_Ionization_Penalty>  (109) 
0.00240877

>  <r_epik_Ionization_Penalty_Charging>  (109) 
0

>  <r_epik_Ionization_Penalty_Neutral>  (109) 
0.00240877

>  <r_epik_State_Penalty>  (109) 
0.00166627

>  <r_epik_Charging_Adjusted_Penalty>  (109) 
0.00166627

>  <i_epik_Tot_Q>  (109) 
0

>  <i_epik_Tot_abs_Q>  (109) 
0

>  <s_lp_Force_Field>  (109) 
OPLS3e

>  <r_lp_Energy>  (109) 
12.9833

>  <b_lp_Chiralities_Consistent>  (109) 
1

>  <s_lp_Variant>  (109) 
27:0-1

>  <s_i_glide_gridfile>  (109) 
pfpi4k_grid

>  <i_i_glide_lignum>  (109) 
1

>  <i_i_glide_rotatable_bonds>  (109) 
0

>  <r_i_docking_score>  (109) 
-3.99653

>  <r_i_glide_ligand_efficiency>  (109) 
-0.444059

>  <r_i_glide_ligand_efficiency_sa>  (109) 
-0.923679

>  <r_i_glide_ligand_efficiency_ln>  (109) 
-1.25

>  <r_i_glide_gscore>  (109) 
-3.99653

>  <r_i_glide_lipo>  (109) 
-0.0108562

>  <r_i_glide_hbond>  (109) 
-0.16

>  <r_i_glide_metal>  (109) 
-0

>  <r_i_glide_rewards>  (109) 
-2.25

>  <r_i_glide_evdw>  (109) 
-13.2795

>  <r_i_glide_ecoul>  (109) 
-5.18672

>  <r_i_glide_erotb>  (109) 
0

>  <r_i_glide_esite>  (109) 
-0.13369

>  <r_i_glide_emodel>  (109) 
-23.8774

>  <r_i_glide_energy>  (109) 
-18.4662

>  <r_i_glide_einternal>  (109) 
0

>  <r_i_glide_intrahb_reward>  (109) 
-0

>  <i_i_glide_confnum>  (109) 
2

>  <i_i_glide_posenum>  (109) 
16

>  <r_i_glide_eff_state_penalty>  (109) 
0

>  <ligand_id>  (109) 
27

>  <original_smiles>  (109) 
c1ccn2ncnc2c1

>  <smiles>  (109) 
[H]c1nc2c([H])c([H])c([H])c([H])n2n1

$$$$
28:1:0
     RDKit          3D

 75 80  0  0  1  0  0  0  0  0999 V2000
    4.0164   -5.9566    6.8959 C   0  0  0  0  0  0  0  0  0  0  0  0
    4.2178   -5.0007    5.8516 O   0  0  0  0  0  0  0  0  0  0  0  0
    3.4876   -3.7852    6.0159 C   0  0  2  0  0  0  0  0  0  0  0  0
    1.9853   -4.0123    5.9229 C   0  0  0  0  0  0  0  0  0  0  0  0
    1.2952   -3.4863    4.8970 C   0  0  0  0  0  0  0  0  0  0  0  0
    0.1493   -2.5798    5.2561 C   0  0  0  0  0  0  0  0  0  0  0  0
    0.8274   -1.2658    5.7489 C   0  0  0  0  0  0  0  0  0  0  0  0
    2.0505   -0.8085    4.8904 C   0  0  0  0  0  0  0  0  0  0  0  0
    2.8825   -1.9196    4.3077 N   0  0  2  0  0  0  0  0  0  0  0  0
    2.0440   -2.9612    3.6800 C   0  0  1  0  0  0  0  0  0  0  0  0
    2.8341   -4.0096    2.7828 C   0  0  1  0  0  0  0  0  0  0  0  0
    2.2847   -5.4298    3.0688 C   0  0  0  0  0  0  0  0  0  0  0  0
    2.3842   -3.9892    1.4082 O   0  0  0  0  0  0  0  0  0  0  0  0
    2.6164   -2.9228    0.4770 C   0  0  2  0  0  0  0  0  0  0  0  0
    2.8719   -3.4574   -0.9739 C   0  0  0  0  0  0  0  0  0  0  0  0
    4.3496   -3.5376   -1.5417 C   0  0  1  0  0  0  0  0  0  0  0  0
    4.3549   -3.3268   -3.0819 C   0  0  0  0  0  0  0  0  0  0  0  0
    5.0108   -4.1264   -3.7748 O   0  0  0  0  0  0  0  0  0  0  0  0
    3.7172   -2.3720   -3.5786 O   0  0  0  0  0  0  0  0  0  0  0  0
    5.4478   -2.6889   -0.7700 C   0  0  2  0  0  0  0  0  0  0  0  0
    5.5016   -1.4028   -1.3869 O   0  0  0  0  0  0  0  0  0  0  0  0
    6.9146   -3.2538   -0.8992 C   0  0  1  0  0  0  0  0  0  0  0  0
    7.9275   -2.2614   -0.7537 O   0  0  0  0  0  0  0  0  0  0  0  0
    7.2769   -4.3807    0.1005 C   0  0  0  0  0  0  0  0  0  0  0  0
    6.7248   -4.2235    1.5447 C   0  0  0  0  0  0  0  0  0  0  0  0
    5.2044   -3.9258    1.5287 C   0  0  1  0  0  0  0  0  0  0  0  0
    4.6470   -5.0272    0.7875 O   0  0  0  0  0  0  0  0  0  0  0  0
    4.8966   -6.4012    1.1019 C   0  0  0  0  0  0  0  0  0  0  0  0
    4.4260   -3.9815    2.9128 C   0  0  1  0  0  0  0  0  0  0  0  0
    4.9770   -3.0131    4.0044 C   0  0  0  0  0  0  0  0  0  0  0  0
    3.9803   -2.5734    5.1016 C   0  0  2  0  0  0  0  0  0  0  0  0
    4.7218   -1.5427    5.9919 C   0  0  0  0  0  0  0  0  0  0  0  0
    5.0530   -2.5354    0.7397 C   0  0  1  0  0  0  0  0  0  0  0  0
    5.9128   -1.5440    1.2945 O   0  0  0  0  0  0  0  0  0  0  0  0
    3.6557   -1.9156    0.9089 C   0  0  1  0  0  0  0  0  0  0  0  0
    3.4060   -0.7054    0.2080 O   0  0  0  0  0  0  0  0  0  0  0  0
    4.6134   -6.8486    6.7104 H   0  0  0  0  0  0  0  0  0  0  0  0
    2.9786   -6.2824    6.9786 H   0  0  0  0  0  0  0  0  0  0  0  0
    4.3242   -5.5592    7.8633 H   0  0  0  0  0  0  0  0  0  0  0  0
    3.6524   -3.4736    7.0493 H   0  0  0  0  0  0  0  0  0  0  0  0
    1.4908   -4.1385    6.8759 H   0  0  0  0  0  0  0  0  0  0  0  0
   -0.4947   -2.3977    4.3904 H   0  0  0  0  0  0  0  0  0  0  0  0
   -0.4609   -3.0101    6.0518 H   0  0  0  0  0  0  0  0  0  0  0  0
    0.0963   -0.4557    5.8010 H   0  0  0  0  0  0  0  0  0  0  0  0
    1.1772   -1.4147    6.7757 H   0  0  0  0  0  0  0  0  0  0  0  0
    1.6468   -0.2812    4.0258 H   0  0  0  0  0  0  0  0  0  0  0  0
    2.6506   -0.0640    5.4178 H   0  0  0  0  0  0  0  0  0  0  0  0
    1.3286   -2.4685    3.0200 H   0  0  0  0  0  0  0  0  0  0  0  0
    2.6300   -5.8432    4.0161 H   0  0  0  0  0  0  0  0  0  0  0  0
    2.5636   -6.1349    2.2892 H   0  0  0  0  0  0  0  0  0  0  0  0
    1.1931   -5.4324    3.0786 H   0  0  0  0  0  0  0  0  0  0  0  0
    1.6703   -2.4002    0.4837 H   0  0  0  0  0  0  0  0  0  0  0  0
    2.4671   -4.4697   -0.9977 H   0  0  0  0  0  0  0  0  0  0  0  0
    2.2306   -2.9092   -1.6664 H   0  0  0  0  0  0  0  0  0  0  0  0
    4.6471   -4.5776   -1.4391 H   0  0  0  0  0  0  0  0  0  0  0  0
    4.6930   -0.9579   -1.1545 H   0  0  0  0  0  0  0  0  0  0  0  0
    7.0411   -3.6180   -1.9189 H   0  0  0  0  0  0  0  0  0  0  0  0
    8.7521   -2.6376   -1.0354 H   0  0  0  0  0  0  0  0  0  0  0  0
    6.8888   -5.2966   -0.3164 H   0  0  0  0  0  0  0  0  0  0  0  0
    8.3559   -4.5179    0.1438 H   0  0  0  0  0  0  0  0  0  0  0  0
    6.9512   -5.1129    2.1367 H   0  0  0  0  0  0  0  0  0  0  0  0
    7.2622   -3.4225    2.0381 H   0  0  0  0  0  0  0  0  0  0  0  0
    4.2266   -7.0001    0.4847 H   0  0  0  0  0  0  0  0  0  0  0  0
    4.6980   -6.6599    2.1365 H   0  0  0  0  0  0  0  0  0  0  0  0
    5.9063   -6.7343    0.8746 H   0  0  0  0  0  0  0  0  0  0  0  0
    4.6906   -4.9433    3.3467 H   0  0  0  0  0  0  0  0  0  0  0  0
    5.8416   -3.4716    4.4780 H   0  0  0  0  0  0  0  0  0  0  0  0
    5.3518   -2.1008    3.5535 H   0  0  0  0  0  0  0  0  0  0  0  0
    5.6086   -1.9824    6.4542 H   0  0  0  0  0  0  0  0  0  0  0  0
    4.0909   -1.1733    6.8050 H   0  0  0  0  0  0  0  0  0  0  0  0
    5.0555   -0.6783    5.4143 H   0  0  0  0  0  0  0  0  0  0  0  0
    5.6500   -1.3671    2.1810 H   0  0  0  0  0  0  0  0  0  0  0  0
    3.4872   -1.6283    1.9349 H   0  0  0  0  0  0  0  0  0  0  0  0
    2.4835   -0.6724   -0.0243 H   0  0  0  0  0  0  0  0  0  0  0  0
    3.3833   -1.4587    3.5677 H   0  0  0  0  0  0  0  0  0  0  0  0
  1  2  1  0
  1 37  1  0
  1 38  1  0
  1 39  1  0
  2  3  1  0
  3 31  1  0
  3  4  1  0
  3 40  1  1
  4  5  2  0
  4 41  1  0
  5 10  1  0
  5  6  1  0
  6  7  1  0
  6 42  1  0
  6 43  1  0
  7  8  1  0
  7 44  1  0
  7 45  1  0
  8  9  1  0
  8 46  1  0
  8 47  1  0
  9 31  1  0
  9 10  1  0
  9 75  1  6
 10 11  1  0
 10 48  1  6
 11 29  1  0
 11 12  1  1
 11 13  1  0
 12 49  1  0
 12 50  1  0
 12 51  1  0
 13 14  1  0
 14 35  1  0
 14 15  1  0
 14 52  1  6
 15 16  1  0
 15 53  1  0
 15 54  1  0
 16 17  1  0
 16 20  1  0
 16 55  1  6
 17 18  2  0
 17 19  1  0
 20 33  1  0
 20 21  1  6
 20 22  1  0
 21 56  1  0
 22 23  1  0
 22 24  1  0
 22 57  1  6
 23 58  1  0
 24 25  1  0
 24 59  1  0
 24 60  1  0
 25 26  1  0
 25 61  1  0
 25 62  1  0
 26 27  1  6
 26 29  1  0
 26 33  1  0
 27 28  1  0
 28 63  1  0
 28 64  1  0
 28 65  1  0
 29 30  1  0
 29 66  1  1
 30 31  1  0
 30 67  1  0
 30 68  1  0
 31 32  1  1
 32 69  1  0
 32 70  1  0
 32 71  1  0
 33 34  1  1
 33 35  1  0
 34 72  1  0
 35 36  1  0
 35 73  1  1
 36 74  1  0
M  CHG  2   9   1  19  -1
M  END
>  <i_m_ct_stereo_status>  (110) 
1

>  <s_m_source_file>  (110) 
/var/tmp/pbs.5076255.sched01/tmp7rtc4ovb/41r77q45k8.sdf

>  <i_m_source_file_index>  (110) 
3

>  <i_lp_mmshare_version>  (110) 
48012

>  <i_f3d_flags>  (110) 
0

>  <s_epik_input>  (110) 
W0NIM11bQ0BdMTJbQ0BIXTNDND1bQ0hdW0NAQEhdKE9bQ0gzXSlbQ0BdKFtDSDNdKShOM1tDSDJdW0NIMl1bQ0gyXTQpW0NIMl1bQ0BASF0yW0NAQF01KE9bQ0gzXSlbQ0BAXTYoW09IXSlbQ0BAXShbT0hdKShbQ0BASF0oW09IXSlbQ0gyXVtDSDJdNSlbQ0BIXShDKD1PKVtPSF0pW0NIMl1bQ0BASF0oTzEpW0NAQEhdNltPSF0=

>  <s_epik_cmdline>  (110) 
J2VwaWtfcHl0aG9uJywgJy1waHQnLCAnMi4wJywgJy1waCcsICc3LjAnLCAnLXRuJywgJzgnLCAnLW1hJywgJzIwMCcsICctaW1hZScsICc8aW5maWxlLm1hZT4nLCAnLW9tYWUnLCAnPG91dGZpbGUubWFlPic=

>  <r_epik_Ionization_Penalty>  (110) 
0.486325

>  <r_epik_Ionization_Penalty_Charging>  (110) 
0.486324

>  <r_epik_Ionization_Penalty_Neutral>  (110) 
5.11298e-07

>  <r_epik_State_Penalty>  (110) 
0.491084

>  <r_epik_Charging_Adjusted_Penalty>  (110) 
0.977408

>  <i_epik_Tot_Q>  (110) 
0

>  <i_epik_Tot_abs_Q>  (110) 
2

>  <s_lp_Force_Field>  (110) 
OPLS3e

>  <r_lp_Energy>  (110) 
132.554

>  <b_lp_Chiralities_Consistent>  (110) 
1

>  <s_lp_Variant>  (110) 
28:0-2

>  <s_i_glide_gridfile>  (110) 
pfpi4k_grid

>  <i_i_glide_lignum>  (110) 
3

>  <i_i_glide_rotatable_bonds>  (110) 
7

>  <r_i_docking_score>  (110) 
-3.58861

>  <r_i_glide_ligand_efficiency>  (110) 
-0.0996835

>  <r_i_glide_ligand_efficiency_sa>  (110) 
-0.329148

>  <r_i_glide_ligand_efficiency_ln>  (110) 
-0.782937

>  <r_i_glide_gscore>  (110) 
-3.58861

>  <r_i_glide_lipo>  (110) 
-0.581163

>  <r_i_glide_hbond>  (110) 
0

>  <r_i_glide_metal>  (110) 
-0

>  <r_i_glide_rewards>  (110) 
-0.615993

>  <r_i_glide_evdw>  (110) 
-20.4155

>  <r_i_glide_ecoul>  (110) 
-9.13784

>  <r_i_glide_erotb>  (110) 
0

>  <r_i_glide_esite>  (110) 
0

>  <r_i_glide_emodel>  (110) 
-40.1558

>  <r_i_glide_energy>  (110) 
-29.5534

>  <r_i_glide_einternal>  (110) 
3.2388

>  <r_i_glide_intrahb_reward>  (110) 
-0.5

>  <i_i_glide_confnum>  (110) 
1

>  <i_i_glide_posenum>  (110) 
30

>  <r_i_glide_eff_state_penalty>  (110) 
0

>  <ligand_id>  (110) 
28

>  <original_smiles>  (110) 
COC1C=C2CCCN3C2C2(C)OC4CC(C(=O)O)C5(O)C(O)CCC(OC)(C2CC13C)C5(O)C4O

>  <smiles>  (110) 
[H]OC1([H])C([H])([H])C([H])([H])C2(OC([H])([H])[H])C3([H])C([H])([H])C4(C([H])([H])[H])C([H])(OC([H])([H])[H])C([H])=C5C([H])([H])C([H])([H])C([H])([H])[N+]4([H])C5([H])C3(C([H])([H])[H])OC3([H])C([H])([H])C([H])(C(=O)[O-])C1(O[H])C2(O[H])C3([H])O[H]

$$$$
31:0:0
     RDKit          3D

 57 60  0  0  1  0  0  0  0  0999 V2000
    0.4490    4.5038    4.6788 C   0  0  0  0  0  0  0  0  0  0  0  0
   -0.0815    3.5217    5.7039 C   0  0  0  0  0  0  0  0  0  0  0  0
    0.6157    2.9228    6.6745 C   0  0  0  0  0  0  0  0  0  0  0  0
    1.2310    1.6955    6.1012 C   0  0  0  0  0  0  0  0  0  0  0  0
    2.4320    1.4568    6.1840 O   0  0  0  0  0  0  0  0  0  0  0  0
    0.2098    0.6684    5.4937 C   0  0  1  0  0  0  0  0  0  0  0  0
   -0.9785    1.4056    4.7551 C   0  0  2  0  0  0  0  0  0  0  0  0
   -0.7578    1.4472    3.1945 C   0  0  1  0  0  0  0  0  0  0  0  0
   -1.3312    2.5626    2.5314 O   0  0  0  0  0  0  0  0  0  0  0  0
    0.6753    1.1333    2.6900 C   0  0  1  0  0  0  0  0  0  0  0  0
    1.4833    2.2550    2.9733 O   0  0  0  0  0  0  0  0  0  0  0  0
    1.2495   -0.2215    3.2506 C   0  0  1  0  0  0  0  0  0  0  0  0
    2.7330   -0.5881    2.8187 C   0  0  0  0  0  0  0  0  0  0  0  0
    2.7811   -0.9419    1.3146 C   0  0  0  0  0  0  0  0  0  0  0  0
    3.7740    0.5275    3.0542 C   0  0  0  0  0  0  0  0  0  0  0  0
    3.2169   -1.8370    3.5764 C   0  0  0  0  0  0  0  0  0  0  0  0
    3.2046   -1.6042    5.0829 C   0  0  0  0  0  0  0  0  0  0  0  0
    1.7611   -1.4990    5.5676 C   0  0  1  0  0  0  0  0  0  0  0  0
    1.7466   -1.2433    6.9568 O   0  0  0  0  0  0  0  0  0  0  0  0
    0.7626   -0.5955    4.7255 C   0  0  1  0  0  0  0  0  0  0  0  0
   -0.4667   -1.5508    4.5943 C   0  0  0  0  0  0  0  0  0  0  0  0
   -1.3651    2.7459    5.5090 C   0  0  2  0  0  0  0  0  0  0  0  0
   -2.3665    3.5082    4.8722 O   0  0  0  0  0  0  0  0  0  0  0  0
   -1.7512    2.5264    7.0025 C   0  0  1  0  0  0  0  0  0  0  0  0
   -2.5614    1.3868    7.2362 O   0  0  0  0  0  0  0  0  0  0  0  0
   -0.3972    2.5566    7.7667 C   0  0  1  0  0  0  0  0  0  0  0  0
   -0.0937    1.3934    8.5280 O   0  0  0  0  0  0  0  0  0  0  0  0
    0.0573    4.3138    3.6843 H   0  0  0  0  0  0  0  0  0  0  0  0
    1.5382    4.4566    4.6431 H   0  0  0  0  0  0  0  0  0  0  0  0
    0.1584    5.5152    4.9622 H   0  0  0  0  0  0  0  0  0  0  0  0
   -0.2488    0.2485    6.3895 H   0  0  0  0  0  0  0  0  0  0  0  0
   -1.8656    0.7835    4.8753 H   0  0  0  0  0  0  0  0  0  0  0  0
   -1.3573    0.6332    2.7937 H   0  0  0  0  0  0  0  0  0  0  0  0
   -0.6821    2.9943    1.9744 H   0  0  0  0  0  0  0  0  0  0  0  0
    0.6447    1.0527    1.6004 H   0  0  0  0  0  0  0  0  0  0  0  0
    1.2352    2.9683    2.3966 H   0  0  0  0  0  0  0  0  0  0  0  0
    0.6946   -0.9363    2.6484 H   0  0  0  0  0  0  0  0  0  0  0  0
    3.7869   -1.2150    0.9934 H   0  0  0  0  0  0  0  0  0  0  0  0
    2.4592   -0.1082    0.6924 H   0  0  0  0  0  0  0  0  0  0  0  0
    2.1356   -1.7891    1.0815 H   0  0  0  0  0  0  0  0  0  0  0  0
    4.7939    0.1385    3.0316 H   0  0  0  0  0  0  0  0  0  0  0  0
    3.6388    1.0282    4.0102 H   0  0  0  0  0  0  0  0  0  0  0  0
    3.7143    1.2902    2.2788 H   0  0  0  0  0  0  0  0  0  0  0  0
    2.5866   -2.6933    3.3307 H   0  0  0  0  0  0  0  0  0  0  0  0
    4.2236   -2.1095    3.2530 H   0  0  0  0  0  0  0  0  0  0  0  0
    3.6891   -2.4479    5.5721 H   0  0  0  0  0  0  0  0  0  0  0  0
    3.7902   -0.7316    5.3631 H   0  0  0  0  0  0  0  0  0  0  0  0
    1.4260   -2.5351    5.5204 H   0  0  0  0  0  0  0  0  0  0  0  0
    2.1657   -0.4015    7.0976 H   0  0  0  0  0  0  0  0  0  0  0  0
   -0.1964   -2.4881    4.1081 H   0  0  0  0  0  0  0  0  0  0  0  0
   -1.2801   -1.1488    4.0059 H   0  0  0  0  0  0  0  0  0  0  0  0
   -0.8809   -1.8059    5.5691 H   0  0  0  0  0  0  0  0  0  0  0  0
   -2.2662    3.3305    3.9414 H   0  0  0  0  0  0  0  0  0  0  0  0
   -2.3343    3.3813    7.3480 H   0  0  0  0  0  0  0  0  0  0  0  0
   -3.3861    1.5518    6.8045 H   0  0  0  0  0  0  0  0  0  0  0  0
   -0.4349    3.3918    8.4748 H   0  0  0  0  0  0  0  0  0  0  0  0
    0.5232    1.6379    9.2025 H   0  0  0  0  0  0  0  0  0  0  0  0
  1  2  1  0
  1 28  1  0
  1 29  1  0
  1 30  1  0
  2 22  1  0
  2  3  2  0
  3 26  1  0
  3  4  1  0
  4  5  2  0
  4  6  1  0
  6 20  1  0
  6  7  1  0
  6 31  1  1
  7  8  1  0
  7 22  1  0
  7 32  1  6
  8  9  1  0
  8 10  1  0
  8 33  1  6
  9 34  1  0
 10 11  1  0
 10 12  1  0
 10 35  1  6
 11 36  1  0
 12 20  1  0
 12 13  1  0
 12 37  1  6
 13 14  1  0
 13 15  1  0
 13 16  1  0
 14 38  1  0
 14 39  1  0
 14 40  1  0
 15 41  1  0
 15 42  1  0
 15 43  1  0
 16 17  1  0
 16 44  1  0
 16 45  1  0
 17 18  1  0
 17 46  1  0
 17 47  1  0
 18 19  1  0
 18 20  1  0
 18 48  1  1
 19 49  1  0
 20 21  1  6
 21 50  1  0
 21 51  1  0
 21 52  1  0
 22 23  1  6
 22 24  1  0
 23 53  1  0
 24 25  1  0
 24 26  1  0
 24 54  1  1
 25 55  1  0
 26 27  1  0
 26 56  1  1
 27 57  1  0
M  END
>  <i_m_ct_stereo_status>  (111) 
1

>  <s_m_source_file>  (111) 
/var/tmp/pbs.5076255.sched01/tmp7rtc4ovb/41r77q45k8.sdf

>  <i_m_source_file_index>  (111) 
6

>  <i_lp_mmshare_version>  (111) 
48012

>  <i_f3d_flags>  (111) 
1

>  <s_epik_input>  (111) 
W09IXVtDQEhdMVtDQEBIXShbT0hdKUMoQzI9Tyk9QyhbQ0gzXSlbQ0BAXTEoW09IXSlbQ0BIXShbQ0BIXTJbQ0BAXTM0W0NIM10pW0NAQEhdKFtPSF0pW0NAQEhdKFtPSF0pW0NASF0zQyhbQ0gzXSkoW0NIM10pW0NIMl1bQ0gyXVtDQEhdNFtPSF0=

>  <s_epik_cmdline>  (111) 
J2VwaWtfcHl0aG9uJywgJy1waHQnLCAnMi4wJywgJy1waCcsICc3LjAnLCAnLXRuJywgJzgnLCAnLW1hJywgJzIwMCcsICctaW1hZScsICc8aW5maWxlLm1hZT4nLCAnLW9tYWUnLCAnPG91dGZpbGUubWFlPic=

>  <r_lp_tautomer_probability>  (111) 
1

>  <r_epik_Ionization_Penalty>  (111) 
1.477e-05

>  <r_epik_Ionization_Penalty_Charging>  (111) 
0

>  <r_epik_Ionization_Penalty_Neutral>  (111) 
1.477e-05

>  <r_epik_State_Penalty>  (111) 
-0

>  <r_epik_Charging_Adjusted_Penalty>  (111) 
0

>  <i_epik_Tot_Q>  (111) 
0

>  <i_epik_Tot_abs_Q>  (111) 
0

>  <s_lp_Force_Field>  (111) 
OPLS3e

>  <r_lp_Energy>  (111) 
115.686

>  <b_lp_Chiralities_Consistent>  (111) 
1

>  <s_lp_Variant>  (111) 
31:0-1

>  <s_i_glide_gridfile>  (111) 
pfpi4k_grid

>  <i_i_glide_lignum>  (111) 
6

>  <i_i_glide_rotatable_bonds>  (111) 
6

>  <r_i_docking_score>  (111) 
-4.21592

>  <r_i_glide_ligand_efficiency>  (111) 
-0.156145

>  <r_i_glide_ligand_efficiency_sa>  (111) 
-0.468436

>  <r_i_glide_ligand_efficiency_ln>  (111) 
-0.981398

>  <r_i_glide_gscore>  (111) 
-4.21592

>  <r_i_glide_lipo>  (111) 
-0.0373569

>  <r_i_glide_hbond>  (111) 
0

>  <r_i_glide_metal>  (111) 
-0

>  <r_i_glide_rewards>  (111) 
-1.80149

>  <r_i_glide_evdw>  (111) 
-21.9601

>  <r_i_glide_ecoul>  (111) 
-8.52716

>  <r_i_glide_erotb>  (111) 
0

>  <r_i_glide_esite>  (111) 
0

>  <r_i_glide_emodel>  (111) 
-48.7641

>  <r_i_glide_energy>  (111) 
-30.4872

>  <r_i_glide_einternal>  (111) 
2.72056

>  <r_i_glide_intrahb_reward>  (111) 
-1

>  <i_i_glide_confnum>  (111) 
2

>  <i_i_glide_posenum>  (111) 
1

>  <r_i_glide_eff_state_penalty>  (111) 
0

>  <ligand_id>  (111) 
31

>  <original_smiles>  (111) 
CC1=C2C(=O)C3C(C(O)C(O)C4C(C)(C)CCC(O)C34C)C1(O)C(O)C2O

>  <smiles>  (111) 
[H]OC1([H])C2=C(C([H])([H])[H])C(O[H])(C1([H])O[H])C1([H])C([H])(O[H])C([H])(O[H])C3([H])C(C([H])([H])[H])(C([H])([H])[H])C([H])([H])C([H])([H])C([H])(O[H])C3(C([H])([H])[H])C1([H])C2=O

$$$$
31:0:1
     RDKit          3D

 57 60  0  0  1  0  0  0  0  0999 V2000
   -0.4920   -0.0807    4.1641 C   0  0  0  0  0  0  0  0  0  0  0  0
    0.6039    0.9412    3.9846 C   0  0  0  0  0  0  0  0  0  0  0  0
    1.7311    1.0264    4.7212 C   0  0  0  0  0  0  0  0  0  0  0  0
    1.3887    1.8700    5.8957 C   0  0  0  0  0  0  0  0  0  0  0  0
    1.4862    1.4641    7.0471 O   0  0  0  0  0  0  0  0  0  0  0  0
    0.8513    3.3128    5.5712 C   0  0  1  0  0  0  0  0  0  0  0  0
   -0.0943    3.2931    4.2992 C   0  0  2  0  0  0  0  0  0  0  0  0
   -1.6117    3.2933    4.7152 C   0  0  1  0  0  0  0  0  0  0  0  0
   -2.5274    2.6796    3.8348 O   0  0  0  0  0  0  0  0  0  0  0  0
   -1.9455    2.9164    6.1818 C   0  0  1  0  0  0  0  0  0  0  0  0
   -1.7779    1.5263    6.3589 O   0  0  0  0  0  0  0  0  0  0  0  0
   -1.1427    3.7776    7.2228 C   0  0  1  0  0  0  0  0  0  0  0  0
   -1.4056    3.4543    8.7492 C   0  0  0  0  0  0  0  0  0  0  0  0
   -2.8419    3.8703    9.1577 C   0  0  0  0  0  0  0  0  0  0  0  0
   -1.2582    1.9613    9.1297 C   0  0  0  0  0  0  0  0  0  0  0  0
   -0.4419    4.2535    9.6358 C   0  0  0  0  0  0  0  0  0  0  0  0
    1.0113    3.9318    9.2924 C   0  0  0  0  0  0  0  0  0  0  0  0
    1.3482    4.4895    7.9111 C   0  0  1  0  0  0  0  0  0  0  0  0
    2.6815    4.1549    7.5976 O   0  0  0  0  0  0  0  0  0  0  0  0
    0.3124    4.2231    6.7474 C   0  0  1  0  0  0  0  0  0  0  0  0
    0.1941    5.6531    6.1267 C   0  0  0  0  0  0  0  0  0  0  0  0
    0.4090    2.2378    3.2412 C   0  0  2  0  0  0  0  0  0  0  0  0
   -0.3910    2.0968    2.0872 O   0  0  0  0  0  0  0  0  0  0  0  0
    1.8751    2.4714    2.7682 C   0  0  1  0  0  0  0  0  0  0  0  0
    2.2156    3.8263    2.5294 O   0  0  0  0  0  0  0  0  0  0  0  0
    2.7454    1.7465    3.8363 C   0  0  1  0  0  0  0  0  0  0  0  0
    3.6802    2.5902    4.4913 O   0  0  0  0  0  0  0  0  0  0  0  0
   -1.4833    0.3555    4.0406 H   0  0  0  0  0  0  0  0  0  0  0  0
   -0.4308   -0.5681    5.1410 H   0  0  0  0  0  0  0  0  0  0  0  0
   -0.3742   -0.8504    3.4017 H   0  0  0  0  0  0  0  0  0  0  0  0
    1.7445    3.8277    5.2246 H   0  0  0  0  0  0  0  0  0  0  0  0
    0.0394    4.2446    3.7856 H   0  0  0  0  0  0  0  0  0  0  0  0
   -1.9292    4.3263    4.6274 H   0  0  0  0  0  0  0  0  0  0  0  0
   -2.1930    2.7362    2.9487 H   0  0  0  0  0  0  0  0  0  0  0  0
   -3.0101    3.0951    6.3449 H   0  0  0  0  0  0  0  0  0  0  0  0
   -0.8757    1.3182    6.1468 H   0  0  0  0  0  0  0  0  0  0  0  0
   -1.6845    4.7148    7.1638 H   0  0  0  0  0  0  0  0  0  0  0  0
   -3.0268    3.6673   10.2147 H   0  0  0  0  0  0  0  0  0  0  0  0
   -3.6069    3.3434    8.5888 H   0  0  0  0  0  0  0  0  0  0  0  0
   -3.0042    4.9367    9.0169 H   0  0  0  0  0  0  0  0  0  0  0  0
   -1.1312    1.8290   10.2095 H   0  0  0  0  0  0  0  0  0  0  0  0
   -0.3919    1.5080    8.6528 H   0  0  0  0  0  0  0  0  0  0  0  0
   -2.1301    1.3769    8.8416 H   0  0  0  0  0  0  0  0  0  0  0  0
   -0.6143    5.3225    9.5087 H   0  0  0  0  0  0  0  0  0  0  0  0
   -0.6313    4.0452   10.6931 H   0  0  0  0  0  0  0  0  0  0  0  0
    1.6585    4.4008   10.0343 H   0  0  0  0  0  0  0  0  0  0  0  0
    1.2175    2.8674    9.3618 H   0  0  0  0  0  0  0  0  0  0  0  0
    1.4029    5.5598    8.1011 H   0  0  0  0  0  0  0  0  0  0  0  0
    2.9370    4.6051    6.8031 H   0  0  0  0  0  0  0  0  0  0  0  0
   -0.1171    6.3916    6.8626 H   0  0  0  0  0  0  0  0  0  0  0  0
   -0.5237    5.7412    5.3195 H   0  0  0  0  0  0  0  0  0  0  0  0
    1.1521    5.9912    5.7294 H   0  0  0  0  0  0  0  0  0  0  0  0
   -0.1883    2.8415    1.5162 H   0  0  0  0  0  0  0  0  0  0  0  0
    2.0395    1.9553    1.8217 H   0  0  0  0  0  0  0  0  0  0  0  0
    1.6057    4.1460    1.8705 H   0  0  0  0  0  0  0  0  0  0  0  0
    3.3293    0.9690    3.3327 H   0  0  0  0  0  0  0  0  0  0  0  0
    4.2712    2.8912    3.8168 H   0  0  0  0  0  0  0  0  0  0  0  0
  1  2  1  0
  1 28  1  0
  1 29  1  0
  1 30  1  0
  2 22  1  0
  2  3  2  0
  3 26  1  0
  3  4  1  0
  4  5  2  0
  4  6  1  0
  6 20  1  0
  6  7  1  0
  6 31  1  6
  7  8  1  0
  7 22  1  0
  7 32  1  6
  8  9  1  0
  8 10  1  0
  8 33  1  1
  9 34  1  0
 10 11  1  0
 10 12  1  0
 10 35  1  1
 11 36  1  0
 12 20  1  0
 12 13  1  0
 12 37  1  1
 13 14  1  0
 13 15  1  0
 13 16  1  0
 14 38  1  0
 14 39  1  0
 14 40  1  0
 15 41  1  0
 15 42  1  0
 15 43  1  0
 16 17  1  0
 16 44  1  0
 16 45  1  0
 17 18  1  0
 17 46  1  0
 17 47  1  0
 18 19  1  0
 18 20  1  0
 18 48  1  1
 19 49  1  0
 20 21  1  6
 21 50  1  0
 21 51  1  0
 21 52  1  0
 22 23  1  6
 22 24  1  0
 23 53  1  0
 24 25  1  0
 24 26  1  0
 24 54  1  6
 25 55  1  0
 26 27  1  0
 26 56  1  6
 27 57  1  0
M  END
>  <i_m_ct_stereo_status>  (112) 
1

>  <s_m_source_file>  (112) 
/var/tmp/pbs.5076255.sched01/tmp7rtc4ovb/41r77q45k8.sdf

>  <i_m_source_file_index>  (112) 
6

>  <i_lp_mmshare_version>  (112) 
48012

>  <i_f3d_flags>  (112) 
1

>  <s_epik_input>  (112) 
W09IXVtDQEhdMVtDQEBIXShbT0hdKUMoQzI9Tyk9QyhbQ0gzXSlbQ0BAXTEoW09IXSlbQ0BIXShbQ0BIXTJbQ0BAXTM0W0NIM10pW0NAQEhdKFtPSF0pW0NAQEhdKFtPSF0pW0NASF0zQyhbQ0gzXSkoW0NIM10pW0NIMl1bQ0gyXVtDQEhdNFtPSF0=

>  <s_epik_cmdline>  (112) 
J2VwaWtfcHl0aG9uJywgJy1waHQnLCAnMi4wJywgJy1waCcsICc3LjAnLCAnLXRuJywgJzgnLCAnLW1hJywgJzIwMCcsICctaW1hZScsICc8aW5maWxlLm1hZT4nLCAnLW9tYWUnLCAnPG91dGZpbGUubWFlPic=

>  <r_lp_tautomer_probability>  (112) 
1

>  <r_epik_Ionization_Penalty>  (112) 
1.477e-05

>  <r_epik_Ionization_Penalty_Charging>  (112) 
0

>  <r_epik_Ionization_Penalty_Neutral>  (112) 
1.477e-05

>  <r_epik_State_Penalty>  (112) 
-0

>  <r_epik_Charging_Adjusted_Penalty>  (112) 
0

>  <i_epik_Tot_Q>  (112) 
0

>  <i_epik_Tot_abs_Q>  (112) 
0

>  <s_lp_Force_Field>  (112) 
OPLS3e

>  <r_lp_Energy>  (112) 
115.686

>  <b_lp_Chiralities_Consistent>  (112) 
1

>  <s_lp_Variant>  (112) 
31:0-1

>  <s_i_glide_gridfile>  (112) 
pfpi4k_grid

>  <i_i_glide_lignum>  (112) 
6

>  <i_i_glide_rotatable_bonds>  (112) 
6

>  <r_i_docking_score>  (112) 
-3.83534

>  <r_i_glide_ligand_efficiency>  (112) 
-0.14205

>  <r_i_glide_ligand_efficiency_sa>  (112) 
-0.426149

>  <r_i_glide_ligand_efficiency_ln>  (112) 
-0.892805

>  <r_i_glide_gscore>  (112) 
-3.83534

>  <r_i_glide_lipo>  (112) 
-0.0776048

>  <r_i_glide_hbond>  (112) 
0

>  <r_i_glide_metal>  (112) 
-0

>  <r_i_glide_rewards>  (112) 
-1.30149

>  <r_i_glide_evdw>  (112) 
-23.0976

>  <r_i_glide_ecoul>  (112) 
-8.67579

>  <r_i_glide_erotb>  (112) 
0

>  <r_i_glide_esite>  (112) 
0

>  <r_i_glide_emodel>  (112) 
-44.6909

>  <r_i_glide_energy>  (112) 
-31.7734

>  <r_i_glide_einternal>  (112) 
1.92858

>  <r_i_glide_intrahb_reward>  (112) 
-0.5

>  <i_i_glide_confnum>  (112) 
2

>  <i_i_glide_posenum>  (112) 
18

>  <r_i_glide_eff_state_penalty>  (112) 
0

>  <ligand_id>  (112) 
31

>  <original_smiles>  (112) 
CC1=C2C(=O)C3C(C(O)C(O)C4C(C)(C)CCC(O)C34C)C1(O)C(O)C2O

>  <smiles>  (112) 
[H]OC1([H])C2=C(C([H])([H])[H])C(O[H])(C1([H])O[H])C1([H])C([H])(O[H])C([H])(O[H])C3([H])C(C([H])([H])[H])(C([H])([H])[H])C([H])([H])C([H])([H])C([H])(O[H])C3(C([H])([H])[H])C1([H])C2=O

$$$$
31:0:2
     RDKit          3D

 57 60  0  0  1  0  0  0  0  0999 V2000
    1.6043   -2.3512    4.8083 C   0  0  0  0  0  0  0  0  0  0  0  0
    2.7166   -1.3514    5.0067 C   0  0  0  0  0  0  0  0  0  0  0  0
    2.9030   -0.5849    6.0913 C   0  0  0  0  0  0  0  0  0  0  0  0
    2.1254    0.6573    5.8376 C   0  0  0  0  0  0  0  0  0  0  0  0
    1.2782    1.0751    6.6173 O   0  0  0  0  0  0  0  0  0  0  0  0
    2.4889    1.4517    4.5292 C   0  0  1  0  0  0  0  0  0  0  0  0
    2.8275    0.4694    3.3389 C   0  0  2  0  0  0  0  0  0  0  0  0
    1.6052    0.3089    2.3570 C   0  0  1  0  0  0  0  0  0  0  0  0
    1.5477   -0.9356    1.6793 O   0  0  0  0  0  0  0  0  0  0  0  0
    0.2169    0.7620    2.8993 C   0  0  1  0  0  0  0  0  0  0  0  0
   -0.2393   -0.1825    3.8411 O   0  0  0  0  0  0  0  0  0  0  0  0
    0.2290    2.2353    3.4507 C   0  0  1  0  0  0  0  0  0  0  0  0
   -1.1341    2.7755    4.0445 C   0  0  0  0  0  0  0  0  0  0  0  0
   -2.1833    2.9637    2.9235 C   0  0  0  0  0  0  0  0  0  0  0  0
   -1.7829    1.8630    5.1089 C   0  0  0  0  0  0  0  0  0  0  0  0
   -0.9338    4.1528    4.6854 C   0  0  0  0  0  0  0  0  0  0  0  0
    0.1011    4.0906    5.8056 C   0  0  0  0  0  0  0  0  0  0  0  0
    1.4855    3.8213    5.2102 C   0  0  1  0  0  0  0  0  0  0  0  0
    2.4360    3.7067    6.2450 O   0  0  0  0  0  0  0  0  0  0  0  0
    1.5989    2.6886    4.1143 C   0  0  1  0  0  0  0  0  0  0  0  0
    2.4268    3.4323    3.0197 C   0  0  0  0  0  0  0  0  0  0  0  0
    3.5561   -0.8282    3.8737 C   0  0  2  0  0  0  0  0  0  0  0  0
    3.8203   -1.8263    2.9184 O   0  0  0  0  0  0  0  0  0  0  0  0
    4.8625   -0.5204    4.6623 C   0  0  1  0  0  0  0  0  0  0  0  0
    5.6731    0.5010    4.1227 O   0  0  0  0  0  0  0  0  0  0  0  0
    4.3923   -0.2420    6.1240 C   0  0  1  0  0  0  0  0  0  0  0  0
    4.7392    1.0242    6.6951 O   0  0  0  0  0  0  0  0  0  0  0  0
    1.2162   -2.3316    3.7883 H   0  0  0  0  0  0  0  0  0  0  0  0
    0.7806   -2.1587    5.5050 H   0  0  0  0  0  0  0  0  0  0  0  0
    1.9776   -3.3605    4.9993 H   0  0  0  0  0  0  0  0  0  0  0  0
    3.4463    1.9001    4.7813 H   0  0  0  0  0  0  0  0  0  0  0  0
    3.5813    0.9645    2.7271 H   0  0  0  0  0  0  0  0  0  0  0  0
    1.7923    0.9942    1.5349 H   0  0  0  0  0  0  0  0  0  0  0  0
    1.1856   -0.8126    0.7853 H   0  0  0  0  0  0  0  0  0  0  0  0
   -0.5082    0.7211    2.0787 H   0  0  0  0  0  0  0  0  0  0  0  0
    0.3758   -0.2015    4.5661 H   0  0  0  0  0  0  0  0  0  0  0  0
    0.2441    2.7914    2.5186 H   0  0  0  0  0  0  0  0  0  0  0  0
   -3.1311    3.3489    3.3056 H   0  0  0  0  0  0  0  0  0  0  0  0
   -2.4009    2.0355    2.3970 H   0  0  0  0  0  0  0  0  0  0  0  0
   -1.8350    3.6745    2.1781 H   0  0  0  0  0  0  0  0  0  0  0  0
   -2.5330    2.4002    5.7003 H   0  0  0  0  0  0  0  0  0  0  0  0
   -1.0550    1.4622    5.8106 H   0  0  0  0  0  0  0  0  0  0  0  0
   -2.2952    1.0112    4.6538 H   0  0  0  0  0  0  0  0  0  0  0  0
   -0.6053    4.8673    3.9313 H   0  0  0  0  0  0  0  0  0  0  0  0
   -1.8834    4.5254    5.0731 H   0  0  0  0  0  0  0  0  0  0  0  0
    0.1098    5.0513    6.3297 H   0  0  0  0  0  0  0  0  0  0  0  0
   -0.1730    3.3561    6.5635 H   0  0  0  0  0  0  0  0  0  0  0  0
    1.7268    4.7853    4.7600 H   0  0  0  0  0  0  0  0  0  0  0  0
    2.2109    2.9323    6.7559 H   0  0  0  0  0  0  0  0  0  0  0  0
    1.9375    4.3455    2.6769 H   0  0  0  0  0  0  0  0  0  0  0  0
    2.5968    2.8603    2.1143 H   0  0  0  0  0  0  0  0  0  0  0  0
    3.4088    3.7269    3.3946 H   0  0  0  0  0  0  0  0  0  0  0  0
    3.0838   -1.8014    2.3161 H   0  0  0  0  0  0  0  0  0  0  0  0
    5.4903   -1.4168    4.6850 H   0  0  0  0  0  0  0  0  0  0  0  0
    6.0474    0.1534    3.3207 H   0  0  0  0  0  0  0  0  0  0  0  0
    4.8671   -0.9919    6.7580 H   0  0  0  0  0  0  0  0  0  0  0  0
    4.5770    1.7198    6.0694 H   0  0  0  0  0  0  0  0  0  0  0  0
  1  2  1  0
  1 28  1  0
  1 29  1  0
  1 30  1  0
  2 22  1  0
  2  3  2  0
  3 26  1  0
  3  4  1  0
  4  5  2  0
  4  6  1  0
  6 20  1  0
  6  7  1  0
  6 31  1  1
  7  8  1  0
  7 22  1  0
  7 32  1  6
  8  9  1  0
  8 10  1  0
  8 33  1  6
  9 34  1  0
 10 11  1  0
 10 12  1  0
 10 35  1  6
 11 36  1  0
 12 20  1  0
 12 13  1  0
 12 37  1  6
 13 14  1  0
 13 15  1  0
 13 16  1  0
 14 38  1  0
 14 39  1  0
 14 40  1  0
 15 41  1  0
 15 42  1  0
 15 43  1  0
 16 17  1  0
 16 44  1  0
 16 45  1  0
 17 18  1  0
 17 46  1  0
 17 47  1  0
 18 19  1  0
 18 20  1  0
 18 48  1  6
 19 49  1  0
 20 21  1  6
 21 50  1  0
 21 51  1  0
 21 52  1  0
 22 23  1  6
 22 24  1  0
 23 53  1  0
 24 25  1  0
 24 26  1  0
 24 54  1  1
 25 55  1  0
 26 27  1  0
 26 56  1  1
 27 57  1  0
M  END
>  <i_m_ct_stereo_status>  (113) 
1

>  <s_m_source_file>  (113) 
/var/tmp/pbs.5076255.sched01/tmp7rtc4ovb/41r77q45k8.sdf

>  <i_m_source_file_index>  (113) 
6

>  <i_lp_mmshare_version>  (113) 
48012

>  <i_f3d_flags>  (113) 
1

>  <s_epik_input>  (113) 
W09IXVtDQEhdMVtDQEBIXShbT0hdKUMoQzI9Tyk9QyhbQ0gzXSlbQ0BAXTEoW09IXSlbQ0BIXShbQ0BIXTJbQ0BAXTM0W0NIM10pW0NAQEhdKFtPSF0pW0NAQEhdKFtPSF0pW0NASF0zQyhbQ0gzXSkoW0NIM10pW0NIMl1bQ0gyXVtDQEhdNFtPSF0=

>  <s_epik_cmdline>  (113) 
J2VwaWtfcHl0aG9uJywgJy1waHQnLCAnMi4wJywgJy1waCcsICc3LjAnLCAnLXRuJywgJzgnLCAnLW1hJywgJzIwMCcsICctaW1hZScsICc8aW5maWxlLm1hZT4nLCAnLW9tYWUnLCAnPG91dGZpbGUubWFlPic=

>  <r_lp_tautomer_probability>  (113) 
1

>  <r_epik_Ionization_Penalty>  (113) 
1.477e-05

>  <r_epik_Ionization_Penalty_Charging>  (113) 
0

>  <r_epik_Ionization_Penalty_Neutral>  (113) 
1.477e-05

>  <r_epik_State_Penalty>  (113) 
-0

>  <r_epik_Charging_Adjusted_Penalty>  (113) 
0

>  <i_epik_Tot_Q>  (113) 
0

>  <i_epik_Tot_abs_Q>  (113) 
0

>  <s_lp_Force_Field>  (113) 
OPLS3e

>  <r_lp_Energy>  (113) 
115.686

>  <b_lp_Chiralities_Consistent>  (113) 
1

>  <s_lp_Variant>  (113) 
31:0-1

>  <s_i_glide_gridfile>  (113) 
pfpi4k_grid

>  <i_i_glide_lignum>  (113) 
6

>  <i_i_glide_rotatable_bonds>  (113) 
6

>  <r_i_docking_score>  (113) 
-3.62616

>  <r_i_glide_ligand_efficiency>  (113) 
-0.134302

>  <r_i_glide_ligand_efficiency_sa>  (113) 
-0.402907

>  <r_i_glide_ligand_efficiency_ln>  (113) 
-0.84411

>  <r_i_glide_gscore>  (113) 
-3.62616

>  <r_i_glide_lipo>  (113) 
-0.057337

>  <r_i_glide_hbond>  (113) 
0

>  <r_i_glide_metal>  (113) 
-0

>  <r_i_glide_rewards>  (113) 
-1.80149

>  <r_i_glide_evdw>  (113) 
-22.244

>  <r_i_glide_ecoul>  (113) 
-4.36755

>  <r_i_glide_erotb>  (113) 
0

>  <r_i_glide_esite>  (113) 
0

>  <r_i_glide_emodel>  (113) 
-44.2276

>  <r_i_glide_energy>  (113) 
-26.6115

>  <r_i_glide_einternal>  (113) 
1.3734

>  <r_i_glide_intrahb_reward>  (113) 
-1

>  <i_i_glide_confnum>  (113) 
2

>  <i_i_glide_posenum>  (113) 
30

>  <r_i_glide_eff_state_penalty>  (113) 
0

>  <ligand_id>  (113) 
31

>  <original_smiles>  (113) 
CC1=C2C(=O)C3C(C(O)C(O)C4C(C)(C)CCC(O)C34C)C1(O)C(O)C2O

>  <smiles>  (113) 
[H]OC1([H])C2=C(C([H])([H])[H])C(O[H])(C1([H])O[H])C1([H])C([H])(O[H])C([H])(O[H])C3([H])C(C([H])([H])[H])(C([H])([H])[H])C([H])([H])C([H])([H])C([H])(O[H])C3(C([H])([H])[H])C1([H])C2=O

$$$$
32:3:0
     RDKit          3D

 64 69  0  0  1  0  0  0  0  0999 V2000
    1.1706   -2.1660    3.4722 C   0  0  0  0  0  0  0  0  0  0  0  0
    0.9358   -3.4027    4.3202 C   0  0  0  0  0  0  0  0  0  0  0  0
    0.1380   -3.2313    5.3951 F   0  0  0  0  0  0  0  0  0  0  0  0
    1.4121   -4.6560    4.1168 C   0  0  0  0  0  0  0  0  0  0  0  0
    1.0476   -5.8142    5.0773 C   0  0  0  0  0  0  0  0  0  0  0  0
    2.0395   -6.9860    4.8093 C   0  0  0  0  0  0  0  0  0  0  0  0
    3.1143   -6.2973    3.9873 C   0  0  1  0  0  0  0  0  0  0  0  0
    4.6945   -6.7143    4.1328 C   0  0  1  0  0  0  0  0  0  0  0  0
    5.9647   -7.2978    3.3182 C   0  0  1  0  0  0  0  0  0  0  0  0
    6.2139   -7.7705    1.8771 C   0  0  0  0  0  0  0  0  0  0  0  0
    6.7038   -6.4987    1.2069 C   0  0  0  0  0  0  0  0  0  0  0  0
    6.6852   -5.4252    2.0058 C   0  0  0  0  0  0  0  0  0  0  0  0
    6.6226   -3.9252    1.5119 C   0  0  0  0  0  0  0  0  0  0  0  0
    5.3310   -3.1336    0.9203 C   0  0  1  0  0  0  0  0  0  0  0  0
    5.3093   -2.7055   -0.5514 C   0  0  1  0  0  0  0  0  0  0  0  0
    5.6275   -3.8255   -1.5418 C   0  0  0  0  0  0  0  0  0  0  0  0
    3.8459   -2.2866   -0.7107 C   0  0  0  0  0  0  0  0  0  0  0  0
    3.4776   -1.5909   -1.6520 O   0  0  0  0  0  0  0  0  0  0  0  0
    3.0053   -2.8750    0.3462 C   0  0  0  0  0  0  0  0  0  0  0  0
    3.8237   -3.4371    1.2395 C   0  0  0  0  0  0  0  0  0  0  0  0
    3.5905   -4.4683    2.3597 C   0  0  1  0  0  0  0  0  0  0  0  0
    4.0024   -5.6285    1.3451 C   0  0  0  0  0  0  0  0  0  0  0  0
    4.3156   -3.6322    3.5485 C   0  0  0  0  0  0  0  0  0  0  0  0
    5.2779   -4.1362    4.6356 C   0  0  1  0  0  0  0  0  0  0  0  0
    4.7505   -3.8093    5.9184 O   0  0  0  0  0  0  0  0  0  0  0  0
    5.6753   -5.5781    4.5147 C   0  0  1  0  0  0  0  0  0  0  0  0
    6.2201   -5.9191    5.6847 F   0  0  0  0  0  0  0  0  0  0  0  0
    6.7185   -5.9557    3.4540 C   0  0  1  0  0  0  0  0  0  0  0  0
    8.1985   -6.0351    3.8755 C   0  0  0  0  0  0  0  0  0  0  0  0
    2.3455   -5.2487    3.0166 C   0  0  2  0  0  0  0  0  0  0  0  0
    1.2624   -5.8545    2.0017 C   0  0  0  0  0  0  0  0  0  0  0  0
    1.3115   -5.4720    0.8311 O   0  0  0  0  0  0  0  0  0  0  0  0
    0.3079   -6.5298    2.4581 O   0  0  0  0  0  0  0  0  0  0  0  0
    1.6877   -2.3947    2.5463 H   0  0  0  0  0  0  0  0  0  0  0  0
    1.7428   -1.4148    4.0238 H   0  0  0  0  0  0  0  0  0  0  0  0
    0.2165   -1.7107    3.2121 H   0  0  0  0  0  0  0  0  0  0  0  0
    1.0612   -5.5108    6.1251 H   0  0  0  0  0  0  0  0  0  0  0  0
    0.0330   -6.1481    4.8788 H   0  0  0  0  0  0  0  0  0  0  0  0
    2.4098   -7.4283    5.7329 H   0  0  0  0  0  0  0  0  0  0  0  0
    1.6008   -7.7893    4.2164 H   0  0  0  0  0  0  0  0  0  0  0  0
    3.2832   -5.6212    4.8250 H   0  0  0  0  0  0  0  0  0  0  0  0
    4.6984   -7.4072    4.9768 H   0  0  0  0  0  0  0  0  0  0  0  0
    6.4271   -8.0261    3.9910 H   0  0  0  0  0  0  0  0  0  0  0  0
    7.0249   -8.4942    1.8116 H   0  0  0  0  0  0  0  0  0  0  0  0
    5.3373   -8.2116    1.4001 H   0  0  0  0  0  0  0  0  0  0  0  0
    6.7044   -6.3849    0.1432 H   0  0  0  0  0  0  0  0  0  0  0  0
    6.8532   -3.3159    2.3640 H   0  0  0  0  0  0  0  0  0  0  0  0
    7.4695   -3.7734    0.8408 H   0  0  0  0  0  0  0  0  0  0  0  0
    5.6418   -3.4589   -2.5700 H   0  0  0  0  0  0  0  0  0  0  0  0
    4.9043   -4.6422   -1.5026 H   0  0  0  0  0  0  0  0  0  0  0  0
    6.6051   -4.2247   -1.3013 H   0  0  0  0  0  0  0  0  0  0  0  0
    1.9221   -2.9721    0.2791 H   0  0  0  0  0  0  0  0  0  0  0  0
    5.9580   -1.8467   -0.7346 H   0  0  0  0  0  0  0  0  0  0  0  0
    5.4616   -2.1538    1.3760 H   0  0  0  0  0  0  0  0  0  0  0  0
    3.3379   -5.7668    0.5190 H   0  0  0  0  0  0  0  0  0  0  0  0
    4.0056   -6.6341    1.7439 H   0  0  0  0  0  0  0  0  0  0  0  0
    4.7595   -5.4319    0.6049 H   0  0  0  0  0  0  0  0  0  0  0  0
    4.7753   -2.6897    3.2498 H   0  0  0  0  0  0  0  0  0  0  0  0
    3.5050   -3.1747    4.1003 H   0  0  0  0  0  0  0  0  0  0  0  0
    6.1915   -3.5434    4.5873 H   0  0  0  0  0  0  0  0  0  0  0  0
    3.9655   -4.3135    6.0631 H   0  0  0  0  0  0  0  0  0  0  0  0
    8.3500   -6.6581    4.7591 H   0  0  0  0  0  0  0  0  0  0  0  0
    8.6159   -5.0629    4.0960 H   0  0  0  0  0  0  0  0  0  0  0  0
    8.8064   -6.4811    3.0858 H   0  0  0  0  0  0  0  0  0  0  0  0
  1  2  1  0
  1 34  1  0
  1 35  1  0
  1 36  1  0
  2  3  1  0
  2  4  2  3
  4 30  1  0
  4  5  1  0
  5  6  1  0
  5 37  1  0
  5 38  1  0
  6  7  1  0
  6 39  1  0
  6 40  1  0
  7 30  1  0
  7  8  1  0
  7 41  1  1
  8 26  1  0
  8  9  1  0
  8 42  1  1
  9 28  1  0
  9 10  1  0
  9 43  1  1
 10 11  1  0
 10 44  1  0
 10 45  1  0
 11 12  2  0
 11 46  1  0
 12 28  1  0
 12 13  1  0
 13 47  1  0
 13 48  1  0
 13 14  1  0
 14 20  1  0
 14 54  1  1
 14 15  1  0
 15 16  1  0
 15 53  1  1
 15 17  1  0
 16 49  1  0
 16 50  1  0
 16 51  1  0
 17 18  2  0
 17 19  1  0
 19 20  2  0
 19 52  1  0
 20 21  1  0
 21 22  1  6
 21 23  1  0
 21 30  1  0
 22 55  1  0
 22 56  1  0
 22 57  1  0
 23 24  1  0
 23 58  1  0
 23 59  1  0
 24 25  1  0
 24 26  1  0
 24 60  1  6
 25 61  1  0
 26 27  1  1
 26 28  1  0
 28 29  1  1
 29 62  1  0
 29 63  1  0
 29 64  1  0
 30 31  1  6
 31 32  2  0
 31 33  1  0
M  CHG  1  33  -1
M  END
>  <i_m_ct_stereo_status>  (114) 
1

>  <s_m_source_file>  (114) 
/var/tmp/pbs.5076255.sched01/tmp7rtc4ovb/41r77q45k8.sdf

>  <i_m_source_file_index>  (114) 
10

>  <i_lp_mmshare_version>  (114) 
48012

>  <i_f3d_flags>  (114) 
0

>  <s_epik_input>  (114) 
W0NIM10vQyhGKT1DKFxbQ0gyXVtDSDJdMSlbQ0BdMihDKD1PKVtPSF0pW0NAQEhdMVtDQEhdKFtDQF0zKEYpW0NAQEhdKFtDSDJdNClbT0hdKVtDQEBIXShbQ0gyXVtDSF09NSlbQ0BAXTMoW0NIM10pQzVbQ0gyXUMoPUMoW0NIM10pQyg9TylbQ0gyXTYpW0NASF02W0NAQF0yNFtDSDNd

>  <s_epik_cmdline>  (114) 
J2VwaWtfcHl0aG9uJywgJy1waHQnLCAnMi4wJywgJy1waCcsICc3LjAnLCAnLXRuJywgJzgnLCAnLW1hJywgJzIwMCcsICctaW1hZScsICc8aW5maWxlLm1hZT4nLCAnLW9tYWUnLCAnPG91dGZpbGUubWFlPic=

>  <r_lp_tautomer_probability>  (114) 
0.499977

>  <r_epik_Ionization_Penalty>  (114) 
0.000351606

>  <r_epik_Ionization_Penalty_Charging>  (114) 
0.00035151

>  <r_epik_Ionization_Penalty_Neutral>  (114) 
9.60865e-08

>  <r_epik_State_Penalty>  (114) 
0.41068

>  <r_epik_Charging_Adjusted_Penalty>  (114) 
0.411031

>  <i_epik_Tot_Q>  (114) 
-1

>  <i_epik_Tot_abs_Q>  (114) 
1

>  <s_lp_Force_Field>  (114) 
OPLS3e

>  <r_lp_Energy>  (114) 
253.735

>  <b_lp_Chiralities_Consistent>  (114) 
1

>  <s_lp_Variant>  (114) 
32:0-4

>  <s_i_glide_gridfile>  (114) 
pfpi4k_grid

>  <i_i_glide_lignum>  (114) 
10

>  <i_i_glide_rotatable_bonds>  (114) 
2

>  <r_i_docking_score>  (114) 
-1.95305

>  <r_i_glide_ligand_efficiency>  (114) 
-0.0591833

>  <r_i_glide_ligand_efficiency_sa>  (114) 
-0.189833

>  <r_i_glide_ligand_efficiency_ln>  (114) 
-0.434348

>  <r_i_glide_gscore>  (114) 
-1.95305

>  <r_i_glide_lipo>  (114) 
-0.517035

>  <r_i_glide_hbond>  (114) 
-0.264757

>  <r_i_glide_metal>  (114) 
-0

>  <r_i_glide_rewards>  (114) 
-0.290634

>  <r_i_glide_evdw>  (114) 
-11.5926

>  <r_i_glide_ecoul>  (114) 
-3.89442

>  <r_i_glide_erotb>  (114) 
0

>  <r_i_glide_esite>  (114) 
-0.118241

>  <r_i_glide_emodel>  (114) 
-10.3855

>  <r_i_glide_energy>  (114) 
-15.4871

>  <r_i_glide_einternal>  (114) 
4.68571

>  <r_i_glide_intrahb_reward>  (114) 
-0

>  <i_i_glide_confnum>  (114) 
2

>  <i_i_glide_posenum>  (114) 
1

>  <r_i_glide_eff_state_penalty>  (114) 
0

>  <ligand_id>  (114) 
32

>  <original_smiles>  (114) 
CC(F)=C1CCC2C3C4CC=C5CC6=C(C)C(=O)CC6C(C)(CC(O)C3(F)C54C)C12C(=O)O

>  <smiles>  (114) 
[H]OC1([H])C([H])([H])C2(C([H])([H])[H])C3=C([H])C(=O)C([H])(C([H])([H])[H])C3([H])C([H])([H])C3=C([H])C([H])([H])C4([H])C([H])(C5([H])C([H])([H])C([H])([H])C(=C(F)C([H])([H])[H])C52C(=O)[O-])C1(F)C34C([H])([H])[H]

$$$$
32:5:0
     RDKit          3D

 64 69  0  0  1  0  0  0  0  0999 V2000
    1.5050   -3.0826    3.9849 C   0  0  0  0  0  0  0  0  0  0  0  0
    0.7469   -4.2422    4.6006 C   0  0  0  0  0  0  0  0  0  0  0  0
   -0.0982   -3.9056    5.5958 F   0  0  0  0  0  0  0  0  0  0  0  0
    0.7978   -5.5519    4.2610 C   0  0  0  0  0  0  0  0  0  0  0  0
   -0.0891   -6.6058    4.9750 C   0  0  0  0  0  0  0  0  0  0  0  0
    0.4836   -8.0108    4.6328 C   0  0  0  0  0  0  0  0  0  0  0  0
    1.8479   -7.6623    4.0492 C   0  0  1  0  0  0  0  0  0  0  0  0
    3.1524   -8.6265    4.3062 C   0  0  1  0  0  0  0  0  0  0  0  0
    4.2559   -9.5312    3.5513 C   0  0  1  0  0  0  0  0  0  0  0  0
    4.5576   -9.8981    2.0871 C   0  0  0  0  0  0  0  0  0  0  0  0
    5.5291   -8.8119    1.6657 C   0  0  0  0  0  0  0  0  0  0  0  0
    5.7600   -7.9037    2.6318 C   0  0  0  0  0  0  0  0  0  0  0  0
    6.2971   -6.4378    2.4268 C   0  0  0  0  0  0  0  0  0  0  0  0
    5.4569   -5.1737    1.7907 C   0  0  1  0  0  0  0  0  0  0  0  0
    5.7238   -4.7480    0.3452 C   0  0  2  0  0  0  0  0  0  0  0  0
    7.1123   -4.1287    0.0721 C   0  0  0  0  0  0  0  0  0  0  0  0
    4.5683   -3.7629    0.1008 C   0  0  0  0  0  0  0  0  0  0  0  0
    4.6077   -2.8631   -0.7323 O   0  0  0  0  0  0  0  0  0  0  0  0
    3.4445   -4.0890    0.9824 C   0  0  0  0  0  0  0  0  0  0  0  0
    3.8905   -4.9755    1.8880 C   0  0  0  0  0  0  0  0  0  0  0  0
    3.1639   -5.9523    2.8043 C   0  0  1  0  0  0  0  0  0  0  0  0
    3.3093   -7.0599    1.6662 C   0  0  0  0  0  0  0  0  0  0  0  0
    3.9283   -5.5608    4.1636 C   0  0  0  0  0  0  0  0  0  0  0  0
    4.4743   -6.4915    5.2465 C   0  0  1  0  0  0  0  0  0  0  0  0
    3.8780   -6.1458    6.4928 O   0  0  0  0  0  0  0  0  0  0  0  0
    4.3839   -7.9710    4.9721 C   0  0  1  0  0  0  0  0  0  0  0  0
    4.5869   -8.5982    6.1267 F   0  0  0  0  0  0  0  0  0  0  0  0
    5.3865   -8.5647    3.9746 C   0  0  1  0  0  0  0  0  0  0  0  0
    6.6684   -9.1946    4.5422 C   0  0  0  0  0  0  0  0  0  0  0  0
    1.6328   -6.3085    3.1846 C   0  0  2  0  0  0  0  0  0  0  0  0
    0.5810   -6.3707    1.9856 C   0  0  0  0  0  0  0  0  0  0  0  0
   -0.5972   -6.6897    2.2224 O   0  0  0  0  0  0  0  0  0  0  0  0
    0.8696   -5.9278    0.8532 O   0  0  0  0  0  0  0  0  0  0  0  0
    2.0553   -3.3780    3.0991 H   0  0  0  0  0  0  0  0  0  0  0  0
    2.2110   -2.6573    4.6985 H   0  0  0  0  0  0  0  0  0  0  0  0
    0.8149   -2.2942    3.6907 H   0  0  0  0  0  0  0  0  0  0  0  0
   -0.1203   -6.4359    6.0568 H   0  0  0  0  0  0  0  0  0  0  0  0
   -1.1119   -6.5236    4.6234 H   0  0  0  0  0  0  0  0  0  0  0  0
    0.5361   -8.6571    5.5134 H   0  0  0  0  0  0  0  0  0  0  0  0
   -0.1116   -8.5377    3.8854 H   0  0  0  0  0  0  0  0  0  0  0  0
    2.1114   -7.2011    4.9945 H   0  0  0  0  0  0  0  0  0  0  0  0
    2.7714   -9.3568    5.0198 H   0  0  0  0  0  0  0  0  0  0  0  0
    4.3368  -10.4454    4.1460 H   0  0  0  0  0  0  0  0  0  0  0  0
    5.0757  -10.8528    2.0197 H   0  0  0  0  0  0  0  0  0  0  0  0
    3.6730   -9.9552    1.4608 H   0  0  0  0  0  0  0  0  0  0  0  0
    5.7305   -8.6344    0.6230 H   0  0  0  0  0  0  0  0  0  0  0  0
    6.6555   -6.1226    3.4054 H   0  0  0  0  0  0  0  0  0  0  0  0
    7.2163   -6.5367    1.8473 H   0  0  0  0  0  0  0  0  0  0  0  0
    7.2078   -3.8376   -0.9776 H   0  0  0  0  0  0  0  0  0  0  0  0
    7.9063   -4.8471    0.2762 H   0  0  0  0  0  0  0  0  0  0  0  0
    7.2989   -3.2380    0.6749 H   0  0  0  0  0  0  0  0  0  0  0  0
    2.4181   -3.8016    0.7872 H   0  0  0  0  0  0  0  0  0  0  0  0
    5.5754   -5.5895   -0.3218 H   0  0  0  0  0  0  0  0  0  0  0  0
    5.8542   -4.3332    2.3614 H   0  0  0  0  0  0  0  0  0  0  0  0
    2.7555   -6.8604    0.7645 H   0  0  0  0  0  0  0  0  0  0  0  0
    2.9249   -8.0431    1.8848 H   0  0  0  0  0  0  0  0  0  0  0  0
    4.1792   -7.0711    1.0293 H   0  0  0  0  0  0  0  0  0  0  0  0
    4.7267   -4.8322    4.0651 H   0  0  0  0  0  0  0  0  0  0  0  0
    3.2508   -4.9072    4.6803 H   0  0  0  0  0  0  0  0  0  0  0  0
    5.5400   -6.2681    5.4024 H   0  0  0  0  0  0  0  0  0  0  0  0
    4.1182   -5.2470    6.6992 H   0  0  0  0  0  0  0  0  0  0  0  0
    6.4690   -9.9197    5.3293 H   0  0  0  0  0  0  0  0  0  0  0  0
    7.3441   -8.4369    4.9417 H   0  0  0  0  0  0  0  0  0  0  0  0
    7.2130   -9.7367    3.7679 H   0  0  0  0  0  0  0  0  0  0  0  0
  1  2  1  0
  1 34  1  0
  1 35  1  0
  1 36  1  0
  2  3  1  0
  2  4  2  3
  4 30  1  0
  4  5  1  0
  5  6  1  0
  5 37  1  0
  5 38  1  0
  6  7  1  0
  6 39  1  0
  6 40  1  0
  7 30  1  0
  7  8  1  0
  7 41  1  1
  8 26  1  0
  8  9  1  0
  8 42  1  1
  9 28  1  0
  9 10  1  0
  9 43  1  1
 10 11  1  0
 10 44  1  0
 10 45  1  0
 11 12  2  0
 11 46  1  0
 12 28  1  0
 12 13  1  0
 13 47  1  0
 13 48  1  0
 13 14  1  0
 14 20  1  0
 14 54  1  1
 14 15  1  0
 15 16  1  0
 15 53  1  6
 15 17  1  0
 16 49  1  0
 16 50  1  0
 16 51  1  0
 17 18  2  0
 17 19  1  0
 19 20  2  0
 19 52  1  0
 20 21  1  0
 21 22  1  6
 21 23  1  0
 21 30  1  0
 22 55  1  0
 22 56  1  0
 22 57  1  0
 23 24  1  0
 23 58  1  0
 23 59  1  0
 24 25  1  0
 24 26  1  0
 24 60  1  1
 25 61  1  0
 26 27  1  1
 26 28  1  0
 28 29  1  1
 29 62  1  0
 29 63  1  0
 29 64  1  0
 30 31  1  6
 31 32  2  0
 31 33  1  0
M  CHG  1  33  -1
M  END
>  <i_m_ct_stereo_status>  (115) 
1

>  <s_m_source_file>  (115) 
/var/tmp/pbs.5076255.sched01/tmp7rtc4ovb/41r77q45k8.sdf

>  <i_m_source_file_index>  (115) 
12

>  <i_lp_mmshare_version>  (115) 
48012

>  <i_f3d_flags>  (115) 
0

>  <s_epik_input>  (115) 
W0NIM10vQyhGKT1DKFxbQ0gyXVtDSDJdMSlbQ0BdMihDKD1PKVtPSF0pW0NAQEhdMVtDQEhdKFtDQF0zKEYpW0NAQEhdKFtDSDJdNClbT0hdKVtDQEBIXShbQ0gyXVtDSF09NSlbQ0BAXTMoW0NIM10pQzVbQ0gyXUMoPUMoW0NIM10pQyg9TylbQ0gyXTYpW0NASF02W0NAQF0yNFtDSDNd

>  <s_epik_cmdline>  (115) 
J2VwaWtfcHl0aG9uJywgJy1waHQnLCAnMi4wJywgJy1waCcsICc3LjAnLCAnLXRuJywgJzgnLCAnLW1hJywgJzIwMCcsICctaW1hZScsICc8aW5maWxlLm1hZT4nLCAnLW9tYWUnLCAnPG91dGZpbGUubWFlPic=

>  <r_lp_tautomer_probability>  (115) 
0.499977

>  <r_epik_Ionization_Penalty>  (115) 
0.000351606

>  <r_epik_Ionization_Penalty_Charging>  (115) 
0.00035151

>  <r_epik_Ionization_Penalty_Neutral>  (115) 
9.60865e-08

>  <r_epik_State_Penalty>  (115) 
0.41068

>  <r_epik_Charging_Adjusted_Penalty>  (115) 
0.411031

>  <i_epik_Tot_Q>  (115) 
-1

>  <i_epik_Tot_abs_Q>  (115) 
1

>  <s_lp_Force_Field>  (115) 
OPLS3e

>  <r_lp_Energy>  (115) 
252.104

>  <b_lp_Chiralities_Consistent>  (115) 
1

>  <s_lp_Variant>  (115) 
32:0-6

>  <s_i_glide_gridfile>  (115) 
pfpi4k_grid

>  <i_i_glide_lignum>  (115) 
12

>  <i_i_glide_rotatable_bonds>  (115) 
2

>  <r_i_docking_score>  (115) 
-2.65908

>  <r_i_glide_ligand_efficiency>  (115) 
-0.0805782

>  <r_i_glide_ligand_efficiency_sa>  (115) 
-0.258457

>  <r_i_glide_ligand_efficiency_ln>  (115) 
-0.591366

>  <r_i_glide_gscore>  (115) 
-2.65908

>  <r_i_glide_lipo>  (115) 
-0.368059

>  <r_i_glide_hbond>  (115) 
-0.4

>  <r_i_glide_metal>  (115) 
-0

>  <r_i_glide_rewards>  (115) 
-0.328613

>  <r_i_glide_evdw>  (115) 
-18.0236

>  <r_i_glide_ecoul>  (115) 
-6.39265

>  <r_i_glide_erotb>  (115) 
0

>  <r_i_glide_esite>  (115) 
-0.105629

>  <r_i_glide_emodel>  (115) 
-23.9398

>  <r_i_glide_energy>  (115) 
-24.4162

>  <r_i_glide_einternal>  (115) 
4.39292

>  <r_i_glide_intrahb_reward>  (115) 
-0

>  <i_i_glide_confnum>  (115) 
2

>  <i_i_glide_posenum>  (115) 
1

>  <r_i_glide_eff_state_penalty>  (115) 
0

>  <ligand_id>  (115) 
32

>  <original_smiles>  (115) 
CC(F)=C1CCC2C3C4CC=C5CC6=C(C)C(=O)CC6C(C)(CC(O)C3(F)C54C)C12C(=O)O

>  <smiles>  (115) 
[H]OC1([H])C([H])([H])C2(C([H])([H])[H])C3=C([H])C(=O)C([H])(C([H])([H])[H])C3([H])C([H])([H])C3=C([H])C([H])([H])C4([H])C([H])(C5([H])C([H])([H])C([H])([H])C(=C(F)C([H])([H])[H])C52C(=O)[O-])C1(F)C34C([H])([H])[H]

$$$$
32:5:1
     RDKit          3D

 64 69  0  0  1  0  0  0  0  0999 V2000
    1.5013   -3.0302    3.9139 C   0  0  0  0  0  0  0  0  0  0  0  0
    0.7460   -4.1815    4.5465 C   0  0  0  0  0  0  0  0  0  0  0  0
   -0.1023   -3.8307    5.5345 F   0  0  0  0  0  0  0  0  0  0  0  0
    0.8006   -5.4962    4.2292 C   0  0  0  0  0  0  0  0  0  0  0  0
   -0.0865   -6.5386    4.9593 C   0  0  0  0  0  0  0  0  0  0  0  0
    0.4879   -7.9480    4.6413 C   0  0  0  0  0  0  0  0  0  0  0  0
    1.8533   -7.6078    4.0529 C   0  0  1  0  0  0  0  0  0  0  0  0
    3.1592   -8.5654    4.3270 C   0  0  1  0  0  0  0  0  0  0  0  0
    4.2630   -9.4816    3.5870 C   0  0  1  0  0  0  0  0  0  0  0  0
    4.5645   -9.8725    2.1274 C   0  0  0  0  0  0  0  0  0  0  0  0
    5.5361   -8.7921    1.6893 C   0  0  0  0  0  0  0  0  0  0  0  0
    5.7656   -7.8671    2.6398 C   0  0  0  0  0  0  0  0  0  0  0  0
    6.2998   -6.4031    2.4130 C   0  0  0  0  0  0  0  0  0  0  0  0
    5.4586   -5.1500    1.7562 C   0  0  1  0  0  0  0  0  0  0  0  0
    5.7254   -4.7461    0.3045 C   0  0  2  0  0  0  0  0  0  0  0  0
    7.1122   -4.1237    0.0228 C   0  0  0  0  0  0  0  0  0  0  0  0
    4.5677   -3.7682    0.0432 C   0  0  0  0  0  0  0  0  0  0  0  0
    4.6060   -2.8817   -0.8043 O   0  0  0  0  0  0  0  0  0  0  0  0
    3.4443   -4.0822    0.9290 C   0  0  0  0  0  0  0  0  0  0  0  0
    3.8918   -4.9534    1.8510 C   0  0  0  0  0  0  0  0  0  0  0  0
    3.1687   -5.9147    2.7825 C   0  0  1  0  0  0  0  0  0  0  0  0
    3.3176   -7.0419    1.6637 C   0  0  0  0  0  0  0  0  0  0  0  0
    3.9273   -5.5000    4.1395 C   0  0  0  0  0  0  0  0  0  0  0  0
    4.4782   -6.4158    5.2320 C   0  0  1  0  0  0  0  0  0  0  0  0
    3.8852   -6.0690    6.4811 O   0  0  0  0  0  0  0  0  0  0  0  0
    4.3906   -7.8963    4.9800 C   0  0  1  0  0  0  0  0  0  0  0  0
    4.5888   -8.4944    6.1505 F   0  0  0  0  0  0  0  0  0  0  0  0
    5.3926   -8.5063    3.9929 C   0  0  1  0  0  0  0  0  0  0  0  0
    6.6735   -9.1238    4.5743 C   0  0  0  0  0  0  0  0  0  0  0  0
    1.6383   -6.2675    3.1655 C   0  0  2  0  0  0  0  0  0  0  0  0
    0.6063   -6.3446    1.9640 C   0  0  0  0  0  0  0  0  0  0  0  0
   -0.5829   -6.6561    2.2043 O   0  0  0  0  0  0  0  0  0  0  0  0
    0.8867   -5.9142    0.8258 O   0  0  0  0  0  0  0  0  0  0  0  0
    2.0528   -3.3385    3.0334 H   0  0  0  0  0  0  0  0  0  0  0  0
    2.2070   -2.5926    4.6206 H   0  0  0  0  0  0  0  0  0  0  0  0
    0.8108   -2.2470    3.6058 H   0  0  0  0  0  0  0  0  0  0  0  0
   -0.1193   -6.3498    6.0382 H   0  0  0  0  0  0  0  0  0  0  0  0
   -1.1094   -6.4624    4.6062 H   0  0  0  0  0  0  0  0  0  0  0  0
    0.5400   -8.5789    5.5323 H   0  0  0  0  0  0  0  0  0  0  0  0
   -0.1069   -8.4873    3.9031 H   0  0  0  0  0  0  0  0  0  0  0  0
    2.1147   -7.1301    4.9910 H   0  0  0  0  0  0  0  0  0  0  0  0
    2.7783   -9.2847    5.0518 H   0  0  0  0  0  0  0  0  0  0  0  0
    4.3443  -10.3856    4.1970 H   0  0  0  0  0  0  0  0  0  0  0  0
    5.0811  -10.8294    2.0694 H   0  0  0  0  0  0  0  0  0  0  0  0
    3.6804   -9.9382    1.5009 H   0  0  0  0  0  0  0  0  0  0  0  0
    5.7363   -8.6275    0.6445 H   0  0  0  0  0  0  0  0  0  0  0  0
    6.6568   -6.0711    3.3868 H   0  0  0  0  0  0  0  0  0  0  0  0
    7.2199   -6.5103    1.8361 H   0  0  0  0  0  0  0  0  0  0  0  0
    7.2075   -3.8373   -1.0278 H   0  0  0  0  0  0  0  0  0  0  0  0
    7.9073   -4.8393    0.2312 H   0  0  0  0  0  0  0  0  0  0  0  0
    7.2978   -3.2292    0.6193 H   0  0  0  0  0  0  0  0  0  0  0  0
    2.4176   -3.8010    0.7302 H   0  0  0  0  0  0  0  0  0  0  0  0
    5.5797   -5.5987   -0.3496 H   0  0  0  0  0  0  0  0  0  0  0  0
    5.8537   -4.3009    2.3142 H   0  0  0  0  0  0  0  0  0  0  0  0
    2.7676   -6.8593    0.7569 H   0  0  0  0  0  0  0  0  0  0  0  0
    2.9325   -8.0208    1.8958 H   0  0  0  0  0  0  0  0  0  0  0  0
    4.1872   -7.0616    1.0265 H   0  0  0  0  0  0  0  0  0  0  0  0
    4.7254   -4.7712    4.0276 H   0  0  0  0  0  0  0  0  0  0  0  0
    3.2499   -4.8414    4.6535 H   0  0  0  0  0  0  0  0  0  0  0  0
    5.5399   -6.1807    5.3823 H   0  0  0  0  0  0  0  0  0  0  0  0
    4.3155   -6.5736    7.1667 H   0  0  0  0  0  0  0  0  0  0  0  0
    6.4748   -9.8366    5.3733 H   0  0  0  0  0  0  0  0  0  0  0  0
    7.3479   -8.3583    4.9610 H   0  0  0  0  0  0  0  0  0  0  0  0
    7.2194   -9.6772    3.8093 H   0  0  0  0  0  0  0  0  0  0  0  0
  1  2  1  0
  1 34  1  0
  1 35  1  0
  1 36  1  0
  2  3  1  0
  2  4  2  3
  4 30  1  0
  4  5  1  0
  5  6  1  0
  5 37  1  0
  5 38  1  0
  6  7  1  0
  6 39  1  0
  6 40  1  0
  7 30  1  0
  7  8  1  0
  7 41  1  1
  8 26  1  0
  8  9  1  0
  8 42  1  1
  9 28  1  0
  9 10  1  0
  9 43  1  1
 10 11  1  0
 10 44  1  0
 10 45  1  0
 11 12  2  0
 11 46  1  0
 12 28  1  0
 12 13  1  0
 13 47  1  0
 13 48  1  0
 13 14  1  0
 14 20  1  0
 14 54  1  1
 14 15  1  0
 15 16  1  0
 15 53  1  6
 15 17  1  0
 16 49  1  0
 16 50  1  0
 16 51  1  0
 17 18  2  0
 17 19  1  0
 19 20  2  0
 19 52  1  0
 20 21  1  0
 21 22  1  6
 21 23  1  0
 21 30  1  0
 22 55  1  0
 22 56  1  0
 22 57  1  0
 23 24  1  0
 23 58  1  0
 23 59  1  0
 24 25  1  0
 24 26  1  0
 24 60  1  1
 25 61  1  0
 26 27  1  1
 26 28  1  0
 28 29  1  1
 29 62  1  0
 29 63  1  0
 29 64  1  0
 30 31  1  6
 31 32  2  0
 31 33  1  0
M  CHG  1  33  -1
M  END
>  <i_m_ct_stereo_status>  (116) 
1

>  <s_m_source_file>  (116) 
/var/tmp/pbs.5076255.sched01/tmp7rtc4ovb/41r77q45k8.sdf

>  <i_m_source_file_index>  (116) 
12

>  <i_lp_mmshare_version>  (116) 
48012

>  <i_f3d_flags>  (116) 
0

>  <s_epik_input>  (116) 
W0NIM10vQyhGKT1DKFxbQ0gyXVtDSDJdMSlbQ0BdMihDKD1PKVtPSF0pW0NAQEhdMVtDQEhdKFtDQF0zKEYpW0NAQEhdKFtDSDJdNClbT0hdKVtDQEBIXShbQ0gyXVtDSF09NSlbQ0BAXTMoW0NIM10pQzVbQ0gyXUMoPUMoW0NIM10pQyg9TylbQ0gyXTYpW0NASF02W0NAQF0yNFtDSDNd

>  <s_epik_cmdline>  (116) 
J2VwaWtfcHl0aG9uJywgJy1waHQnLCAnMi4wJywgJy1waCcsICc3LjAnLCAnLXRuJywgJzgnLCAnLW1hJywgJzIwMCcsICctaW1hZScsICc8aW5maWxlLm1hZT4nLCAnLW9tYWUnLCAnPG91dGZpbGUubWFlPic=

>  <r_lp_tautomer_probability>  (116) 
0.499977

>  <r_epik_Ionization_Penalty>  (116) 
0.000351606

>  <r_epik_Ionization_Penalty_Charging>  (116) 
0.00035151

>  <r_epik_Ionization_Penalty_Neutral>  (116) 
9.60865e-08

>  <r_epik_State_Penalty>  (116) 
0.41068

>  <r_epik_Charging_Adjusted_Penalty>  (116) 
0.411031

>  <i_epik_Tot_Q>  (116) 
-1

>  <i_epik_Tot_abs_Q>  (116) 
1

>  <s_lp_Force_Field>  (116) 
OPLS3e

>  <r_lp_Energy>  (116) 
252.104

>  <b_lp_Chiralities_Consistent>  (116) 
1

>  <s_lp_Variant>  (116) 
32:0-6

>  <s_i_glide_gridfile>  (116) 
pfpi4k_grid

>  <i_i_glide_lignum>  (116) 
12

>  <i_i_glide_rotatable_bonds>  (116) 
2

>  <r_i_docking_score>  (116) 
-2.62775

>  <r_i_glide_ligand_efficiency>  (116) 
-0.0796289

>  <r_i_glide_ligand_efficiency_sa>  (116) 
-0.255413

>  <r_i_glide_ligand_efficiency_ln>  (116) 
-0.584399

>  <r_i_glide_gscore>  (116) 
-2.62775

>  <r_i_glide_lipo>  (116) 
-0.366841

>  <r_i_glide_hbond>  (116) 
-0.4

>  <r_i_glide_metal>  (116) 
-0

>  <r_i_glide_rewards>  (116) 
-0.327549

>  <r_i_glide_evdw>  (116) 
-18.0969

>  <r_i_glide_ecoul>  (116) 
-6.51128

>  <r_i_glide_erotb>  (116) 
0

>  <r_i_glide_esite>  (116) 
-0.104397

>  <r_i_glide_emodel>  (116) 
-23.9968

>  <r_i_glide_energy>  (116) 
-24.6082

>  <r_i_glide_einternal>  (116) 
4.35449

>  <r_i_glide_intrahb_reward>  (116) 
-0

>  <i_i_glide_confnum>  (116) 
2

>  <i_i_glide_posenum>  (116) 
28

>  <r_i_glide_eff_state_penalty>  (116) 
0

>  <ligand_id>  (116) 
32

>  <original_smiles>  (116) 
CC(F)=C1CCC2C3C4CC=C5CC6=C(C)C(=O)CC6C(C)(CC(O)C3(F)C54C)C12C(=O)O

>  <smiles>  (116) 
[H]OC1([H])C([H])([H])C2(C([H])([H])[H])C3=C([H])C(=O)C([H])(C([H])([H])[H])C3([H])C([H])([H])C3=C([H])C([H])([H])C4([H])C([H])(C5([H])C([H])([H])C([H])([H])C(=C(F)C([H])([H])[H])C52C(=O)[O-])C1(F)C34C([H])([H])[H]

$$$$
32:5:2
     RDKit          3D

 64 69  0  0  1  0  0  0  0  0999 V2000
    1.8745   -2.3530    1.1472 C   0  0  0  0  0  0  0  0  0  0  0  0
    3.0060   -1.3629    1.2028 C   0  0  0  0  0  0  0  0  0  0  0  0
    2.8224   -0.1795    0.6299 F   0  0  0  0  0  0  0  0  0  0  0  0
    4.2046   -1.5204    1.7871 C   0  0  0  0  0  0  0  0  0  0  0  0
    5.2235   -0.3727    1.7733 C   0  0  0  0  0  0  0  0  0  0  0  0
    6.5723   -0.9785    2.1622 C   0  0  0  0  0  0  0  0  0  0  0  0
    6.3072   -2.4816    2.0608 C   0  0  0  0  0  0  0  0  0  0  0  0
    7.4398   -3.5458    1.5526 C   0  0  1  0  0  0  0  0  0  0  0  0
    8.3317   -4.8188    2.0081 C   0  0  1  0  0  0  0  0  0  0  0  0
    8.4277   -5.7005    3.2755 C   0  0  0  0  0  0  0  0  0  0  0  0
    7.3878   -6.7610    2.9899 C   0  0  0  0  0  0  0  0  0  0  0  0
    6.7741   -6.5936    1.8034 C   0  0  0  0  0  0  0  0  0  0  0  0
    5.3877   -7.2301    1.4133 C   0  0  0  0  0  0  0  0  0  0  0  0
    3.9130   -6.7812    1.9826 C   0  0  1  0  0  0  0  0  0  0  0  0
    3.2224   -7.6602    3.0455 C   0  0  2  0  0  0  0  0  0  0  0  0
    2.7595   -9.0463    2.5747 C   0  0  0  0  0  0  0  0  0  0  0  0
    2.0634   -6.7241    3.4731 C   0  0  0  0  0  0  0  0  0  0  0  0
    1.0234   -7.1350    3.9564 O   0  0  0  0  0  0  0  0  0  0  0  0
    2.4174   -5.3228    3.2230 C   0  0  0  0  0  0  0  0  0  0  0  0
    3.5141   -5.3347    2.4497 C   0  0  0  0  0  0  0  0  0  0  0  0
    4.5502   -4.2596    2.1835 C   0  0  1  0  0  0  0  0  0  0  0  0
    5.3287   -4.8277    3.4544 C   0  0  0  0  0  0  0  0  0  0  0  0
    4.5857   -4.3996    0.5856 C   0  0  0  0  0  0  0  0  0  0  0  0
    5.7981   -4.3943   -0.3503 C   0  0  1  0  0  0  0  0  0  0  0  0
    5.6568   -3.3410   -1.2934 O   0  0  0  0  0  0  0  0  0  0  0  0
    7.1446   -4.3849    0.3074 C   0  0  1  0  0  0  0  0  0  0  0  0
    8.0639   -3.9859   -0.5965 F   0  0  0  0  0  0  0  0  0  0  0  0
    7.6749   -5.6797    0.9347 C   0  0  1  0  0  0  0  0  0  0  0  0
    8.6615   -6.5596    0.1234 C   0  0  0  0  0  0  0  0  0  0  0  0
    4.7862   -2.7170    2.5343 C   0  0  2  0  0  0  0  0  0  0  0  0
    4.4095   -2.2790    3.9850 C   0  0  0  0  0  0  0  0  0  0  0  0
    5.3197   -1.9215    4.7554 O   0  0  0  0  0  0  0  0  0  0  0  0
    3.1926   -2.3537    4.2918 O   0  0  0  0  0  0  0  0  0  0  0  0
    2.0111   -3.2132    1.7760 H   0  0  0  0  0  0  0  0  0  0  0  0
    1.7799   -2.6905    0.1178 H   0  0  0  0  0  0  0  0  0  0  0  0
    0.9717   -1.8317    1.4572 H   0  0  0  0  0  0  0  0  0  0  0  0
    5.2706    0.1159    0.7979 H   0  0  0  0  0  0  0  0  0  0  0  0
    4.9112    0.3611    2.5139 H   0  0  0  0  0  0  0  0  0  0  0  0
    7.3815   -0.6539    1.4935 H   0  0  0  0  0  0  0  0  0  0  0  0
    6.8069   -0.6189    3.1579 H   0  0  0  0  0  0  0  0  0  0  0  0
    6.0980   -2.3410    1.0040 H   0  0  0  0  0  0  0  0  0  0  0  0
    8.2346   -2.8845    1.2367 H   0  0  0  0  0  0  0  0  0  0  0  0
    9.3503   -4.5766    1.6796 H   0  0  0  0  0  0  0  0  0  0  0  0
    9.4088   -6.1747    3.3581 H   0  0  0  0  0  0  0  0  0  0  0  0
    8.2406   -5.1993    4.2253 H   0  0  0  0  0  0  0  0  0  0  0  0
    7.0261   -7.4019    3.7734 H   0  0  0  0  0  0  0  0  0  0  0  0
    5.3377   -7.1456    0.3314 H   0  0  0  0  0  0  0  0  0  0  0  0
    5.4938   -8.3056    1.5730 H   0  0  0  0  0  0  0  0  0  0  0  0
    2.2739   -9.5852    3.3864 H   0  0  0  0  0  0  0  0  0  0  0  0
    3.6033   -9.6558    2.2537 H   0  0  0  0  0  0  0  0  0  0  0  0
    2.0537   -8.9948    1.7486 H   0  0  0  0  0  0  0  0  0  0  0  0
    1.9834   -4.4896    3.7431 H   0  0  0  0  0  0  0  0  0  0  0  0
    3.8827   -7.7729    3.9066 H   0  0  0  0  0  0  0  0  0  0  0  0
    3.2846   -6.9403    1.1062 H   0  0  0  0  0  0  0  0  0  0  0  0
    4.8319   -4.6026    4.3997 H   0  0  0  0  0  0  0  0  0  0  0  0
    6.2790   -4.3873    3.6274 H   0  0  0  0  0  0  0  0  0  0  0  0
    5.3455   -5.8830    3.6878 H   0  0  0  0  0  0  0  0  0  0  0  0
    3.9676   -5.1867    0.1701 H   0  0  0  0  0  0  0  0  0  0  0  0
    3.9805   -3.5750    0.2383 H   0  0  0  0  0  0  0  0  0  0  0  0
    5.7326   -5.2978   -0.9480 H   0  0  0  0  0  0  0  0  0  0  0  0
    4.8894   -3.5133   -1.8154 H   0  0  0  0  0  0  0  0  0  0  0  0
    9.5024   -5.9728   -0.2556 H   0  0  0  0  0  0  0  0  0  0  0  0
    8.2501   -7.0635   -0.7344 H   0  0  0  0  0  0  0  0  0  0  0  0
    9.0043   -7.3566    0.7608 H   0  0  0  0  0  0  0  0  0  0  0  0
  1  2  1  0
  1 34  1  0
  1 35  1  0
  1 36  1  0
  2  3  1  0
  2  4  2  3
  4 30  1  0
  4  5  1  0
  5  6  1  0
  5 37  1  0
  5 38  1  0
  6  7  1  0
  6 39  1  0
  6 40  1  0
  7 30  1  0
  7  8  1  0
  7 41  1  0
  8 26  1  0
  8  9  1  0
  8 42  1  6
  9 28  1  0
  9 10  1  0
  9 43  1  6
 10 11  1  0
 10 44  1  0
 10 45  1  0
 11 12  2  0
 11 46  1  0
 12 28  1  0
 12 13  1  0
 13 47  1  0
 13 48  1  0
 13 14  1  0
 14 20  1  0
 14 54  1  6
 14 15  1  0
 15 16  1  0
 15 53  1  1
 15 17  1  0
 16 49  1  0
 16 50  1  0
 16 51  1  0
 17 18  2  0
 17 19  1  0
 19 20  2  0
 19 52  1  0
 20 21  1  0
 21 22  1  1
 21 23  1  0
 21 30  1  0
 22 55  1  0
 22 56  1  0
 22 57  1  0
 23 24  1  0
 23 58  1  0
 23 59  1  0
 24 25  1  0
 24 26  1  0
 24 60  1  6
 25 61  1  0
 26 27  1  6
 26 28  1  0
 28 29  1  6
 29 62  1  0
 29 63  1  0
 29 64  1  0
 30 31  1  1
 31 32  2  0
 31 33  1  0
M  CHG  1  33  -1
M  END
>  <i_m_ct_stereo_status>  (117) 
1

>  <s_m_source_file>  (117) 
/var/tmp/pbs.5076255.sched01/tmp7rtc4ovb/41r77q45k8.sdf

>  <i_m_source_file_index>  (117) 
12

>  <i_lp_mmshare_version>  (117) 
48012

>  <i_f3d_flags>  (117) 
0

>  <s_epik_input>  (117) 
W0NIM10vQyhGKT1DKFxbQ0gyXVtDSDJdMSlbQ0BdMihDKD1PKVtPSF0pW0NAQEhdMVtDQEhdKFtDQF0zKEYpW0NAQEhdKFtDSDJdNClbT0hdKVtDQEBIXShbQ0gyXVtDSF09NSlbQ0BAXTMoW0NIM10pQzVbQ0gyXUMoPUMoW0NIM10pQyg9TylbQ0gyXTYpW0NASF02W0NAQF0yNFtDSDNd

>  <s_epik_cmdline>  (117) 
J2VwaWtfcHl0aG9uJywgJy1waHQnLCAnMi4wJywgJy1waCcsICc3LjAnLCAnLXRuJywgJzgnLCAnLW1hJywgJzIwMCcsICctaW1hZScsICc8aW5maWxlLm1hZT4nLCAnLW9tYWUnLCAnPG91dGZpbGUubWFlPic=

>  <r_lp_tautomer_probability>  (117) 
0.499977

>  <r_epik_Ionization_Penalty>  (117) 
0.000351606

>  <r_epik_Ionization_Penalty_Charging>  (117) 
0.00035151

>  <r_epik_Ionization_Penalty_Neutral>  (117) 
9.60865e-08

>  <r_epik_State_Penalty>  (117) 
0.41068

>  <r_epik_Charging_Adjusted_Penalty>  (117) 
0.411031

>  <i_epik_Tot_Q>  (117) 
-1

>  <i_epik_Tot_abs_Q>  (117) 
1

>  <s_lp_Force_Field>  (117) 
OPLS3e

>  <r_lp_Energy>  (117) 
252.104

>  <b_lp_Chiralities_Consistent>  (117) 
1

>  <s_lp_Variant>  (117) 
32:0-6

>  <s_i_glide_gridfile>  (117) 
pfpi4k_grid

>  <i_i_glide_lignum>  (117) 
12

>  <i_i_glide_rotatable_bonds>  (117) 
2

>  <r_i_docking_score>  (117) 
-1.71962

>  <r_i_glide_ligand_efficiency>  (117) 
-0.0521096

>  <r_i_glide_ligand_efficiency_sa>  (117) 
-0.167143

>  <r_i_glide_ligand_efficiency_ln>  (117) 
-0.382434

>  <r_i_glide_gscore>  (117) 
-1.71962

>  <r_i_glide_lipo>  (117) 
-0.794324

>  <r_i_glide_hbond>  (117) 
0

>  <r_i_glide_metal>  (117) 
-0

>  <r_i_glide_rewards>  (117) 
-0.430136

>  <r_i_glide_evdw>  (117) 
-5.86564

>  <r_i_glide_ecoul>  (117) 
-0.944542

>  <r_i_glide_erotb>  (117) 
0

>  <r_i_glide_esite>  (117) 
-0.0601926

>  <r_i_glide_emodel>  (117) 
-9.17321

>  <r_i_glide_energy>  (117) 
-6.81019

>  <r_i_glide_einternal>  (117) 
0.463511

>  <r_i_glide_intrahb_reward>  (117) 
-0

>  <i_i_glide_confnum>  (117) 
1

>  <i_i_glide_posenum>  (117) 
14

>  <r_i_glide_eff_state_penalty>  (117) 
0

>  <ligand_id>  (117) 
32

>  <original_smiles>  (117) 
CC(F)=C1CCC2C3C4CC=C5CC6=C(C)C(=O)CC6C(C)(CC(O)C3(F)C54C)C12C(=O)O

>  <smiles>  (117) 
[H]OC1([H])C([H])([H])C2(C([H])([H])[H])C3=C([H])C(=O)C([H])(C([H])([H])[H])C3([H])C([H])([H])C3=C([H])C([H])([H])C4([H])C([H])(C5([H])C([H])([H])C([H])([H])C(=C(F)C([H])([H])[H])C52C(=O)[O-])C1(F)C34C([H])([H])[H]

$$$$
32:6:0
     RDKit          3D

 64 69  0  0  1  0  0  0  0  0999 V2000
    6.9650   -3.2487    1.0678 C   0  0  0  0  0  0  0  0  0  0  0  0
    6.1198   -4.3522    1.6706 C   0  0  0  0  0  0  0  0  0  0  0  0
    4.8054   -4.0588    1.7152 F   0  0  0  0  0  0  0  0  0  0  0  0
    6.5883   -5.5317    2.1760 C   0  0  0  0  0  0  0  0  0  0  0  0
    8.0751   -5.7867    2.3235 C   0  0  0  0  0  0  0  0  0  0  0  0
    8.2037   -6.6897    3.5403 C   0  0  0  0  0  0  0  0  0  0  0  0
    6.9866   -7.5740    3.3439 C   0  0  1  0  0  0  0  0  0  0  0  0
    6.9316   -8.8760    4.2104 C   0  0  1  0  0  0  0  0  0  0  0  0
    6.3443   -9.1975    5.6215 C   0  0  1  0  0  0  0  0  0  0  0  0
    5.6403   -8.2036    6.5345 C   0  0  0  0  0  0  0  0  0  0  0  0
    4.2720   -8.2160    5.8761 C   0  0  0  0  0  0  0  0  0  0  0  0
    4.0874   -9.1689    4.9640 C   0  0  0  0  0  0  0  0  0  0  0  0
    2.7859   -9.4988    4.2310 C   0  0  0  0  0  0  0  0  0  0  0  0
    2.6047   -9.0260    2.7483 C   0  0  1  0  0  0  0  0  0  0  0  0
    1.1177   -8.8166    2.3722 C   0  0  1  0  0  0  0  0  0  0  0  0
    0.0112   -9.6088    3.1029 C   0  0  0  0  0  0  0  0  0  0  0  0
    0.9727   -7.3158    2.4490 C   0  0  0  0  0  0  0  0  0  0  0  0
   -0.0888   -6.7026    2.5617 O   0  0  0  0  0  0  0  0  0  0  0  0
    2.2848   -6.7346    2.2499 C   0  0  0  0  0  0  0  0  0  0  0  0
    3.2476   -7.6790    2.3945 C   0  0  0  0  0  0  0  0  0  0  0  0
    4.7343   -7.5185    1.9161 C   0  0  2  0  0  0  0  0  0  0  0  0
    4.6109   -6.7852    0.5377 C   0  0  0  0  0  0  0  0  0  0  0  0
    5.2788   -8.9097    1.3949 C   0  0  0  0  0  0  0  0  0  0  0  0
    5.5187  -10.1824    2.2708 C   0  0  1  0  0  0  0  0  0  0  0  0
    6.2242  -11.0656    1.4040 O   0  0  0  0  0  0  0  0  0  0  0  0
    6.1661  -10.0832    3.6720 C   0  0  1  0  0  0  0  0  0  0  0  0
    6.9877  -11.1165    3.8190 F   0  0  0  0  0  0  0  0  0  0  0  0
    5.2925  -10.0853    4.9351 C   0  0  1  0  0  0  0  0  0  0  0  0
    4.9767  -11.4176    5.6255 C   0  0  0  0  0  0  0  0  0  0  0  0
    5.7805   -6.6687    2.8846 C   0  0  2  0  0  0  0  0  0  0  0  0
    5.1313   -5.8522    4.0659 C   0  0  0  0  0  0  0  0  0  0  0  0
    3.9820   -5.4120    3.8960 O   0  0  0  0  0  0  0  0  0  0  0  0
    5.8483   -5.6008    5.0530 O   0  0  0  0  0  0  0  0  0  0  0  0
    8.0137   -3.5094    0.9058 H   0  0  0  0  0  0  0  0  0  0  0  0
    6.9185   -2.3492    1.6865 H   0  0  0  0  0  0  0  0  0  0  0  0
    6.5425   -2.9891    0.1034 H   0  0  0  0  0  0  0  0  0  0  0  0
    8.4045   -6.3127    1.4299 H   0  0  0  0  0  0  0  0  0  0  0  0
    8.6752   -4.8880    2.4411 H   0  0  0  0  0  0  0  0  0  0  0  0
    9.1513   -7.2513    3.5296 H   0  0  0  0  0  0  0  0  0  0  0  0
    8.1560   -6.1374    4.4714 H   0  0  0  0  0  0  0  0  0  0  0  0
    7.3431   -8.0218    2.4184 H   0  0  0  0  0  0  0  0  0  0  0  0
    7.9617   -9.2069    4.3087 H   0  0  0  0  0  0  0  0  0  0  0  0
    7.0810   -9.8142    6.1602 H   0  0  0  0  0  0  0  0  0  0  0  0
    5.4974   -8.6465    7.5520 H   0  0  0  0  0  0  0  0  0  0  0  0
    6.1105   -7.2116    6.5613 H   0  0  0  0  0  0  0  0  0  0  0  0
    3.5060   -7.5213    6.1231 H   0  0  0  0  0  0  0  0  0  0  0  0
    2.5916  -10.5687    4.2900 H   0  0  0  0  0  0  0  0  0  0  0  0
    2.0073   -9.0226    4.8343 H   0  0  0  0  0  0  0  0  0  0  0  0
   -0.9666   -9.4964    2.6159 H   0  0  0  0  0  0  0  0  0  0  0  0
   -0.1290   -9.2986    4.1409 H   0  0  0  0  0  0  0  0  0  0  0  0
    0.2249  -10.6809    3.1035 H   0  0  0  0  0  0  0  0  0  0  0  0
    2.4508   -5.7031    1.9259 H   0  0  0  0  0  0  0  0  0  0  0  0
    1.0213   -9.0440    1.3167 H   0  0  0  0  0  0  0  0  0  0  0  0
    2.8929   -9.7872    2.0294 H   0  0  0  0  0  0  0  0  0  0  0  0
    5.5905   -6.6292    0.0907 H   0  0  0  0  0  0  0  0  0  0  0  0
    4.1205   -5.8198    0.5729 H   0  0  0  0  0  0  0  0  0  0  0  0
    4.0452   -7.3455   -0.1960 H   0  0  0  0  0  0  0  0  0  0  0  0
    4.6257   -9.2717    0.6064 H   0  0  0  0  0  0  0  0  0  0  0  0
    6.2161   -8.7284    0.8607 H   0  0  0  0  0  0  0  0  0  0  0  0
    4.6071  -10.7568    2.4200 H   0  0  0  0  0  0  0  0  0  0  0  0
    5.5474  -11.5279    0.9117 H   0  0  0  0  0  0  0  0  0  0  0  0
    5.8824  -11.9744    5.8900 H   0  0  0  0  0  0  0  0  0  0  0  0
    4.3507  -12.0649    5.0100 H   0  0  0  0  0  0  0  0  0  0  0  0
    4.4516  -11.2349    6.5624 H   0  0  0  0  0  0  0  0  0  0  0  0
  1  2  1  0
  1 34  1  0
  1 35  1  0
  1 36  1  0
  2  3  1  0
  2  4  2  3
  4 30  1  0
  4  5  1  0
  5  6  1  0
  5 37  1  0
  5 38  1  0
  6  7  1  0
  6 39  1  0
  6 40  1  0
  7 30  1  0
  7  8  1  0
  7 41  1  6
  8 26  1  0
  8  9  1  0
  8 42  1  1
  9 28  1  0
  9 10  1  0
  9 43  1  1
 10 11  1  0
 10 44  1  0
 10 45  1  0
 11 12  2  0
 11 46  1  0
 12 28  1  0
 12 13  1  0
 13 47  1  0
 13 48  1  0
 13 14  1  0
 14 20  1  0
 14 54  1  6
 14 15  1  0
 15 16  1  0
 15 53  1  6
 15 17  1  0
 16 49  1  0
 16 50  1  0
 16 51  1  0
 17 18  2  0
 17 19  1  0
 19 20  2  0
 19 52  1  0
 20 21  1  0
 21 22  1  6
 21 23  1  0
 21 30  1  0
 22 55  1  0
 22 56  1  0
 22 57  1  0
 23 24  1  0
 23 58  1  0
 23 59  1  0
 24 25  1  0
 24 26  1  0
 24 60  1  1
 25 61  1  0
 26 27  1  1
 26 28  1  0
 28 29  1  1
 29 62  1  0
 29 63  1  0
 29 64  1  0
 30 31  1  1
 31 32  2  0
 31 33  1  0
M  CHG  1  33  -1
M  END
>  <i_m_ct_stereo_status>  (118) 
1

>  <s_m_source_file>  (118) 
/var/tmp/pbs.5076255.sched01/tmp7rtc4ovb/41r77q45k8.sdf

>  <i_m_source_file_index>  (118) 
13

>  <i_lp_mmshare_version>  (118) 
48012

>  <i_f3d_flags>  (118) 
0

>  <s_epik_input>  (118) 
W0NIM10vQyhGKT1DKFxbQ0gyXVtDSDJdMSlbQ0BdMihDKD1PKVtPSF0pW0NAQEhdMVtDQEhdKFtDQF0zKEYpW0NAQEhdKFtDSDJdNClbT0hdKVtDQEBIXShbQ0gyXVtDSF09NSlbQ0BAXTMoW0NIM10pQzVbQ0gyXUMoPUMoW0NIM10pQyg9TylbQ0gyXTYpW0NASF02W0NAQF0yNFtDSDNd

>  <s_epik_cmdline>  (118) 
J2VwaWtfcHl0aG9uJywgJy1waHQnLCAnMi4wJywgJy1waCcsICc3LjAnLCAnLXRuJywgJzgnLCAnLW1hJywgJzIwMCcsICctaW1hZScsICc8aW5maWxlLm1hZT4nLCAnLW9tYWUnLCAnPG91dGZpbGUubWFlPic=

>  <r_lp_tautomer_probability>  (118) 
0.499977

>  <r_epik_Ionization_Penalty>  (118) 
0.000351606

>  <r_epik_Ionization_Penalty_Charging>  (118) 
0.00035151

>  <r_epik_Ionization_Penalty_Neutral>  (118) 
9.60865e-08

>  <r_epik_State_Penalty>  (118) 
0.41068

>  <r_epik_Charging_Adjusted_Penalty>  (118) 
0.411031

>  <i_epik_Tot_Q>  (118) 
-1

>  <i_epik_Tot_abs_Q>  (118) 
1

>  <s_lp_Force_Field>  (118) 
OPLS3e

>  <r_lp_Energy>  (118) 
114.102

>  <b_lp_Chiralities_Consistent>  (118) 
1

>  <s_lp_Variant>  (118) 
32:0-7

>  <s_i_glide_gridfile>  (118) 
pfpi4k_grid

>  <i_i_glide_lignum>  (118) 
13

>  <i_i_glide_rotatable_bonds>  (118) 
2

>  <r_i_docking_score>  (118) 
-3.21261

>  <r_i_glide_ligand_efficiency>  (118) 
-0.0973518

>  <r_i_glide_ligand_efficiency_sa>  (118) 
-0.312259

>  <r_i_glide_ligand_efficiency_ln>  (118) 
-0.714468

>  <r_i_glide_gscore>  (118) 
-3.21261

>  <r_i_glide_lipo>  (118) 
-0.348824

>  <r_i_glide_hbond>  (118) 
-0.31151

>  <r_i_glide_metal>  (118) 
-0

>  <r_i_glide_rewards>  (118) 
-0.325895

>  <r_i_glide_evdw>  (118) 
-20.3995

>  <r_i_glide_ecoul>  (118) 
-7.79057

>  <r_i_glide_erotb>  (118) 
0

>  <r_i_glide_esite>  (118) 
-0.037821

>  <r_i_glide_emodel>  (118) 
-33.3388

>  <r_i_glide_energy>  (118) 
-28.19

>  <r_i_glide_einternal>  (118) 
0.84036

>  <r_i_glide_intrahb_reward>  (118) 
-0

>  <i_i_glide_confnum>  (118) 
2

>  <i_i_glide_posenum>  (118) 
27

>  <r_i_glide_eff_state_penalty>  (118) 
0

>  <ligand_id>  (118) 
32

>  <original_smiles>  (118) 
CC(F)=C1CCC2C3C4CC=C5CC6=C(C)C(=O)CC6C(C)(CC(O)C3(F)C54C)C12C(=O)O

>  <smiles>  (118) 
[H]OC1([H])C([H])([H])C2(C([H])([H])[H])C3=C([H])C(=O)C([H])(C([H])([H])[H])C3([H])C([H])([H])C3=C([H])C([H])([H])C4([H])C([H])(C5([H])C([H])([H])C([H])([H])C(=C(F)C([H])([H])[H])C52C(=O)[O-])C1(F)C34C([H])([H])[H]

$$$$
32:6:1
     RDKit          3D

 64 69  0  0  1  0  0  0  0  0999 V2000
    3.5526   -2.3076   -0.4281 C   0  0  0  0  0  0  0  0  0  0  0  0
    3.4588   -3.3710    0.6416 C   0  0  0  0  0  0  0  0  0  0  0  0
    2.3282   -3.3105    1.3427 F   0  0  0  0  0  0  0  0  0  0  0  0
    4.4343   -4.3005    0.9385 C   0  0  0  0  0  0  0  0  0  0  0  0
    5.7985   -4.2417    0.2778 C   0  0  0  0  0  0  0  0  0  0  0  0
    6.7569   -4.8023    1.3233 C   0  0  0  0  0  0  0  0  0  0  0  0
    5.9133   -5.9286    1.9043 C   0  0  1  0  0  0  0  0  0  0  0  0
    6.6544   -6.9696    2.7833 C   0  0  1  0  0  0  0  0  0  0  0  0
    6.9457   -7.0456    4.3198 C   0  0  1  0  0  0  0  0  0  0  0  0
    6.5277   -6.0238    5.3562 C   0  0  0  0  0  0  0  0  0  0  0  0
    5.0787   -6.4228    5.5506 C   0  0  0  0  0  0  0  0  0  0  0  0
    4.7451   -7.5822    4.9673 C   0  0  0  0  0  0  0  0  0  0  0  0
    3.4051   -8.3175    5.0769 C   0  0  0  0  0  0  0  0  0  0  0  0
    2.3961   -8.2544    3.8814 C   0  0  1  0  0  0  0  0  0  0  0  0
    0.9168   -8.4266    4.3527 C   0  0  1  0  0  0  0  0  0  0  0  0
    0.6010   -9.2087    5.6333 C   0  0  0  0  0  0  0  0  0  0  0  0
    0.4312   -6.9892    4.3463 C   0  0  0  0  0  0  0  0  0  0  0  0
   -0.5485   -6.5662    4.9660 O   0  0  0  0  0  0  0  0  0  0  0  0
    1.2472   -6.2512    3.4073 C   0  0  0  0  0  0  0  0  0  0  0  0
    2.3657   -6.9343    3.0980 C   0  0  0  0  0  0  0  0  0  0  0  0
    3.3192   -6.6050    1.8889 C   0  0  2  0  0  0  0  0  0  0  0  0
    2.3354   -6.2579    0.7279 C   0  0  0  0  0  0  0  0  0  0  0  0
    3.9148   -7.9547    1.3072 C   0  0  0  0  0  0  0  0  0  0  0  0
    4.8983   -8.9260    2.0587 C   0  0  1  0  0  0  0  0  0  0  0  0
    5.3445   -9.8268    1.0434 O   0  0  0  0  0  0  0  0  0  0  0  0
    6.0890   -8.3949    2.8739 C   0  0  1  0  0  0  0  0  0  0  0  0
    7.1401   -9.2196    2.6585 F   0  0  0  0  0  0  0  0  0  0  0  0
    5.9899   -8.2494    4.4016 C   0  0  1  0  0  0  0  0  0  0  0  0
    6.4433   -9.4152    5.2776 C   0  0  0  0  0  0  0  0  0  0  0  0
    4.4195   -5.3847    2.0705 C   0  0  2  0  0  0  0  0  0  0  0  0
    4.2507   -4.4817    3.3286 C   0  0  0  0  0  0  0  0  0  0  0  0
    3.0963   -4.2243    3.7546 O   0  0  0  0  0  0  0  0  0  0  0  0
    5.2346   -3.9020    3.7908 O   0  0  0  0  0  0  0  0  0  0  0  0
    4.3985   -2.4021   -1.0957 H   0  0  0  0  0  0  0  0  0  0  0  0
    3.5683   -1.3135    0.0228 H   0  0  0  0  0  0  0  0  0  0  0  0
    2.6515   -2.3635   -1.0373 H   0  0  0  0  0  0  0  0  0  0  0  0
    5.7759   -4.8902   -0.6040 H   0  0  0  0  0  0  0  0  0  0  0  0
    6.0994   -3.2461   -0.0317 H   0  0  0  0  0  0  0  0  0  0  0  0
    7.6795   -5.1583    0.8743 H   0  0  0  0  0  0  0  0  0  0  0  0
    7.0201   -4.0579    2.0731 H   0  0  0  0  0  0  0  0  0  0  0  0
    5.8649   -6.4997    0.9864 H   0  0  0  0  0  0  0  0  0  0  0  0
    7.6448   -7.0503    2.3314 H   0  0  0  0  0  0  0  0  0  0  0  0
    7.9851   -7.3608    4.4556 H   0  0  0  0  0  0  0  0  0  0  0  0
    7.0354   -6.2195    6.3081 H   0  0  0  0  0  0  0  0  0  0  0  0
    6.6729   -4.9922    5.0368 H   0  0  0  0  0  0  0  0  0  0  0  0
    4.3819   -5.8371    6.1099 H   0  0  0  0  0  0  0  0  0  0  0  0
    3.5841   -9.3698    5.3399 H   0  0  0  0  0  0  0  0  0  0  0  0
    2.9345   -7.8816    5.9485 H   0  0  0  0  0  0  0  0  0  0  0  0
   -0.4714   -9.3887    5.7306 H   0  0  0  0  0  0  0  0  0  0  0  0
    0.9106   -8.6881    6.5376 H   0  0  0  0  0  0  0  0  0  0  0  0
    1.0750  -10.1861    5.6298 H   0  0  0  0  0  0  0  0  0  0  0  0
    0.9438   -5.3119    2.9852 H   0  0  0  0  0  0  0  0  0  0  0  0
    0.3605   -8.9156    3.5446 H   0  0  0  0  0  0  0  0  0  0  0  0
    2.4997   -9.0929    3.2156 H   0  0  0  0  0  0  0  0  0  0  0  0
    2.8608   -6.0528   -0.2033 H   0  0  0  0  0  0  0  0  0  0  0  0
    1.6999   -5.4080    0.9269 H   0  0  0  0  0  0  0  0  0  0  0  0
    1.6311   -7.0692    0.5090 H   0  0  0  0  0  0  0  0  0  0  0  0
    3.0809   -8.6121    1.0315 H   0  0  0  0  0  0  0  0  0  0  0  0
    4.3561   -7.7388    0.3320 H   0  0  0  0  0  0  0  0  0  0  0  0
    4.3730   -9.5986    2.7251 H   0  0  0  0  0  0  0  0  0  0  0  0
    4.6999  -10.5054    0.8973 H   0  0  0  0  0  0  0  0  0  0  0  0
    7.4779   -9.7184    5.0637 H   0  0  0  0  0  0  0  0  0  0  0  0
    5.8110  -10.2966    5.1570 H   0  0  0  0  0  0  0  0  0  0  0  0
    6.4257   -9.1283    6.3251 H   0  0  0  0  0  0  0  0  0  0  0  0
  1  2  1  0
  1 34  1  0
  1 35  1  0
  1 36  1  0
  2  3  1  0
  2  4  2  3
  4 30  1  0
  4  5  1  0
  5  6  1  0
  5 37  1  0
  5 38  1  0
  6  7  1  0
  6 39  1  0
  6 40  1  0
  7 30  1  0
  7  8  1  0
  7 41  1  6
  8 26  1  0
  8  9  1  0
  8 42  1  6
  9 28  1  0
  9 10  1  0
  9 43  1  6
 10 11  1  0
 10 44  1  0
 10 45  1  0
 11 12  2  0
 11 46  1  0
 12 28  1  0
 12 13  1  0
 13 47  1  0
 13 48  1  0
 13 14  1  0
 14 20  1  0
 14 54  1  6
 14 15  1  0
 15 16  1  0
 15 53  1  6
 15 17  1  0
 16 49  1  0
 16 50  1  0
 16 51  1  0
 17 18  2  0
 17 19  1  0
 19 20  2  0
 19 52  1  0
 20 21  1  0
 21 22  1  6
 21 23  1  0
 21 30  1  0
 22 55  1  0
 22 56  1  0
 22 57  1  0
 23 24  1  0
 23 58  1  0
 23 59  1  0
 24 25  1  0
 24 26  1  0
 24 60  1  1
 25 61  1  0
 26 27  1  1
 26 28  1  0
 28 29  1  1
 29 62  1  0
 29 63  1  0
 29 64  1  0
 30 31  1  1
 31 32  2  0
 31 33  1  0
M  CHG  1  33  -1
M  END
>  <i_m_ct_stereo_status>  (119) 
1

>  <s_m_source_file>  (119) 
/var/tmp/pbs.5076255.sched01/tmp7rtc4ovb/41r77q45k8.sdf

>  <i_m_source_file_index>  (119) 
13

>  <i_lp_mmshare_version>  (119) 
48012

>  <i_f3d_flags>  (119) 
0

>  <s_epik_input>  (119) 
W0NIM10vQyhGKT1DKFxbQ0gyXVtDSDJdMSlbQ0BdMihDKD1PKVtPSF0pW0NAQEhdMVtDQEhdKFtDQF0zKEYpW0NAQEhdKFtDSDJdNClbT0hdKVtDQEBIXShbQ0gyXVtDSF09NSlbQ0BAXTMoW0NIM10pQzVbQ0gyXUMoPUMoW0NIM10pQyg9TylbQ0gyXTYpW0NASF02W0NAQF0yNFtDSDNd

>  <s_epik_cmdline>  (119) 
J2VwaWtfcHl0aG9uJywgJy1waHQnLCAnMi4wJywgJy1waCcsICc3LjAnLCAnLXRuJywgJzgnLCAnLW1hJywgJzIwMCcsICctaW1hZScsICc8aW5maWxlLm1hZT4nLCAnLW9tYWUnLCAnPG91dGZpbGUubWFlPic=

>  <r_lp_tautomer_probability>  (119) 
0.499977

>  <r_epik_Ionization_Penalty>  (119) 
0.000351606

>  <r_epik_Ionization_Penalty_Charging>  (119) 
0.00035151

>  <r_epik_Ionization_Penalty_Neutral>  (119) 
9.60865e-08

>  <r_epik_State_Penalty>  (119) 
0.41068

>  <r_epik_Charging_Adjusted_Penalty>  (119) 
0.411031

>  <i_epik_Tot_Q>  (119) 
-1

>  <i_epik_Tot_abs_Q>  (119) 
1

>  <s_lp_Force_Field>  (119) 
OPLS3e

>  <r_lp_Energy>  (119) 
114.102

>  <b_lp_Chiralities_Consistent>  (119) 
1

>  <s_lp_Variant>  (119) 
32:0-7

>  <s_i_glide_gridfile>  (119) 
pfpi4k_grid

>  <i_i_glide_lignum>  (119) 
13

>  <i_i_glide_rotatable_bonds>  (119) 
2

>  <r_i_docking_score>  (119) 
-2.42062

>  <r_i_glide_ligand_efficiency>  (119) 
-0.073352

>  <r_i_glide_ligand_efficiency_sa>  (119) 
-0.235279

>  <r_i_glide_ligand_efficiency_ln>  (119) 
-0.538333

>  <r_i_glide_gscore>  (119) 
-2.42062

>  <r_i_glide_lipo>  (119) 
-0.328233

>  <r_i_glide_hbond>  (119) 
-0.16

>  <r_i_glide_metal>  (119) 
-0

>  <r_i_glide_rewards>  (119) 
-0.399658

>  <r_i_glide_evdw>  (119) 
-18.7999

>  <r_i_glide_ecoul>  (119) 
-3.69561

>  <r_i_glide_erotb>  (119) 
0

>  <r_i_glide_esite>  (119) 
-0.0383893

>  <r_i_glide_emodel>  (119) 
-26.2161

>  <r_i_glide_energy>  (119) 
-22.4955

>  <r_i_glide_einternal>  (119) 
0.689382

>  <r_i_glide_intrahb_reward>  (119) 
-0

>  <i_i_glide_confnum>  (119) 
2

>  <i_i_glide_posenum>  (119) 
15

>  <r_i_glide_eff_state_penalty>  (119) 
0

>  <ligand_id>  (119) 
32

>  <original_smiles>  (119) 
CC(F)=C1CCC2C3C4CC=C5CC6=C(C)C(=O)CC6C(C)(CC(O)C3(F)C54C)C12C(=O)O

>  <smiles>  (119) 
[H]OC1([H])C([H])([H])C2(C([H])([H])[H])C3=C([H])C(=O)C([H])(C([H])([H])[H])C3([H])C([H])([H])C3=C([H])C([H])([H])C4([H])C([H])(C5([H])C([H])([H])C([H])([H])C(=C(F)C([H])([H])[H])C52C(=O)[O-])C1(F)C34C([H])([H])[H]

$$$$
32:6:2
     RDKit          3D

 64 69  0  0  1  0  0  0  0  0999 V2000
    4.2993   -1.8931    1.3429 C   0  0  0  0  0  0  0  0  0  0  0  0
    3.8342   -3.2132    1.9247 C   0  0  0  0  0  0  0  0  0  0  0  0
    2.5121   -3.2518    2.1728 F   0  0  0  0  0  0  0  0  0  0  0  0
    4.6259   -4.2802    2.2159 C   0  0  0  0  0  0  0  0  0  0  0  0
    6.1357   -4.1787    2.1281 C   0  0  0  0  0  0  0  0  0  0  0  0
    6.6269   -5.1171    3.2149 C   0  0  0  0  0  0  0  0  0  0  0  0
    5.6680   -6.2646    3.0769 C   0  0  1  0  0  0  0  0  0  0  0  0
    6.0648   -7.5877    3.8012 C   0  0  1  0  0  0  0  0  0  0  0  0
    5.7953   -8.1411    5.2368 C   0  0  1  0  0  0  0  0  0  0  0  0
    5.0239   -7.4253    6.3370 C   0  0  0  0  0  0  0  0  0  0  0  0
    3.6135   -7.7253    5.8715 C   0  0  0  0  0  0  0  0  0  0  0  0
    3.5206   -8.6259    4.8881 C   0  0  0  0  0  0  0  0  0  0  0  0
    2.2367   -9.2076    4.2947 C   0  0  0  0  0  0  0  0  0  0  0  0
    1.7348   -8.6874    2.9019 C   0  0  1  0  0  0  0  0  0  0  0  0
    0.2009   -8.8191    2.7345 C   0  0  1  0  0  0  0  0  0  0  0  0
   -0.5371   -9.8889    3.5241 C   0  0  0  0  0  0  0  0  0  0  0  0
   -0.2711   -7.4141    3.0186 C   0  0  0  0  0  0  0  0  0  0  0  0
   -1.4072   -7.0946    3.3569 O   0  0  0  0  0  0  0  0  0  0  0  0
    0.8203   -6.5157    2.7204 C   0  0  0  0  0  0  0  0  0  0  0  0
    1.9797   -7.2011    2.6250 C   0  0  0  0  0  0  0  0  0  0  0  0
    3.2958   -6.6382    1.9805 C   0  0  2  0  0  0  0  0  0  0  0  0
    2.7876   -5.8471    0.7309 C   0  0  0  0  0  0  0  0  0  0  0  0
    4.0706   -7.8089    1.2382 C   0  0  0  0  0  0  0  0  0  0  0  0
    4.7226   -9.0489    1.9429 C   0  0  1  0  0  0  0  0  0  0  0  0
    5.4832   -9.7001    0.9279 O   0  0  0  0  0  0  0  0  0  0  0  0
    5.5312   -8.9021    3.2452 C   0  0  1  0  0  0  0  0  0  0  0  0
    6.5951   -9.7132    3.1666 F   0  0  0  0  0  0  0  0  0  0  0  0
    4.8876   -9.2142    4.6014 C   0  0  1  0  0  0  0  0  0  0  0  0
    5.0032  -10.6267    5.1735 C   0  0  0  0  0  0  0  0  0  0  0  0
    4.2260   -5.6361    2.8938 C   0  0  2  0  0  0  0  0  0  0  0  0
    3.6002   -5.1078    4.2383 C   0  0  0  0  0  0  0  0  0  0  0  0
    2.3686   -4.9339    4.2741 O   0  0  0  0  0  0  0  0  0  0  0  0
    4.3744   -4.7757    5.1544 O   0  0  0  0  0  0  0  0  0  0  0  0
    5.3377   -1.8766    1.0062 H   0  0  0  0  0  0  0  0  0  0  0  0
    4.1508   -1.0826    2.0594 H   0  0  0  0  0  0  0  0  0  0  0  0
    3.6772   -1.6673    0.4795 H   0  0  0  0  0  0  0  0  0  0  0  0
    6.4417   -4.5362    1.1457 H   0  0  0  0  0  0  0  0  0  0  0  0
    6.5133   -3.1714    2.2556 H   0  0  0  0  0  0  0  0  0  0  0  0
    7.6596   -5.4353    3.0581 H   0  0  0  0  0  0  0  0  0  0  0  0
    6.5398   -4.6875    4.2039 H   0  0  0  0  0  0  0  0  0  0  0  0
    5.9815   -6.5299    2.0692 H   0  0  0  0  0  0  0  0  0  0  0  0
    7.1431   -7.6487    3.7298 H   0  0  0  0  0  0  0  0  0  0  0  0
    6.7282   -8.5960    5.6056 H   0  0  0  0  0  0  0  0  0  0  0  0
    5.1521   -7.9555    7.3052 H   0  0  0  0  0  0  0  0  0  0  0  0
    5.2461   -6.3534    6.4093 H   0  0  0  0  0  0  0  0  0  0  0  0
    2.7543   -7.2652    6.2942 H   0  0  0  0  0  0  0  0  0  0  0  0
    2.3128  -10.2975    4.2631 H   0  0  0  0  0  0  0  0  0  0  0  0
    1.4819   -8.9899    5.0447 H   0  0  0  0  0  0  0  0  0  0  0  0
   -1.5910   -9.9514    3.2134 H   0  0  0  0  0  0  0  0  0  0  0  0
   -0.5366   -9.6923    4.6001 H   0  0  0  0  0  0  0  0  0  0  0  0
   -0.1052  -10.8824    3.3779 H   0  0  0  0  0  0  0  0  0  0  0  0
    0.6848   -5.4536    2.5098 H   0  0  0  0  0  0  0  0  0  0  0  0
   -0.0475   -8.9991    1.6896 H   0  0  0  0  0  0  0  0  0  0  0  0
    2.0718   -9.2994    2.0788 H   0  0  0  0  0  0  0  0  0  0  0  0
    3.6069   -5.4533    0.1275 H   0  0  0  0  0  0  0  0  0  0  0  0
    2.1159   -5.0241    0.9447 H   0  0  0  0  0  0  0  0  0  0  0  0
    2.1868   -6.4785    0.0852 H   0  0  0  0  0  0  0  0  0  0  0  0
    3.3994   -8.2691    0.5211 H   0  0  0  0  0  0  0  0  0  0  0  0
    4.8267   -7.3634    0.5973 H   0  0  0  0  0  0  0  0  0  0  0  0
    3.9926   -9.8310    2.1436 H   0  0  0  0  0  0  0  0  0  0  0  0
    5.0296  -10.5095    0.6900 H   0  0  0  0  0  0  0  0  0  0  0  0
    6.0455  -10.9617    5.2489 H   0  0  0  0  0  0  0  0  0  0  0  0
    4.4577  -11.3595    4.5760 H   0  0  0  0  0  0  0  0  0  0  0  0
    4.6047  -10.6514    6.1864 H   0  0  0  0  0  0  0  0  0  0  0  0
  1  2  1  0
  1 34  1  0
  1 35  1  0
  1 36  1  0
  2  3  1  0
  2  4  2  3
  4 30  1  0
  4  5  1  0
  5  6  1  0
  5 37  1  0
  5 38  1  0
  6  7  1  0
  6 39  1  0
  6 40  1  0
  7 30  1  0
  7  8  1  0
  7 41  1  6
  8 26  1  0
  8  9  1  0
  8 42  1  1
  9 28  1  0
  9 10  1  0
  9 43  1  1
 10 11  1  0
 10 44  1  0
 10 45  1  0
 11 12  2  0
 11 46  1  0
 12 28  1  0
 12 13  1  0
 13 47  1  0
 13 48  1  0
 13 14  1  0
 14 20  1  0
 14 54  1  6
 14 15  1  0
 15 16  1  0
 15 53  1  6
 15 17  1  0
 16 49  1  0
 16 50  1  0
 16 51  1  0
 17 18  2  0
 17 19  1  0
 19 20  2  0
 19 52  1  0
 20 21  1  0
 21 22  1  6
 21 23  1  0
 21 30  1  0
 22 55  1  0
 22 56  1  0
 22 57  1  0
 23 24  1  0
 23 58  1  0
 23 59  1  0
 24 25  1  0
 24 26  1  0
 24 60  1  1
 25 61  1  0
 26 27  1  6
 26 28  1  0
 28 29  1  1
 29 62  1  0
 29 63  1  0
 29 64  1  0
 30 31  1  1
 31 32  2  0
 31 33  1  0
M  CHG  1  33  -1
M  END
>  <i_m_ct_stereo_status>  (120) 
1

>  <s_m_source_file>  (120) 
/var/tmp/pbs.5076255.sched01/tmp7rtc4ovb/41r77q45k8.sdf

>  <i_m_source_file_index>  (120) 
13

>  <i_lp_mmshare_version>  (120) 
48012

>  <i_f3d_flags>  (120) 
0

>  <s_epik_input>  (120) 
W0NIM10vQyhGKT1DKFxbQ0gyXVtDSDJdMSlbQ0BdMihDKD1PKVtPSF0pW0NAQEhdMVtDQEhdKFtDQF0zKEYpW0NAQEhdKFtDSDJdNClbT0hdKVtDQEBIXShbQ0gyXVtDSF09NSlbQ0BAXTMoW0NIM10pQzVbQ0gyXUMoPUMoW0NIM10pQyg9TylbQ0gyXTYpW0NASF02W0NAQF0yNFtDSDNd

>  <s_epik_cmdline>  (120) 
J2VwaWtfcHl0aG9uJywgJy1waHQnLCAnMi4wJywgJy1waCcsICc3LjAnLCAnLXRuJywgJzgnLCAnLW1hJywgJzIwMCcsICctaW1hZScsICc8aW5maWxlLm1hZT4nLCAnLW9tYWUnLCAnPG91dGZpbGUubWFlPic=

>  <r_lp_tautomer_probability>  (120) 
0.499977

>  <r_epik_Ionization_Penalty>  (120) 
0.000351606

>  <r_epik_Ionization_Penalty_Charging>  (120) 
0.00035151

>  <r_epik_Ionization_Penalty_Neutral>  (120) 
9.60865e-08

>  <r_epik_State_Penalty>  (120) 
0.41068

>  <r_epik_Charging_Adjusted_Penalty>  (120) 
0.411031

>  <i_epik_Tot_Q>  (120) 
-1

>  <i_epik_Tot_abs_Q>  (120) 
1

>  <s_lp_Force_Field>  (120) 
OPLS3e

>  <r_lp_Energy>  (120) 
114.102

>  <b_lp_Chiralities_Consistent>  (120) 
1

>  <s_lp_Variant>  (120) 
32:0-7

>  <s_i_glide_gridfile>  (120) 
pfpi4k_grid

>  <i_i_glide_lignum>  (120) 
13

>  <i_i_glide_rotatable_bonds>  (120) 
2

>  <r_i_docking_score>  (120) 
-2.20518

>  <r_i_glide_ligand_efficiency>  (120) 
-0.0668237

>  <r_i_glide_ligand_efficiency_sa>  (120) 
-0.214339

>  <r_i_glide_ligand_efficiency_ln>  (120) 
-0.490421

>  <r_i_glide_gscore>  (120) 
-2.20518

>  <r_i_glide_lipo>  (120) 
-0.117491

>  <r_i_glide_hbond>  (120) 
-0.269404

>  <r_i_glide_metal>  (120) 
-0

>  <r_i_glide_rewards>  (120) 
-0.304621

>  <r_i_glide_evdw>  (120) 
-17.0355

>  <r_i_glide_ecoul>  (120) 
-3.98366

>  <r_i_glide_erotb>  (120) 
0

>  <r_i_glide_esite>  (120) 
-0.0643455

>  <r_i_glide_emodel>  (120) 
-23.8846

>  <r_i_glide_energy>  (120) 
-21.0191

>  <r_i_glide_einternal>  (120) 
1.32727

>  <r_i_glide_intrahb_reward>  (120) 
-0

>  <i_i_glide_confnum>  (120) 
1

>  <i_i_glide_posenum>  (120) 
31

>  <r_i_glide_eff_state_penalty>  (120) 
0

>  <ligand_id>  (120) 
32

>  <original_smiles>  (120) 
CC(F)=C1CCC2C3C4CC=C5CC6=C(C)C(=O)CC6C(C)(CC(O)C3(F)C54C)C12C(=O)O

>  <smiles>  (120) 
[H]OC1([H])C([H])([H])C2(C([H])([H])[H])C3=C([H])C(=O)C([H])(C([H])([H])[H])C3([H])C([H])([H])C3=C([H])C([H])([H])C4([H])C([H])(C5([H])C([H])([H])C([H])([H])C(=C(F)C([H])([H])[H])C52C(=O)[O-])C1(F)C34C([H])([H])[H]

$$$$
32:7:0
     RDKit          3D

 64 69  0  0  1  0  0  0  0  0999 V2000
    5.0891   -3.4438    1.3119 C   0  0  0  0  0  0  0  0  0  0  0  0
    6.4437   -4.1550    1.3155 C   0  0  0  0  0  0  0  0  0  0  0  0
    7.4327   -3.4320    0.7704 F   0  0  0  0  0  0  0  0  0  0  0  0
    6.8060   -5.3699    1.8404 C   0  0  0  0  0  0  0  0  0  0  0  0
    8.2821   -5.7193    1.8795 C   0  0  0  0  0  0  0  0  0  0  0  0
    8.4428   -6.5527    3.1377 C   0  0  0  0  0  0  0  0  0  0  0  0
    7.1874   -7.4088    3.0493 C   0  0  1  0  0  0  0  0  0  0  0  0
    7.1304   -8.6594    3.9580 C   0  0  1  0  0  0  0  0  0  0  0  0
    6.5867   -8.8928    5.4076 C   0  0  1  0  0  0  0  0  0  0  0  0
    5.9647   -7.8470    6.3062 C   0  0  0  0  0  0  0  0  0  0  0  0
    4.5541   -7.8219    5.7415 C   0  0  0  0  0  0  0  0  0  0  0  0
    4.2998   -8.8005    4.8538 C   0  0  0  0  0  0  0  0  0  0  0  0
    2.9532   -9.1047    4.1890 C   0  0  0  0  0  0  0  0  0  0  0  0
    2.7364   -8.7074    2.6876 C   0  0  1  0  0  0  0  0  0  0  0  0
    1.2169   -8.4672    2.3668 C   0  0  1  0  0  0  0  0  0  0  0  0
    0.1423   -9.1933    3.1733 C   0  0  0  0  0  0  0  0  0  0  0  0
    1.1405   -6.9528    2.4002 C   0  0  0  0  0  0  0  0  0  0  0  0
    0.0972   -6.3019    2.5407 O   0  0  0  0  0  0  0  0  0  0  0  0
    2.4531   -6.4357    2.1001 C   0  0  0  0  0  0  0  0  0  0  0  0
    3.3814   -7.3959    2.2385 C   0  0  0  0  0  0  0  0  0  0  0  0
    4.8750   -7.2924    1.7107 C   0  0  2  0  0  0  0  0  0  0  0  0
    4.7194   -6.5987    0.3194 C   0  0  0  0  0  0  0  0  0  0  0  0
    5.3460   -8.7312    1.2266 C   0  0  0  0  0  0  0  0  0  0  0  0
    5.5834   -9.9858    2.1491 C   0  0  1  0  0  0  0  0  0  0  0  0
    6.2198  -10.9274    1.2965 O   0  0  0  0  0  0  0  0  0  0  0  0
    6.2893   -9.8618    3.4999 C   0  0  1  0  0  0  0  0  0  0  0  0
    7.0957  -10.9546    3.6466 F   0  0  0  0  0  0  0  0  0  0  0  0
    5.4749   -9.7724    4.8099 C   0  0  1  0  0  0  0  0  0  0  0  0
    5.1424  -11.0598    5.5586 C   0  0  0  0  0  0  0  0  0  0  0  0
    5.9621   -6.4520    2.6248 C   0  0  2  0  0  0  0  0  0  0  0  0
    5.4323   -5.6367    3.8177 C   0  0  0  0  0  0  0  0  0  0  0  0
    4.2664   -5.1609    3.7789 O   0  0  0  0  0  0  0  0  0  0  0  0
    6.2167   -5.3321    4.7234 O   0  0  0  0  0  0  0  0  0  0  0  0
    4.2763   -3.9824    1.7700 H   0  0  0  0  0  0  0  0  0  0  0  0
    4.8039   -3.2032    0.2807 H   0  0  0  0  0  0  0  0  0  0  0  0
    5.1813   -2.4876    1.8483 H   0  0  0  0  0  0  0  0  0  0  0  0
    8.5289   -6.3115    0.9966 H   0  0  0  0  0  0  0  0  0  0  0  0
    8.9432   -4.8601    1.8895 H   0  0  0  0  0  0  0  0  0  0  0  0
    9.3526   -7.1457    3.1159 H   0  0  0  0  0  0  0  0  0  0  0  0
    8.4672   -5.9424    4.0343 H   0  0  0  0  0  0  0  0  0  0  0  0
    7.4625   -7.9014    2.1299 H   0  0  0  0  0  0  0  0  0  0  0  0
    8.1661   -9.0018    4.0143 H   0  0  0  0  0  0  0  0  0  0  0  0
    7.3131   -9.5074    5.9571 H   0  0  0  0  0  0  0  0  0  0  0  0
    5.8818   -8.2149    7.3340 H   0  0  0  0  0  0  0  0  0  0  0  0
    6.4746   -6.8923    6.2795 H   0  0  0  0  0  0  0  0  0  0  0  0
    3.8278   -7.0939    6.0159 H   0  0  0  0  0  0  0  0  0  0  0  0
    2.7296  -10.1798    4.3065 H   0  0  0  0  0  0  0  0  0  0  0  0
    2.2316   -8.5886    4.7942 H   0  0  0  0  0  0  0  0  0  0  0  0
   -0.8480   -9.0584    2.7254 H   0  0  0  0  0  0  0  0  0  0  0  0
    0.0634   -8.8434    4.2038 H   0  0  0  0  0  0  0  0  0  0  0  0
    0.3182  -10.2698    3.2014 H   0  0  0  0  0  0  0  0  0  0  0  0
    2.6096   -5.4340    1.7600 H   0  0  0  0  0  0  0  0  0  0  0  0
    1.0602   -8.7272    1.3178 H   0  0  0  0  0  0  0  0  0  0  0  0
    2.9603   -9.5061    2.0135 H   0  0  0  0  0  0  0  0  0  0  0  0
    5.6726   -6.4773   -0.1864 H   0  0  0  0  0  0  0  0  0  0  0  0
    4.2720   -5.6110    0.3483 H   0  0  0  0  0  0  0  0  0  0  0  0
    4.0907   -7.1606   -0.3674 H   0  0  0  0  0  0  0  0  0  0  0  0
    4.6348   -9.0962    0.4803 H   0  0  0  0  0  0  0  0  0  0  0  0
    6.2557   -8.6129    0.6378 H   0  0  0  0  0  0  0  0  0  0  0  0
    4.6615  -10.5036    2.3554 H   0  0  0  0  0  0  0  0  0  0  0  0
    5.5055  -11.4499    0.8745 H   0  0  0  0  0  0  0  0  0  0  0  0
    6.0474  -11.6487    5.7883 H   0  0  0  0  0  0  0  0  0  0  0  0
    4.4646  -11.7056    5.0042 H   0  0  0  0  0  0  0  0  0  0  0  0
    4.6848  -10.8354    6.5193 H   0  0  0  0  0  0  0  0  0  0  0  0
  1  2  1  0
  1 34  1  0
  1 35  1  0
  1 36  1  0
  2  3  1  0
  2  4  2  3
  4 30  1  0
  4  5  1  0
  5  6  1  0
  5 37  1  0
  5 38  1  0
  6  7  1  0
  6 39  1  0
  6 40  1  0
  7 30  1  0
  7  8  1  0
  7 41  1  6
  8 26  1  0
  8  9  1  0
  8 42  1  1
  9 28  1  0
  9 10  1  0
  9 43  1  1
 10 11  1  0
 10 44  1  0
 10 45  1  0
 11 12  2  0
 11 46  1  0
 12 28  1  0
 12 13  1  0
 13 47  1  0
 13 48  1  0
 13 14  1  0
 14 20  1  0
 14 54  1  6
 14 15  1  0
 15 16  1  0
 15 53  1  6
 15 17  1  0
 16 49  1  0
 16 50  1  0
 16 51  1  0
 17 18  2  0
 17 19  1  0
 19 20  2  0
 19 52  1  0
 20 21  1  0
 21 22  1  6
 21 23  1  0
 21 30  1  0
 22 55  1  0
 22 56  1  0
 22 57  1  0
 23 24  1  0
 23 58  1  0
 23 59  1  0
 24 25  1  0
 24 26  1  0
 24 60  1  1
 25 61  1  0
 26 27  1  1
 26 28  1  0
 28 29  1  1
 29 62  1  0
 29 63  1  0
 29 64  1  0
 30 31  1  1
 31 32  2  0
 31 33  1  0
M  CHG  1  33  -1
M  END
>  <i_m_ct_stereo_status>  (121) 
1

>  <s_m_source_file>  (121) 
/var/tmp/pbs.5076255.sched01/tmp7rtc4ovb/41r77q45k8.sdf

>  <i_m_source_file_index>  (121) 
14

>  <i_lp_mmshare_version>  (121) 
48012

>  <i_f3d_flags>  (121) 
0

>  <s_epik_input>  (121) 
W0NIM10vQyhGKT1DKFxbQ0gyXVtDSDJdMSlbQ0BdMihDKD1PKVtPSF0pW0NAQEhdMVtDQEhdKFtDQF0zKEYpW0NAQEhdKFtDSDJdNClbT0hdKVtDQEBIXShbQ0gyXVtDSF09NSlbQ0BAXTMoW0NIM10pQzVbQ0gyXUMoPUMoW0NIM10pQyg9TylbQ0gyXTYpW0NASF02W0NAQF0yNFtDSDNd

>  <s_epik_cmdline>  (121) 
J2VwaWtfcHl0aG9uJywgJy1waHQnLCAnMi4wJywgJy1waCcsICc3LjAnLCAnLXRuJywgJzgnLCAnLW1hJywgJzIwMCcsICctaW1hZScsICc8aW5maWxlLm1hZT4nLCAnLW9tYWUnLCAnPG91dGZpbGUubWFlPic=

>  <r_lp_tautomer_probability>  (121) 
0.499977

>  <r_epik_Ionization_Penalty>  (121) 
0.000351606

>  <r_epik_Ionization_Penalty_Charging>  (121) 
0.00035151

>  <r_epik_Ionization_Penalty_Neutral>  (121) 
9.60865e-08

>  <r_epik_State_Penalty>  (121) 
0.41068

>  <r_epik_Charging_Adjusted_Penalty>  (121) 
0.411031

>  <i_epik_Tot_Q>  (121) 
-1

>  <i_epik_Tot_abs_Q>  (121) 
1

>  <s_lp_Force_Field>  (121) 
OPLS3e

>  <r_lp_Energy>  (121) 
114.196

>  <b_lp_Chiralities_Consistent>  (121) 
1

>  <s_lp_Variant>  (121) 
32:0-8

>  <s_i_glide_gridfile>  (121) 
pfpi4k_grid

>  <i_i_glide_lignum>  (121) 
14

>  <i_i_glide_rotatable_bonds>  (121) 
2

>  <r_i_docking_score>  (121) 
-3.49104

>  <r_i_glide_ligand_efficiency>  (121) 
-0.105789

>  <r_i_glide_ligand_efficiency_sa>  (121) 
-0.339322

>  <r_i_glide_ligand_efficiency_ln>  (121) 
-0.77639

>  <r_i_glide_gscore>  (121) 
-3.49104

>  <r_i_glide_lipo>  (121) 
-0.418417

>  <r_i_glide_hbond>  (121) 
-0.308516

>  <r_i_glide_metal>  (121) 
-0

>  <r_i_glide_rewards>  (121) 
-0.447714

>  <r_i_glide_evdw>  (121) 
-19.3485

>  <r_i_glide_ecoul>  (121) 
-8.74303

>  <r_i_glide_erotb>  (121) 
0

>  <r_i_glide_esite>  (121) 
-0.0375164

>  <r_i_glide_emodel>  (121) 
-33.427

>  <r_i_glide_energy>  (121) 
-28.0915

>  <r_i_glide_einternal>  (121) 
0.998939

>  <r_i_glide_intrahb_reward>  (121) 
-0

>  <i_i_glide_confnum>  (121) 
2

>  <i_i_glide_posenum>  (121) 
11

>  <r_i_glide_eff_state_penalty>  (121) 
0

>  <ligand_id>  (121) 
32

>  <original_smiles>  (121) 
CC(F)=C1CCC2C3C4CC=C5CC6=C(C)C(=O)CC6C(C)(CC(O)C3(F)C54C)C12C(=O)O

>  <smiles>  (121) 
[H]OC1([H])C([H])([H])C2(C([H])([H])[H])C3=C([H])C(=O)C([H])(C([H])([H])[H])C3([H])C([H])([H])C3=C([H])C([H])([H])C4([H])C([H])(C5([H])C([H])([H])C([H])([H])C(=C(F)C([H])([H])[H])C52C(=O)[O-])C1(F)C34C([H])([H])[H]

$$$$
33:0:0
     RDKit          3D

 25 27  0  0  1  0  0  0  0  0999 V2000
    3.0032    0.1732   -5.0682 C   0  0  0  0  0  0  0  0  0  0  0  0
    3.3674   -0.7529   -3.9195 C   0  0  0  0  0  0  0  0  0  0  0  0
    4.1986   -0.4043   -2.9278 C   0  0  0  0  0  0  0  0  0  0  0  0
    4.4584   -1.3458   -1.8279 C   0  0  0  0  0  0  0  0  0  0  0  0
    5.2620   -1.0743   -0.9357 O   0  0  0  0  0  0  0  0  0  0  0  0
    3.7316   -2.6568   -1.8789 C   0  0  0  0  0  0  0  0  0  0  0  0
    3.9345   -3.7043   -0.8397 C   0  0  0  0  0  0  0  0  0  0  0  0
    2.9504   -4.4259   -0.2561 N   0  0  0  0  0  0  0  0  0  0  0  0
    3.6006   -5.2730    0.5945 N   0  0  0  0  0  0  0  0  0  0  0  0
    3.0360   -6.1803    1.3988 C   0  0  0  0  0  0  0  0  0  0  0  0
    1.5880   -6.5153    1.5630 C   0  0  0  0  0  0  0  0  0  0  0  0
    4.0246   -6.7782    2.0817 N   0  0  0  0  0  0  0  0  0  0  0  0
    5.2424   -6.2015    1.6548 N   0  0  0  0  0  0  0  0  0  0  0  0
    4.9423   -5.2997    0.7577 C   0  0  0  0  0  0  0  0  0  0  0  0
    5.6130   -4.0983   -0.3180 S   0  0  0  0  0  0  0  0  0  0  0  0
    2.9291   -2.9036   -2.8770 N   0  0  0  0  0  0  0  0  0  0  0  0
    2.7519   -2.0099   -3.9145 N   0  0  0  0  0  0  0  0  0  0  0  0
    2.0736   -2.2504   -4.6321 H   0  0  0  0  0  0  0  0  0  0  0  0
    3.5309    1.1270   -4.9833 H   0  0  0  0  0  0  0  0  0  0  0  0
    1.9328    0.3982   -5.0787 H   0  0  0  0  0  0  0  0  0  0  0  0
    3.2758   -0.2667   -6.0287 H   0  0  0  0  0  0  0  0  0  0  0  0
    4.6552    0.5718   -2.8961 H   0  0  0  0  0  0  0  0  0  0  0  0
    1.5197   -7.3040    2.3121 H   0  0  0  0  0  0  0  0  0  0  0  0
    1.1551   -6.9100    0.6426 H   0  0  0  0  0  0  0  0  0  0  0  0
    1.0192   -5.6662    1.9421 H   0  0  0  0  0  0  0  0  0  0  0  0
  1  2  1  0
  1 19  1  0
  1 20  1  0
  1 21  1  0
  2 17  1  0
  2  3  2  0
  3  4  1  0
  3 22  1  0
  4  5  2  0
  4  6  1  0
  6  7  1  0
  6 16  2  0
  7 15  1  0
  7  8  2  0
  8  9  1  0
  9 14  1  0
  9 10  1  0
 10 11  1  0
 10 12  2  0
 11 23  1  0
 11 24  1  0
 11 25  1  0
 12 13  1  0
 13 14  2  0
 14 15  1  0
 16 17  1  0
 17 18  1  0
M  END
>  <i_m_ct_stereo_status>  (122) 
1

>  <s_m_source_file>  (122) 
/var/tmp/pbs.5076255.sched01/tmp7rtc4ovb/41r77q45k8.sdf

>  <i_m_source_file_index>  (122) 
17

>  <i_lp_mmshare_version>  (122) 
48012

>  <i_f3d_flags>  (122) 
0

>  <s_epik_input>  (122) 
W0NIM11jMVtjSF1jKD1PKWMobltuSF0xKS1jKG4yKXNjKG4yMylubmMzW0NIM10=

>  <s_epik_cmdline>  (122) 
J2VwaWtfcHl0aG9uJywgJy1waHQnLCAnMi4wJywgJy1waCcsICc3LjAnLCAnLXRuJywgJzgnLCAnLW1hJywgJzIwMCcsICctaW1hZScsICc8aW5maWxlLm1hZT4nLCAnLW9tYWUnLCAnPG91dGZpbGUubWFlPic=

>  <r_lp_tautomer_probability>  (122) 
0.999746

>  <r_epik_Ionization_Penalty>  (122) 
0.251501

>  <r_epik_Ionization_Penalty_Charging>  (122) 
0.2515

>  <r_epik_Ionization_Penalty_Neutral>  (122) 
9.28686e-07

>  <r_epik_State_Penalty>  (122) 
0.242863

>  <r_epik_Charging_Adjusted_Penalty>  (122) 
0.494364

>  <i_epik_Tot_Q>  (122) 
0

>  <i_epik_Tot_abs_Q>  (122) 
0

>  <s_lp_Force_Field>  (122) 
OPLS3e

>  <r_lp_Energy>  (122) 
25.0117

>  <b_lp_Chiralities_Consistent>  (122) 
1

>  <s_lp_Variant>  (122) 
33:0-1

>  <s_i_glide_gridfile>  (122) 
pfpi4k_grid

>  <i_i_glide_lignum>  (122) 
17

>  <i_i_glide_rotatable_bonds>  (122) 
1

>  <r_i_docking_score>  (122) 
-4.06742

>  <r_i_glide_ligand_efficiency>  (122) 
-0.23926

>  <r_i_glide_ligand_efficiency_sa>  (122) 
-0.615205

>  <r_i_glide_ligand_efficiency_ln>  (122) 
-1.0611

>  <r_i_glide_gscore>  (122) 
-4.06742

>  <r_i_glide_lipo>  (122) 
-0.560044

>  <r_i_glide_hbond>  (122) 
-0.27314

>  <r_i_glide_metal>  (122) 
-0

>  <r_i_glide_rewards>  (122) 
-1.858

>  <r_i_glide_evdw>  (122) 
-28.9606

>  <r_i_glide_ecoul>  (122) 
-1.37816

>  <r_i_glide_erotb>  (122) 
0.283361

>  <r_i_glide_esite>  (122) 
-0.00485074

>  <r_i_glide_emodel>  (122) 
-37.0531

>  <r_i_glide_energy>  (122) 
-30.3388

>  <r_i_glide_einternal>  (122) 
0.984908

>  <r_i_glide_intrahb_reward>  (122) 
-0

>  <i_i_glide_confnum>  (122) 
2

>  <i_i_glide_posenum>  (122) 
23

>  <r_i_glide_eff_state_penalty>  (122) 
0

>  <ligand_id>  (122) 
33

>  <original_smiles>  (122) 
Cc1cc(=O)c(-c2nn3c(C)nnc3s2)n[nH]1

>  <smiles>  (122) 
[H]c1c(C([H])([H])[H])n([H])nc(-c2nn3c(C([H])([H])[H])nnc3s2)c1=O

$$$$
33:0:1
     RDKit          3D

 25 27  0  0  1  0  0  0  0  0999 V2000
    2.3865  -10.2472    2.7372 C   0  0  0  0  0  0  0  0  0  0  0  0
    2.8187   -8.9144    2.1493 C   0  0  0  0  0  0  0  0  0  0  0  0
    1.9656   -7.9234    1.8518 C   0  0  0  0  0  0  0  0  0  0  0  0
    2.4768   -6.6565    1.2764 C   0  0  0  0  0  0  0  0  0  0  0  0
    1.7140   -5.7318    1.0042 O   0  0  0  0  0  0  0  0  0  0  0  0
    3.9597   -6.5856    1.0456 C   0  0  0  0  0  0  0  0  0  0  0  0
    4.6827   -5.3925    0.5096 C   0  0  0  0  0  0  0  0  0  0  0  0
    4.1026   -4.4041   -0.2067 N   0  0  0  0  0  0  0  0  0  0  0  0
    5.1028   -3.5349   -0.4979 N   0  0  0  0  0  0  0  0  0  0  0  0
    4.9764   -2.4088   -1.2028 C   0  0  0  0  0  0  0  0  0  0  0  0
    3.7445   -1.8219   -1.8113 C   0  0  0  0  0  0  0  0  0  0  0  0
    6.1975   -1.8539   -1.2696 N   0  0  0  0  0  0  0  0  0  0  0  0
    7.0906   -2.6864   -0.5594 N   0  0  0  0  0  0  0  0  0  0  0  0
    6.3841   -3.6921   -0.1088 C   0  0  0  0  0  0  0  0  0  0  0  0
    6.4498   -5.1851    0.8164 S   0  0  0  0  0  0  0  0  0  0  0  0
    4.7002   -7.6106    1.3683 N   0  0  0  0  0  0  0  0  0  0  0  0
    4.1847   -8.7625    1.9137 N   0  0  0  0  0  0  0  0  0  0  0  0
    4.8276   -9.5204    2.1205 H   0  0  0  0  0  0  0  0  0  0  0  0
    1.3026  -10.2662    2.8664 H   0  0  0  0  0  0  0  0  0  0  0  0
    2.8383  -10.4283    3.7167 H   0  0  0  0  0  0  0  0  0  0  0  0
    2.6530  -11.0722    2.0781 H   0  0  0  0  0  0  0  0  0  0  0  0
    0.9066   -8.0287    2.0198 H   0  0  0  0  0  0  0  0  0  0  0  0
    4.0387   -0.8917   -2.2905 H   0  0  0  0  0  0  0  0  0  0  0  0
    3.0136   -1.5559   -1.0486 H   0  0  0  0  0  0  0  0  0  0  0  0
    3.3072   -2.4622   -2.5824 H   0  0  0  0  0  0  0  0  0  0  0  0
  1  2  1  0
  1 19  1  0
  1 20  1  0
  1 21  1  0
  2 17  1  0
  2  3  2  0
  3  4  1  0
  3 22  1  0
  4  5  2  0
  4  6  1  0
  6  7  1  0
  6 16  2  0
  7 15  1  0
  7  8  2  0
  8  9  1  0
  9 14  1  0
  9 10  1  0
 10 11  1  0
 10 12  2  0
 11 23  1  0
 11 24  1  0
 11 25  1  0
 12 13  1  0
 13 14  2  0
 14 15  1  0
 16 17  1  0
 17 18  1  0
M  END
>  <i_m_ct_stereo_status>  (123) 
1

>  <s_m_source_file>  (123) 
/var/tmp/pbs.5076255.sched01/tmp7rtc4ovb/41r77q45k8.sdf

>  <i_m_source_file_index>  (123) 
17

>  <i_lp_mmshare_version>  (123) 
48012

>  <i_f3d_flags>  (123) 
0

>  <s_epik_input>  (123) 
W0NIM11jMVtjSF1jKD1PKWMobltuSF0xKS1jKG4yKXNjKG4yMylubmMzW0NIM10=

>  <s_epik_cmdline>  (123) 
J2VwaWtfcHl0aG9uJywgJy1waHQnLCAnMi4wJywgJy1waCcsICc3LjAnLCAnLXRuJywgJzgnLCAnLW1hJywgJzIwMCcsICctaW1hZScsICc8aW5maWxlLm1hZT4nLCAnLW9tYWUnLCAnPG91dGZpbGUubWFlPic=

>  <r_lp_tautomer_probability>  (123) 
0.999746

>  <r_epik_Ionization_Penalty>  (123) 
0.251501

>  <r_epik_Ionization_Penalty_Charging>  (123) 
0.2515

>  <r_epik_Ionization_Penalty_Neutral>  (123) 
9.28686e-07

>  <r_epik_State_Penalty>  (123) 
0.242863

>  <r_epik_Charging_Adjusted_Penalty>  (123) 
0.494364

>  <i_epik_Tot_Q>  (123) 
0

>  <i_epik_Tot_abs_Q>  (123) 
0

>  <s_lp_Force_Field>  (123) 
OPLS3e

>  <r_lp_Energy>  (123) 
25.0117

>  <b_lp_Chiralities_Consistent>  (123) 
1

>  <s_lp_Variant>  (123) 
33:0-1

>  <s_i_glide_gridfile>  (123) 
pfpi4k_grid

>  <i_i_glide_lignum>  (123) 
17

>  <i_i_glide_rotatable_bonds>  (123) 
1

>  <r_i_docking_score>  (123) 
-3.96293

>  <r_i_glide_ligand_efficiency>  (123) 
-0.233114

>  <r_i_glide_ligand_efficiency_sa>  (123) 
-0.599401

>  <r_i_glide_ligand_efficiency_ln>  (123) 
-1.03384

>  <r_i_glide_gscore>  (123) 
-3.96293

>  <r_i_glide_lipo>  (123) 
-0.279239

>  <r_i_glide_hbond>  (123) 
-0.105556

>  <r_i_glide_metal>  (123) 
-0

>  <r_i_glide_rewards>  (123) 
-1.90535

>  <r_i_glide_evdw>  (123) 
-22.9655

>  <r_i_glide_ecoul>  (123) 
-4.56394

>  <r_i_glide_erotb>  (123) 
0.283361

>  <r_i_glide_esite>  (123) 
-0.123281

>  <r_i_glide_emodel>  (123) 
-35.0475

>  <r_i_glide_energy>  (123) 
-27.5295

>  <r_i_glide_einternal>  (123) 
0.0352512

>  <r_i_glide_intrahb_reward>  (123) 
-0

>  <i_i_glide_confnum>  (123) 
3

>  <i_i_glide_posenum>  (123) 
13

>  <r_i_glide_eff_state_penalty>  (123) 
0

>  <ligand_id>  (123) 
33

>  <original_smiles>  (123) 
Cc1cc(=O)c(-c2nn3c(C)nnc3s2)n[nH]1

>  <smiles>  (123) 
[H]c1c(C([H])([H])[H])n([H])nc(-c2nn3c(C([H])([H])[H])nnc3s2)c1=O

$$$$
33:0:2
     RDKit          3D

 25 27  0  0  1  0  0  0  0  0999 V2000
   -0.4683   -8.0319    3.3445 C   0  0  0  0  0  0  0  0  0  0  0  0
    0.5325   -7.1288    2.6433 C   0  0  0  0  0  0  0  0  0  0  0  0
    1.5146   -6.4709    3.2804 C   0  0  0  0  0  0  0  0  0  0  0  0
    2.4339   -5.6149    2.5020 C   0  0  0  0  0  0  0  0  0  0  0  0
    3.3445   -4.9851    3.0393 O   0  0  0  0  0  0  0  0  0  0  0  0
    2.2103   -5.5522    1.0242 C   0  0  0  0  0  0  0  0  0  0  0  0
    3.0893   -4.7493    0.1347 C   0  0  0  0  0  0  0  0  0  0  0  0
    2.6545   -3.8292   -0.7527 N   0  0  0  0  0  0  0  0  0  0  0  0
    3.7877   -3.3495   -1.3408 N   0  0  0  0  0  0  0  0  0  0  0  0
    3.8612   -2.4213   -2.3042 C   0  0  0  0  0  0  0  0  0  0  0  0
    2.7618   -1.6788   -2.9939 C   0  0  0  0  0  0  0  0  0  0  0  0
    5.1583   -2.2499   -2.5918 N   0  0  0  0  0  0  0  0  0  0  0  0
    5.8997   -3.1118   -1.7545 N   0  0  0  0  0  0  0  0  0  0  0  0
    5.0343   -3.7701   -1.0262 C   0  0  0  0  0  0  0  0  0  0  0  0
    4.8686   -5.0012    0.2071 S   0  0  0  0  0  0  0  0  0  0  0  0
    1.2141   -6.2132    0.4977 N   0  0  0  0  0  0  0  0  0  0  0  0
    0.3749   -7.0035    1.2577 N   0  0  0  0  0  0  0  0  0  0  0  0
   -0.2950   -7.5915    0.7663 H   0  0  0  0  0  0  0  0  0  0  0  0
   -0.2810   -8.0539    4.4213 H   0  0  0  0  0  0  0  0  0  0  0  0
   -0.4000   -9.0627    2.9855 H   0  0  0  0  0  0  0  0  0  0  0  0
   -1.4927   -7.6797    3.1979 H   0  0  0  0  0  0  0  0  0  0  0  0
    1.6485   -6.5485    4.3524 H   0  0  0  0  0  0  0  0  0  0  0  0
    3.2194   -0.9988   -3.7088 H   0  0  0  0  0  0  0  0  0  0  0  0
    2.2148   -1.0327   -2.3195 H   0  0  0  0  0  0  0  0  0  0  0  0
    2.0888   -2.3437   -3.5362 H   0  0  0  0  0  0  0  0  0  0  0  0
  1  2  1  0
  1 19  1  0
  1 20  1  0
  1 21  1  0
  2 17  1  0
  2  3  2  0
  3  4  1  0
  3 22  1  0
  4  5  2  0
  4  6  1  0
  6  7  1  0
  6 16  2  0
  7 15  1  0
  7  8  2  0
  8  9  1  0
  9 14  1  0
  9 10  1  0
 10 11  1  0
 10 12  2  0
 11 23  1  0
 11 24  1  0
 11 25  1  0
 12 13  1  0
 13 14  2  0
 14 15  1  0
 16 17  1  0
 17 18  1  0
M  END
>  <i_m_ct_stereo_status>  (124) 
1

>  <s_m_source_file>  (124) 
/var/tmp/pbs.5076255.sched01/tmp7rtc4ovb/41r77q45k8.sdf

>  <i_m_source_file_index>  (124) 
17

>  <i_lp_mmshare_version>  (124) 
48012

>  <i_f3d_flags>  (124) 
0

>  <s_epik_input>  (124) 
W0NIM11jMVtjSF1jKD1PKWMobltuSF0xKS1jKG4yKXNjKG4yMylubmMzW0NIM10=

>  <s_epik_cmdline>  (124) 
J2VwaWtfcHl0aG9uJywgJy1waHQnLCAnMi4wJywgJy1waCcsICc3LjAnLCAnLXRuJywgJzgnLCAnLW1hJywgJzIwMCcsICctaW1hZScsICc8aW5maWxlLm1hZT4nLCAnLW9tYWUnLCAnPG91dGZpbGUubWFlPic=

>  <r_lp_tautomer_probability>  (124) 
0.999746

>  <r_epik_Ionization_Penalty>  (124) 
0.251501

>  <r_epik_Ionization_Penalty_Charging>  (124) 
0.2515

>  <r_epik_Ionization_Penalty_Neutral>  (124) 
9.28686e-07

>  <r_epik_State_Penalty>  (124) 
0.242863

>  <r_epik_Charging_Adjusted_Penalty>  (124) 
0.494364

>  <i_epik_Tot_Q>  (124) 
0

>  <i_epik_Tot_abs_Q>  (124) 
0

>  <s_lp_Force_Field>  (124) 
OPLS3e

>  <r_lp_Energy>  (124) 
25.0117

>  <b_lp_Chiralities_Consistent>  (124) 
1

>  <s_lp_Variant>  (124) 
33:0-1

>  <s_i_glide_gridfile>  (124) 
pfpi4k_grid

>  <i_i_glide_lignum>  (124) 
17

>  <i_i_glide_rotatable_bonds>  (124) 
1

>  <r_i_docking_score>  (124) 
-3.81671

>  <r_i_glide_ligand_efficiency>  (124) 
-0.224512

>  <r_i_glide_ligand_efficiency_sa>  (124) 
-0.577284

>  <r_i_glide_ligand_efficiency_ln>  (124) 
-0.995695

>  <r_i_glide_gscore>  (124) 
-3.81671

>  <r_i_glide_lipo>  (124) 
-0.0469799

>  <r_i_glide_hbond>  (124) 
-0.158014

>  <r_i_glide_metal>  (124) 
-0

>  <r_i_glide_rewards>  (124) 
-1.77291

>  <r_i_glide_evdw>  (124) 
-24.2465

>  <r_i_glide_ecoul>  (124) 
-5.38489

>  <r_i_glide_erotb>  (124) 
0.283361

>  <r_i_glide_esite>  (124) 
-0.102104

>  <r_i_glide_emodel>  (124) 
-35.7804

>  <r_i_glide_energy>  (124) 
-29.6314

>  <r_i_glide_einternal>  (124) 
1.21131

>  <r_i_glide_intrahb_reward>  (124) 
-0

>  <i_i_glide_confnum>  (124) 
3

>  <i_i_glide_posenum>  (124) 
30

>  <r_i_glide_eff_state_penalty>  (124) 
0

>  <ligand_id>  (124) 
33

>  <original_smiles>  (124) 
Cc1cc(=O)c(-c2nn3c(C)nnc3s2)n[nH]1

>  <smiles>  (124) 
[H]c1c(C([H])([H])[H])n([H])nc(-c2nn3c(C([H])([H])[H])nnc3s2)c1=O

$$$$
33:1:0
     RDKit          3D

 24 26  0  0  1  0  0  0  0  0999 V2000
   -0.4418   -8.2245    2.5096 C   0  0  0  0  0  0  0  0  0  0  0  0
    0.6834   -7.3288    2.0053 C   0  0  0  0  0  0  0  0  0  0  0  0
    1.8922   -7.2131    2.7081 C   0  0  0  0  0  0  0  0  0  0  0  0
    2.8756   -6.3476    2.1966 C   0  0  0  0  0  0  0  0  0  0  0  0
    4.0326   -6.2176    2.9243 O   0  0  0  0  0  0  0  0  0  0  0  0
    2.6003   -5.6589    0.9737 C   0  0  0  0  0  0  0  0  0  0  0  0
    3.5508   -4.7326    0.2748 C   0  0  0  0  0  0  0  0  0  0  0  0
    3.1645   -3.7463   -0.5627 N   0  0  0  0  0  0  0  0  0  0  0  0
    4.3194   -3.1451   -0.9681 N   0  0  0  0  0  0  0  0  0  0  0  0
    4.4241   -2.1180   -1.8142 C   0  0  0  0  0  0  0  0  0  0  0  0
    3.3408   -1.3954   -2.5515 C   0  0  0  0  0  0  0  0  0  0  0  0
    5.7290   -1.8217   -1.9221 N   0  0  0  0  0  0  0  0  0  0  0  0
    6.4406   -2.7277   -1.1029 N   0  0  0  0  0  0  0  0  0  0  0  0
    5.5485   -3.5172   -0.5514 C   0  0  0  0  0  0  0  0  0  0  0  0
    5.3311   -4.8837    0.5146 S   0  0  0  0  0  0  0  0  0  0  0  0
    1.4031   -5.8540    0.3567 N   0  0  0  0  0  0  0  0  0  0  0  0
    0.4595   -6.6516    0.8669 N   0  0  0  0  0  0  0  0  0  0  0  0
   -0.1638   -8.7272    3.4351 H   0  0  0  0  0  0  0  0  0  0  0  0
   -0.6776   -8.9917    1.7762 H   0  0  0  0  0  0  0  0  0  0  0  0
   -1.3449   -7.6458    2.6933 H   0  0  0  0  0  0  0  0  0  0  0  0
    2.0552   -7.7595    3.6192 H   0  0  0  0  0  0  0  0  0  0  0  0
    3.8300   -0.6293   -3.1476 H   0  0  0  0  0  0  0  0  0  0  0  0
    2.6565   -0.8798   -1.8801 H   0  0  0  0  0  0  0  0  0  0  0  0
    2.7947   -2.0465   -3.2370 H   0  0  0  0  0  0  0  0  0  0  0  0
  1  2  1  0
  1 18  1  0
  1 19  1  0
  1 20  1  0
  2 17  2  0
  2  3  1  0
  3  4  2  0
  3 21  1  0
  4  5  1  0
  4  6  1  0
  6  7  1  0
  6 16  2  0
  7 15  1  0
  7  8  2  0
  8  9  1  0
  9 14  1  0
  9 10  1  0
 10 11  1  0
 10 12  2  0
 11 22  1  0
 11 23  1  0
 11 24  1  0
 12 13  1  0
 13 14  2  0
 14 15  1  0
 16 17  1  0
M  CHG  1   5  -1
M  END
>  <i_m_ct_stereo_status>  (125) 
1

>  <s_m_source_file>  (125) 
/var/tmp/pbs.5076255.sched01/tmp7rtc4ovb/41r77q45k8.sdf

>  <i_m_source_file_index>  (125) 
18

>  <i_lp_mmshare_version>  (125) 
48012

>  <i_f3d_flags>  (125) 
0

>  <s_epik_input>  (125) 
W0NIM11jMVtjSF1jKD1PKWMobltuSF0xKS1jKG4yKXNjKG4yMylubmMzW0NIM10=

>  <s_epik_cmdline>  (125) 
J2VwaWtfcHl0aG9uJywgJy1waHQnLCAnMi4wJywgJy1waCcsICc3LjAnLCAnLXRuJywgJzgnLCAnLW1hJywgJzIwMCcsICctaW1hZScsICc8aW5maWxlLm1hZT4nLCAnLW9tYWUnLCAnPG91dGZpbGUubWFlPic=

>  <r_epik_Ionization_Penalty>  (125) 
0.633651

>  <r_epik_Ionization_Penalty_Charging>  (125) 
0.00465023

>  <r_epik_Ionization_Penalty_Neutral>  (125) 
0.629001

>  <r_epik_State_Penalty>  (125) 
0.645685

>  <r_epik_Charging_Adjusted_Penalty>  (125) 
0.650335

>  <i_epik_Tot_Q>  (125) 
-1

>  <i_epik_Tot_abs_Q>  (125) 
1

>  <s_lp_Force_Field>  (125) 
OPLS3e

>  <r_lp_Energy>  (125) 
12.112

>  <b_lp_Chiralities_Consistent>  (125) 
1

>  <s_lp_Variant>  (125) 
33:0-2

>  <s_i_glide_gridfile>  (125) 
pfpi4k_grid

>  <i_i_glide_lignum>  (125) 
18

>  <i_i_glide_rotatable_bonds>  (125) 
1

>  <r_i_docking_score>  (125) 
-3.80461

>  <r_i_glide_ligand_efficiency>  (125) 
-0.223801

>  <r_i_glide_ligand_efficiency_sa>  (125) 
-0.575454

>  <r_i_glide_ligand_efficiency_ln>  (125) 
-0.992538

>  <r_i_glide_gscore>  (125) 
-3.80461

>  <r_i_glide_lipo>  (125) 
-0.0813438

>  <r_i_glide_hbond>  (125) 
0

>  <r_i_glide_metal>  (125) 
-0

>  <r_i_glide_rewards>  (125) 
-1.81133

>  <r_i_glide_evdw>  (125) 
-22.7222

>  <r_i_glide_ecoul>  (125) 
-5.21271

>  <r_i_glide_erotb>  (125) 
0.285342

>  <r_i_glide_esite>  (125) 
-0.279261

>  <r_i_glide_emodel>  (125) 
-33.5634

>  <r_i_glide_energy>  (125) 
-27.9349

>  <r_i_glide_einternal>  (125) 
5.18752

>  <r_i_glide_intrahb_reward>  (125) 
-0

>  <i_i_glide_confnum>  (125) 
6

>  <i_i_glide_posenum>  (125) 
36

>  <r_i_glide_eff_state_penalty>  (125) 
0

>  <ligand_id>  (125) 
33

>  <original_smiles>  (125) 
Cc1cc(=O)c(-c2nn3c(C)nnc3s2)n[nH]1

>  <smiles>  (125) 
[H]c1c(C([H])([H])[H])nnc(-c2nn3c(C([H])([H])[H])nnc3s2)c1[O-]

$$$$
33:1:1
     RDKit          3D

 24 26  0  0  1  0  0  0  0  0999 V2000
    1.4436   -8.8505    3.8466 C   0  0  0  0  0  0  0  0  0  0  0  0
    1.9526   -7.7662    2.9085 C   0  0  0  0  0  0  0  0  0  0  0  0
    1.1547   -7.2898    1.8525 C   0  0  0  0  0  0  0  0  0  0  0  0
    1.6853   -6.2841    1.0222 C   0  0  0  0  0  0  0  0  0  0  0  0
    0.9172   -5.8728   -0.0261 O   0  0  0  0  0  0  0  0  0  0  0  0
    2.9943   -5.8063    1.2863 C   0  0  0  0  0  0  0  0  0  0  0  0
    3.7392   -4.7484    0.5254 C   0  0  0  0  0  0  0  0  0  0  0  0
    3.2339   -4.0147   -0.4898 N   0  0  0  0  0  0  0  0  0  0  0  0
    4.2513   -3.2019   -0.8882 N   0  0  0  0  0  0  0  0  0  0  0  0
    4.1945   -2.3128   -1.8865 C   0  0  0  0  0  0  0  0  0  0  0  0
    3.0680   -2.0029   -2.8237 C   0  0  0  0  0  0  0  0  0  0  0  0
    5.3911   -1.6958   -1.9235 N   0  0  0  0  0  0  0  0  0  0  0  0
    6.2017   -2.2703   -0.9210 N   0  0  0  0  0  0  0  0  0  0  0  0
    5.4708   -3.1789   -0.3136 C   0  0  0  0  0  0  0  0  0  0  0  0
    5.4518   -4.3799    0.9599 S   0  0  0  0  0  0  0  0  0  0  0  0
    3.6948   -6.3340    2.3329 N   0  0  0  0  0  0  0  0  0  0  0  0
    3.1941   -7.2890    3.1293 N   0  0  0  0  0  0  0  0  0  0  0  0
    0.4344   -9.1618    3.5759 H   0  0  0  0  0  0  0  0  0  0  0  0
    1.4121   -8.4934    4.8780 H   0  0  0  0  0  0  0  0  0  0  0  0
    2.0809   -9.7367    3.8086 H   0  0  0  0  0  0  0  0  0  0  0  0
    0.1733   -7.6973    1.6842 H   0  0  0  0  0  0  0  0  0  0  0  0
    3.3963   -1.2121   -3.4999 H   0  0  0  0  0  0  0  0  0  0  0  0
    2.2083   -1.6065   -2.3056 H   0  0  0  0  0  0  0  0  0  0  0  0
    2.7792   -2.8657   -3.4286 H   0  0  0  0  0  0  0  0  0  0  0  0
  1  2  1  0
  1 18  1  0
  1 19  1  0
  1 20  1  0
  2 17  2  0
  2  3  1  0
  3  4  2  0
  3 21  1  0
  4  5  1  0
  4  6  1  0
  6  7  1  0
  6 16  2  0
  7 15  1  0
  7  8  2  0
  8  9  1  0
  9 14  1  0
  9 10  1  0
 10 11  1  0
 10 12  2  0
 11 22  1  0
 11 23  1  0
 11 24  1  0
 12 13  1  0
 13 14  2  0
 14 15  1  0
 16 17  1  0
M  CHG  1   5  -1
M  END
>  <i_m_ct_stereo_status>  (126) 
1

>  <s_m_source_file>  (126) 
/var/tmp/pbs.5076255.sched01/tmp7rtc4ovb/41r77q45k8.sdf

>  <i_m_source_file_index>  (126) 
18

>  <i_lp_mmshare_version>  (126) 
48012

>  <i_f3d_flags>  (126) 
0

>  <s_epik_input>  (126) 
W0NIM11jMVtjSF1jKD1PKWMobltuSF0xKS1jKG4yKXNjKG4yMylubmMzW0NIM10=

>  <s_epik_cmdline>  (126) 
J2VwaWtfcHl0aG9uJywgJy1waHQnLCAnMi4wJywgJy1waCcsICc3LjAnLCAnLXRuJywgJzgnLCAnLW1hJywgJzIwMCcsICctaW1hZScsICc8aW5maWxlLm1hZT4nLCAnLW9tYWUnLCAnPG91dGZpbGUubWFlPic=

>  <r_epik_Ionization_Penalty>  (126) 
0.633651

>  <r_epik_Ionization_Penalty_Charging>  (126) 
0.00465023

>  <r_epik_Ionization_Penalty_Neutral>  (126) 
0.629001

>  <r_epik_State_Penalty>  (126) 
0.645685

>  <r_epik_Charging_Adjusted_Penalty>  (126) 
0.650335

>  <i_epik_Tot_Q>  (126) 
-1

>  <i_epik_Tot_abs_Q>  (126) 
1

>  <s_lp_Force_Field>  (126) 
OPLS3e

>  <r_lp_Energy>  (126) 
12.112

>  <b_lp_Chiralities_Consistent>  (126) 
1

>  <s_lp_Variant>  (126) 
33:0-2

>  <s_i_glide_gridfile>  (126) 
pfpi4k_grid

>  <i_i_glide_lignum>  (126) 
18

>  <i_i_glide_rotatable_bonds>  (126) 
1

>  <r_i_docking_score>  (126) 
-3.63779

>  <r_i_glide_ligand_efficiency>  (126) 
-0.213988

>  <r_i_glide_ligand_efficiency_sa>  (126) 
-0.550222

>  <r_i_glide_ligand_efficiency_ln>  (126) 
-0.949018

>  <r_i_glide_gscore>  (126) 
-3.63779

>  <r_i_glide_lipo>  (126) 
-0.0587843

>  <r_i_glide_hbond>  (126) 
-0.356029

>  <r_i_glide_metal>  (126) 
-0

>  <r_i_glide_rewards>  (126) 
-1.79675

>  <r_i_glide_evdw>  (126) 
-19.3348

>  <r_i_glide_ecoul>  (126) 
-4.38436

>  <r_i_glide_erotb>  (126) 
0.285342

>  <r_i_glide_esite>  (126) 
-0.0871798

>  <r_i_glide_emodel>  (126) 
-31.8678

>  <r_i_glide_energy>  (126) 
-23.7191

>  <r_i_glide_einternal>  (126) 
0.0317298

>  <r_i_glide_intrahb_reward>  (126) 
-0

>  <i_i_glide_confnum>  (126) 
2

>  <i_i_glide_posenum>  (126) 
14

>  <r_i_glide_eff_state_penalty>  (126) 
0

>  <ligand_id>  (126) 
33

>  <original_smiles>  (126) 
Cc1cc(=O)c(-c2nn3c(C)nnc3s2)n[nH]1

>  <smiles>  (126) 
[H]c1c(C([H])([H])[H])nnc(-c2nn3c(C([H])([H])[H])nnc3s2)c1[O-]

$$$$
33:1:2
     RDKit          3D

 24 26  0  0  1  0  0  0  0  0999 V2000
    0.0556   -9.0459    2.4820 C   0  0  0  0  0  0  0  0  0  0  0  0
    1.0715   -8.0102    2.0241 C   0  0  0  0  0  0  0  0  0  0  0  0
    2.4454   -8.3008    1.9650 C   0  0  0  0  0  0  0  0  0  0  0  0
    3.3225   -7.2779    1.5465 C   0  0  0  0  0  0  0  0  0  0  0  0
    4.6654   -7.5560    1.4879 O   0  0  0  0  0  0  0  0  0  0  0  0
    2.7634   -6.0130    1.2019 C   0  0  0  0  0  0  0  0  0  0  0  0
    3.5493   -4.8400    0.7043 C   0  0  0  0  0  0  0  0  0  0  0  0
    3.2438   -3.5495    0.9731 N   0  0  0  0  0  0  0  0  0  0  0  0
    4.2037   -2.8110    0.3430 N   0  0  0  0  0  0  0  0  0  0  0  0
    4.3097   -1.4769    0.3403 C   0  0  0  0  0  0  0  0  0  0  0  0
    3.4297   -0.4688    1.0083 C   0  0  0  0  0  0  0  0  0  0  0  0
    5.3952   -1.1643   -0.3912 N   0  0  0  0  0  0  0  0  0  0  0  0
    5.9613   -2.3774   -0.8468 N   0  0  0  0  0  0  0  0  0  0  0  0
    5.2109   -3.3446   -0.3808 C   0  0  0  0  0  0  0  0  0  0  0  0
    5.0056   -5.0787   -0.3218 S   0  0  0  0  0  0  0  0  0  0  0  0
    1.4168   -5.8436    1.2607 N   0  0  0  0  0  0  0  0  0  0  0  0
    0.5804   -6.8023    1.6657 N   0  0  0  0  0  0  0  0  0  0  0  0
    0.5384   -9.9903    2.7291 H   0  0  0  0  0  0  0  0  0  0  0  0
   -0.6783   -9.2418    1.6977 H   0  0  0  0  0  0  0  0  0  0  0  0
   -0.4822   -8.7035    3.3640 H   0  0  0  0  0  0  0  0  0  0  0  0
    2.8083   -9.2769    2.2373 H   0  0  0  0  0  0  0  0  0  0  0  0
    3.8331    0.5157    0.7797 H   0  0  0  0  0  0  0  0  0  0  0  0
    3.4344   -0.5756    2.0940 H   0  0  0  0  0  0  0  0  0  0  0  0
    2.4124   -0.4930    0.6190 H   0  0  0  0  0  0  0  0  0  0  0  0
  1  2  1  0
  1 18  1  0
  1 19  1  0
  1 20  1  0
  2 17  2  0
  2  3  1  0
  3  4  2  0
  3 21  1  0
  4  5  1  0
  4  6  1  0
  6  7  1  0
  6 16  2  0
  7 15  1  0
  7  8  2  0
  8  9  1  0
  9 14  1  0
  9 10  1  0
 10 11  1  0
 10 12  2  0
 11 22  1  0
 11 23  1  0
 11 24  1  0
 12 13  1  0
 13 14  2  0
 14 15  1  0
 16 17  1  0
M  CHG  1   5  -1
M  END
>  <i_m_ct_stereo_status>  (127) 
1

>  <s_m_source_file>  (127) 
/var/tmp/pbs.5076255.sched01/tmp7rtc4ovb/41r77q45k8.sdf

>  <i_m_source_file_index>  (127) 
18

>  <i_lp_mmshare_version>  (127) 
48012

>  <i_f3d_flags>  (127) 
0

>  <s_epik_input>  (127) 
W0NIM11jMVtjSF1jKD1PKWMobltuSF0xKS1jKG4yKXNjKG4yMylubmMzW0NIM10=

>  <s_epik_cmdline>  (127) 
J2VwaWtfcHl0aG9uJywgJy1waHQnLCAnMi4wJywgJy1waCcsICc3LjAnLCAnLXRuJywgJzgnLCAnLW1hJywgJzIwMCcsICctaW1hZScsICc8aW5maWxlLm1hZT4nLCAnLW9tYWUnLCAnPG91dGZpbGUubWFlPic=

>  <r_epik_Ionization_Penalty>  (127) 
0.633651

>  <r_epik_Ionization_Penalty_Charging>  (127) 
0.00465023

>  <r_epik_Ionization_Penalty_Neutral>  (127) 
0.629001

>  <r_epik_State_Penalty>  (127) 
0.645685

>  <r_epik_Charging_Adjusted_Penalty>  (127) 
0.650335

>  <i_epik_Tot_Q>  (127) 
-1

>  <i_epik_Tot_abs_Q>  (127) 
1

>  <s_lp_Force_Field>  (127) 
OPLS3e

>  <r_lp_Energy>  (127) 
12.112

>  <b_lp_Chiralities_Consistent>  (127) 
1

>  <s_lp_Variant>  (127) 
33:0-2

>  <s_i_glide_gridfile>  (127) 
pfpi4k_grid

>  <i_i_glide_lignum>  (127) 
18

>  <i_i_glide_rotatable_bonds>  (127) 
1

>  <r_i_docking_score>  (127) 
-3.52606

>  <r_i_glide_ligand_efficiency>  (127) 
-0.207416

>  <r_i_glide_ligand_efficiency_sa>  (127) 
-0.533324

>  <r_i_glide_ligand_efficiency_ln>  (127) 
-0.919872

>  <r_i_glide_gscore>  (127) 
-3.52606

>  <r_i_glide_lipo>  (127) 
-0.0621915

>  <r_i_glide_hbond>  (127) 
0

>  <r_i_glide_metal>  (127) 
-0

>  <r_i_glide_rewards>  (127) 
-1.79069

>  <r_i_glide_evdw>  (127) 
-20.5757

>  <r_i_glide_ecoul>  (127) 
-4.48428

>  <r_i_glide_erotb>  (127) 
0.285342

>  <r_i_glide_esite>  (127) 
-0.257093

>  <r_i_glide_emodel>  (127) 
-30.3383

>  <r_i_glide_energy>  (127) 
-25.06

>  <r_i_glide_einternal>  (127) 
5.17955

>  <r_i_glide_intrahb_reward>  (127) 
-0

>  <i_i_glide_confnum>  (127) 
3

>  <i_i_glide_posenum>  (127) 
39

>  <r_i_glide_eff_state_penalty>  (127) 
0

>  <ligand_id>  (127) 
33

>  <original_smiles>  (127) 
Cc1cc(=O)c(-c2nn3c(C)nnc3s2)n[nH]1

>  <smiles>  (127) 
[H]c1c(C([H])([H])[H])nnc(-c2nn3c(C([H])([H])[H])nnc3s2)c1[O-]

$$$$
35:0:0
     RDKit          3D

 36 39  0  0  1  0  0  0  0  0999 V2000
    4.2976   -0.7015   -2.3603 C   0  0  0  0  0  0  0  0  0  0  0  0
    4.3396   -1.6435   -1.4067 C   0  0  0  0  0  0  0  0  0  0  0  0
    4.3428   -3.1361   -1.6584 C   0  0  1  0  0  0  0  0  0  0  0  0
    5.7209   -3.5134   -2.1680 C   0  0  0  0  0  0  0  0  0  0  0  0
    6.7968   -3.0621   -1.1682 C   0  0  0  0  0  0  0  0  0  0  0  0
    6.2909   -3.0451    0.2899 C   0  0  1  0  0  0  0  0  0  0  0  0
    5.5651   -1.7752    0.8128 C   0  0  2  0  0  0  0  0  0  0  0  0
    5.3161   -2.2212    2.2626 C   0  0  0  0  0  0  0  0  0  0  0  0
    5.0736   -3.7486    2.1495 C   0  0  0  0  0  0  0  0  0  0  0  0
    5.2219   -4.0937    0.6390 C   0  0  2  0  0  0  0  0  0  0  0  0
    5.6774   -5.5539    0.5033 C   0  0  0  0  0  0  0  0  0  0  0  0
    3.9532   -3.7851   -0.2678 C   0  0  1  0  0  0  0  0  0  0  0  0
    3.1433   -2.5993    0.2723 C   0  0  1  0  0  0  0  0  0  0  0  0
    2.4811   -2.7002    1.5163 O   0  0  0  0  0  0  0  0  0  0  0  0
    4.1928   -1.4853    0.0898 C   0  0  2  0  0  0  0  0  0  0  0  0
    3.6805   -0.2426    0.4813 O   0  0  0  0  0  0  0  0  0  0  0  0
    4.2259    0.3447   -2.1156 H   0  0  0  0  0  0  0  0  0  0  0  0
    4.3429   -0.9782   -3.4032 H   0  0  0  0  0  0  0  0  0  0  0  0
    3.5831   -3.3639   -2.4072 H   0  0  0  0  0  0  0  0  0  0  0  0
    5.7139   -4.5940   -2.2923 H   0  0  0  0  0  0  0  0  0  0  0  0
    5.9244   -3.0965   -3.1541 H   0  0  0  0  0  0  0  0  0  0  0  0
    7.6453   -3.7457   -1.2449 H   0  0  0  0  0  0  0  0  0  0  0  0
    7.1816   -2.0823   -1.4355 H   0  0  0  0  0  0  0  0  0  0  0  0
    7.1780   -3.2036    0.9098 H   0  0  0  0  0  0  0  0  0  0  0  0
    6.2157   -0.9024    0.7623 H   0  0  0  0  0  0  0  0  0  0  0  0
    6.2063   -2.0296    2.8582 H   0  0  0  0  0  0  0  0  0  0  0  0
    4.4919   -1.6841    2.7344 H   0  0  0  0  0  0  0  0  0  0  0  0
    5.8523   -4.2540    2.7246 H   0  0  0  0  0  0  0  0  0  0  0  0
    4.1343   -4.0926    2.5839 H   0  0  0  0  0  0  0  0  0  0  0  0
    4.9403   -6.2284    0.9445 H   0  0  0  0  0  0  0  0  0  0  0  0
    6.6281   -5.7236    1.0091 H   0  0  0  0  0  0  0  0  0  0  0  0
    5.7941   -5.8490   -0.5343 H   0  0  0  0  0  0  0  0  0  0  0  0
    3.3214   -4.6664   -0.3891 H   0  0  0  0  0  0  0  0  0  0  0  0
    2.3092   -2.4375   -0.4094 H   0  0  0  0  0  0  0  0  0  0  0  0
    1.9688   -1.9136    1.6243 H   0  0  0  0  0  0  0  0  0  0  0  0
    2.7850   -0.1886    0.1716 H   0  0  0  0  0  0  0  0  0  0  0  0
  1  2  2  0
  1 17  1  0
  1 18  1  0
  2 15  1  0
  2  3  1  0
  3 12  1  0
  3  4  1  0
  3 19  1  6
  4  5  1  0
  4 20  1  0
  4 21  1  0
  5  6  1  0
  5 22  1  0
  5 23  1  0
  6 10  1  0
  6  7  1  0
  6 24  1  1
  7 15  1  0
  7  8  1  0
  7 25  1  1
  8  9  1  0
  8 26  1  0
  8 27  1  0
  9 10  1  0
  9 28  1  0
  9 29  1  0
 10 11  1  1
 10 12  1  0
 11 30  1  0
 11 31  1  0
 11 32  1  0
 12 13  1  0
 12 33  1  6
 13 14  1  0
 13 15  1  0
 13 34  1  6
 14 35  1  0
 15 16  1  6
 16 36  1  0
M  END
>  <i_m_ct_stereo_status>  (128) 
1

>  <s_m_source_file>  (128) 
/var/tmp/pbs.5076255.sched01/tmp7rtc4ovb/41r77q45k8.sdf

>  <i_m_source_file_index>  (128) 
20

>  <i_lp_mmshare_version>  (128) 
48012

>  <i_f3d_flags>  (128) 
0

>  <s_epik_input>  (128) 
W09IXVtDQEBIXTFbQ0BIXTJbQ0BIXShbQ0gyXVtDSDJdMylDKD1bQ0gyXSlbQ0BdMShbT0hdKVtDQEBIXShbQ0gyXVtDSDJdNClbQ0BIXTNbQ0BdMjRbQ0gzXQ==

>  <s_epik_cmdline>  (128) 
J2VwaWtfcHl0aG9uJywgJy1waHQnLCAnMi4wJywgJy1waCcsICc3LjAnLCAnLXRuJywgJzgnLCAnLW1hJywgJzIwMCcsICctaW1hZScsICc8aW5maWxlLm1hZT4nLCAnLW9tYWUnLCAnPG91dGZpbGUubWFlPic=

>  <r_lp_tautomer_probability>  (128) 
1

>  <r_epik_Ionization_Penalty>  (128) 
4.15426e-07

>  <r_epik_Ionization_Penalty_Charging>  (128) 
0

>  <r_epik_Ionization_Penalty_Neutral>  (128) 
4.15426e-07

>  <r_epik_State_Penalty>  (128) 
-0

>  <r_epik_Charging_Adjusted_Penalty>  (128) 
0

>  <i_epik_Tot_Q>  (128) 
0

>  <i_epik_Tot_abs_Q>  (128) 
0

>  <s_lp_Force_Field>  (128) 
OPLS3e

>  <r_lp_Energy>  (128) 
67.5845

>  <b_lp_Chiralities_Consistent>  (128) 
1

>  <s_lp_Variant>  (128) 
35:0-1

>  <s_i_glide_gridfile>  (128) 
pfpi4k_grid

>  <i_i_glide_lignum>  (128) 
20

>  <i_i_glide_rotatable_bonds>  (128) 
2

>  <r_i_docking_score>  (128) 
-3.66106

>  <r_i_glide_ligand_efficiency>  (128) 
-0.228817

>  <r_i_glide_ligand_efficiency_sa>  (128) 
-0.576582

>  <r_i_glide_ligand_efficiency_ln>  (128) 
-0.970438

>  <r_i_glide_gscore>  (128) 
-3.66106

>  <r_i_glide_lipo>  (128) 
-0.653686

>  <r_i_glide_hbond>  (128) 
0

>  <r_i_glide_metal>  (128) 
-0

>  <r_i_glide_rewards>  (128) 
-1.907

>  <r_i_glide_evdw>  (128) 
-17.3359

>  <r_i_glide_ecoul>  (128) 
-1.55725

>  <r_i_glide_erotb>  (128) 
0

>  <r_i_glide_esite>  (128) 
0

>  <r_i_glide_emodel>  (128) 
-23.1212

>  <r_i_glide_energy>  (128) 
-18.8932

>  <r_i_glide_einternal>  (128) 
0.527332

>  <r_i_glide_intrahb_reward>  (128) 
-0

>  <i_i_glide_confnum>  (128) 
1

>  <i_i_glide_posenum>  (128) 
7

>  <r_i_glide_eff_state_penalty>  (128) 
0

>  <ligand_id>  (128) 
35

>  <original_smiles>  (128) 
C=C1C2CCC3C4CCC3(C)C2C(O)C14O

>  <smiles>  (128) 
[H]OC1([H])C2(O[H])C(=C([H])[H])C3([H])C([H])([H])C([H])([H])C4([H])C2([H])C([H])([H])C([H])([H])C4(C([H])([H])[H])C13[H]

$$$$
35:0:1
     RDKit          3D

 36 39  0  0  1  0  0  0  0  0999 V2000
    3.6729   -1.5244   -2.0633 C   0  0  0  0  0  0  0  0  0  0  0  0
    3.8793   -2.1566   -0.8956 C   0  0  0  0  0  0  0  0  0  0  0  0
    4.1448   -3.6424   -0.7272 C   0  0  1  0  0  0  0  0  0  0  0  0
    5.5747   -3.9176   -1.1637 C   0  0  0  0  0  0  0  0  0  0  0  0
    6.5451   -3.0240   -0.3862 C   0  0  0  0  0  0  0  0  0  0  0  0
    6.0346   -2.6872    1.0318 C   0  0  1  0  0  0  0  0  0  0  0  0
    5.0929   -1.4640    1.2231 C   0  0  2  0  0  0  0  0  0  0  0  0
    4.9236   -1.5326    2.7514 C   0  0  0  0  0  0  0  0  0  0  0  0
    4.9570   -3.0530    3.0665 C   0  0  0  0  0  0  0  0  0  0  0  0
    5.1679   -3.7674    1.6987 C   0  0  2  0  0  0  0  0  0  0  0  0
    5.8868   -5.1113    1.9344 C   0  0  0  0  0  0  0  0  0  0  0  0
    3.8619   -3.9330    0.7994 C   0  0  1  0  0  0  0  0  0  0  0  0
    2.8494   -2.7915    1.0265 C   0  0  1  0  0  0  0  0  0  0  0  0
    2.2298   -2.6882    2.2911 O   0  0  0  0  0  0  0  0  0  0  0  0
    3.6990   -1.6150    0.5025 C   0  0  2  0  0  0  0  0  0  0  0  0
    3.0080   -0.3980    0.5220 O   0  0  0  0  0  0  0  0  0  0  0  0
    3.3994   -0.4813   -2.0975 H   0  0  0  0  0  0  0  0  0  0  0  0
    3.7509   -2.0570   -2.9995 H   0  0  0  0  0  0  0  0  0  0  0  0
    3.4422   -4.1947   -1.3504 H   0  0  0  0  0  0  0  0  0  0  0  0
    5.7876   -4.9713   -0.9919 H   0  0  0  0  0  0  0  0  0  0  0  0
    5.6931   -3.7558   -2.2364 H   0  0  0  0  0  0  0  0  0  0  0  0
    7.5032   -3.5434   -0.3189 H   0  0  0  0  0  0  0  0  0  0  0  0
    6.7384   -2.1022   -0.9345 H   0  0  0  0  0  0  0  0  0  0  0  0
    6.9346   -2.5121    1.6258 H   0  0  0  0  0  0  0  0  0  0  0  0
    5.5818   -0.5416    0.9095 H   0  0  0  0  0  0  0  0  0  0  0  0
    5.7689   -1.0398    3.2318 H   0  0  0  0  0  0  0  0  0  0  0  0
    4.0241   -1.0234    3.1022 H   0  0  0  0  0  0  0  0  0  0  0  0
    5.8150   -3.2355    3.7173 H   0  0  0  0  0  0  0  0  0  0  0  0
    4.1027   -3.4280    3.6300 H   0  0  0  0  0  0  0  0  0  0  0  0
    5.2821   -5.7578    2.5719 H   0  0  0  0  0  0  0  0  0  0  0  0
    6.8455   -4.9667    2.4314 H   0  0  0  0  0  0  0  0  0  0  0  0
    6.0786   -5.6594    1.0149 H   0  0  0  0  0  0  0  0  0  0  0  0
    3.3986   -4.9092    0.9505 H   0  0  0  0  0  0  0  0  0  0  0  0
    1.9956   -2.9446    0.3609 H   0  0  0  0  0  0  0  0  0  0  0  0
    2.8918   -2.4246    2.9128 H   0  0  0  0  0  0  0  0  0  0  0  0
    2.1396   -0.5508    0.1398 H   0  0  0  0  0  0  0  0  0  0  0  0
  1  2  2  0
  1 17  1  0
  1 18  1  0
  2 15  1  0
  2  3  1  0
  3 12  1  0
  3  4  1  0
  3 19  1  6
  4  5  1  0
  4 20  1  0
  4 21  1  0
  5  6  1  0
  5 22  1  0
  5 23  1  0
  6 10  1  0
  6  7  1  0
  6 24  1  1
  7 15  1  0
  7  8  1  0
  7 25  1  1
  8  9  1  0
  8 26  1  0
  8 27  1  0
  9 10  1  0
  9 28  1  0
  9 29  1  0
 10 11  1  1
 10 12  1  0
 11 30  1  0
 11 31  1  0
 11 32  1  0
 12 13  1  0
 12 33  1  6
 13 14  1  0
 13 15  1  0
 13 34  1  6
 14 35  1  0
 15 16  1  6
 16 36  1  0
M  END
>  <i_m_ct_stereo_status>  (129) 
1

>  <s_m_source_file>  (129) 
/var/tmp/pbs.5076255.sched01/tmp7rtc4ovb/41r77q45k8.sdf

>  <i_m_source_file_index>  (129) 
20

>  <i_lp_mmshare_version>  (129) 
48012

>  <i_f3d_flags>  (129) 
0

>  <s_epik_input>  (129) 
W09IXVtDQEBIXTFbQ0BIXTJbQ0BIXShbQ0gyXVtDSDJdMylDKD1bQ0gyXSlbQ0BdMShbT0hdKVtDQEBIXShbQ0gyXVtDSDJdNClbQ0BIXTNbQ0BdMjRbQ0gzXQ==

>  <s_epik_cmdline>  (129) 
J2VwaWtfcHl0aG9uJywgJy1waHQnLCAnMi4wJywgJy1waCcsICc3LjAnLCAnLXRuJywgJzgnLCAnLW1hJywgJzIwMCcsICctaW1hZScsICc8aW5maWxlLm1hZT4nLCAnLW9tYWUnLCAnPG91dGZpbGUubWFlPic=

>  <r_lp_tautomer_probability>  (129) 
1

>  <r_epik_Ionization_Penalty>  (129) 
4.15426e-07

>  <r_epik_Ionization_Penalty_Charging>  (129) 
0

>  <r_epik_Ionization_Penalty_Neutral>  (129) 
4.15426e-07

>  <r_epik_State_Penalty>  (129) 
-0

>  <r_epik_Charging_Adjusted_Penalty>  (129) 
0

>  <i_epik_Tot_Q>  (129) 
0

>  <i_epik_Tot_abs_Q>  (129) 
0

>  <s_lp_Force_Field>  (129) 
OPLS3e

>  <r_lp_Energy>  (129) 
67.5845

>  <b_lp_Chiralities_Consistent>  (129) 
1

>  <s_lp_Variant>  (129) 
35:0-1

>  <s_i_glide_gridfile>  (129) 
pfpi4k_grid

>  <i_i_glide_lignum>  (129) 
20

>  <i_i_glide_rotatable_bonds>  (129) 
2

>  <r_i_docking_score>  (129) 
-3.47511

>  <r_i_glide_ligand_efficiency>  (129) 
-0.217195

>  <r_i_glide_ligand_efficiency_sa>  (129) 
-0.547296

>  <r_i_glide_ligand_efficiency_ln>  (129) 
-0.921148

>  <r_i_glide_gscore>  (129) 
-3.47511

>  <r_i_glide_lipo>  (129) 
-0.4735

>  <r_i_glide_hbond>  (129) 
0

>  <r_i_glide_metal>  (129) 
-0

>  <r_i_glide_rewards>  (129) 
-1.907

>  <r_i_glide_evdw>  (129) 
-14.5844

>  <r_i_glide_ecoul>  (129) 
-2.43599

>  <r_i_glide_erotb>  (129) 
0

>  <r_i_glide_esite>  (129) 
0

>  <r_i_glide_emodel>  (129) 
-21.2262

>  <r_i_glide_energy>  (129) 
-17.0204

>  <r_i_glide_einternal>  (129) 
0.116293

>  <r_i_glide_intrahb_reward>  (129) 
-0

>  <i_i_glide_confnum>  (129) 
1

>  <i_i_glide_posenum>  (129) 
3

>  <r_i_glide_eff_state_penalty>  (129) 
0

>  <ligand_id>  (129) 
35

>  <original_smiles>  (129) 
C=C1C2CCC3C4CCC3(C)C2C(O)C14O

>  <smiles>  (129) 
[H]OC1([H])C2(O[H])C(=C([H])[H])C3([H])C([H])([H])C([H])([H])C4([H])C2([H])C([H])([H])C([H])([H])C4(C([H])([H])[H])C13[H]

$$$$
35:0:2
     RDKit          3D

 36 39  0  0  1  0  0  0  0  0999 V2000
    4.6105   -0.4517   -2.4670 C   0  0  0  0  0  0  0  0  0  0  0  0
    4.4990   -1.3281   -1.4668 C   0  0  0  0  0  0  0  0  0  0  0  0
    3.3875   -2.3278   -1.3468 C   0  0  1  0  0  0  0  0  0  0  0  0
    3.6232   -3.4166   -2.3617 C   0  0  0  0  0  0  0  0  0  0  0  0
    5.0208   -4.0042   -2.1506 C   0  0  0  0  0  0  0  0  0  0  0  0
    5.4726   -3.9541   -0.6749 C   0  0  1  0  0  0  0  0  0  0  0  0
    6.1808   -2.6729   -0.1648 C   0  0  2  0  0  0  0  0  0  0  0  0
    6.4715   -3.1166    1.2748 C   0  0  0  0  0  0  0  0  0  0  0  0
    5.2669   -4.0185    1.6438 C   0  0  0  0  0  0  0  0  0  0  0  0
    4.3606   -4.0520    0.3803 C   0  0  2  0  0  0  0  0  0  0  0  0
    3.5718   -5.3737    0.3812 C   0  0  0  0  0  0  0  0  0  0  0  0
    3.4148   -2.7894    0.1642 C   0  0  1  0  0  0  0  0  0  0  0  0
    4.0261   -1.4932    0.7459 C   0  0  1  0  0  0  0  0  0  0  0  0
    4.1992   -1.3986    2.1441 O   0  0  0  0  0  0  0  0  0  0  0  0
    5.2668   -1.3937   -0.1708 C   0  0  2  0  0  0  0  0  0  0  0  0
    6.0442   -0.2554    0.0785 O   0  0  0  0  0  0  0  0  0  0  0  0
    5.3848    0.2884   -2.4387 H   0  0  0  0  0  0  0  0  0  0  0  0
    3.9228   -0.4465   -3.3071 H   0  0  0  0  0  0  0  0  0  0  0  0
    2.4672   -1.8437   -1.6142 H   0  0  0  0  0  0  0  0  0  0  0  0
    2.8227   -4.1321   -2.1999 H   0  0  0  0  0  0  0  0  0  0  0  0
    3.5136   -3.0533   -3.3875 H   0  0  0  0  0  0  0  0  0  0  0  0
    5.0201   -5.0456   -2.4823 H   0  0  0  0  0  0  0  0  0  0  0  0
    5.7562   -3.5034   -2.7816 H   0  0  0  0  0  0  0  0  0  0  0  0
    6.1674   -4.7858   -0.5509 H   0  0  0  0  0  0  0  0  0  0  0  0
    7.0961   -2.4882   -0.7258 H   0  0  0  0  0  0  0  0  0  0  0  0
    7.3933   -3.7004    1.2977 H   0  0  0  0  0  0  0  0  0  0  0  0
    6.6021   -2.2743    1.9550 H   0  0  0  0  0  0  0  0  0  0  0  0
    5.6527   -5.0186    1.8555 H   0  0  0  0  0  0  0  0  0  0  0  0
    4.7433   -3.7183    2.5512 H   0  0  0  0  0  0  0  0  0  0  0  0
    2.9426   -5.4535    1.2670 H   0  0  0  0  0  0  0  0  0  0  0  0
    4.2392   -6.2369    0.3648 H   0  0  0  0  0  0  0  0  0  0  0  0
    2.9112   -5.4509   -0.4745 H   0  0  0  0  0  0  0  0  0  0  0  0
    2.4135   -2.9658    0.5592 H   0  0  0  0  0  0  0  0  0  0  0  0
    3.3443   -0.6638    0.5375 H   0  0  0  0  0  0  0  0  0  0  0  0
    3.3488   -1.4207    2.5507 H   0  0  0  0  0  0  0  0  0  0  0  0
    5.5232    0.5169   -0.1205 H   0  0  0  0  0  0  0  0  0  0  0  0
  1  2  2  0
  1 17  1  0
  1 18  1  0
  2 15  1  0
  2  3  1  0
  3 12  1  0
  3  4  1  0
  3 19  1  6
  4  5  1  0
  4 20  1  0
  4 21  1  0
  5  6  1  0
  5 22  1  0
  5 23  1  0
  6 10  1  0
  6  7  1  0
  6 24  1  1
  7 15  1  0
  7  8  1  0
  7 25  1  6
  8  9  1  0
  8 26  1  0
  8 27  1  0
  9 10  1  0
  9 28  1  0
  9 29  1  0
 10 11  1  6
 10 12  1  0
 11 30  1  0
 11 31  1  0
 11 32  1  0
 12 13  1  0
 12 33  1  1
 13 14  1  0
 13 15  1  0
 13 34  1  6
 14 35  1  0
 15 16  1  1
 16 36  1  0
M  END
>  <i_m_ct_stereo_status>  (130) 
1

>  <s_m_source_file>  (130) 
/var/tmp/pbs.5076255.sched01/tmp7rtc4ovb/41r77q45k8.sdf

>  <i_m_source_file_index>  (130) 
20

>  <i_lp_mmshare_version>  (130) 
48012

>  <i_f3d_flags>  (130) 
0

>  <s_epik_input>  (130) 
W09IXVtDQEBIXTFbQ0BIXTJbQ0BIXShbQ0gyXVtDSDJdMylDKD1bQ0gyXSlbQ0BdMShbT0hdKVtDQEBIXShbQ0gyXVtDSDJdNClbQ0BIXTNbQ0BdMjRbQ0gzXQ==

>  <s_epik_cmdline>  (130) 
J2VwaWtfcHl0aG9uJywgJy1waHQnLCAnMi4wJywgJy1waCcsICc3LjAnLCAnLXRuJywgJzgnLCAnLW1hJywgJzIwMCcsICctaW1hZScsICc8aW5maWxlLm1hZT4nLCAnLW9tYWUnLCAnPG91dGZpbGUubWFlPic=

>  <r_lp_tautomer_probability>  (130) 
1

>  <r_epik_Ionization_Penalty>  (130) 
4.15426e-07

>  <r_epik_Ionization_Penalty_Charging>  (130) 
0

>  <r_epik_Ionization_Penalty_Neutral>  (130) 
4.15426e-07

>  <r_epik_State_Penalty>  (130) 
-0

>  <r_epik_Charging_Adjusted_Penalty>  (130) 
0

>  <i_epik_Tot_Q>  (130) 
0

>  <i_epik_Tot_abs_Q>  (130) 
0

>  <s_lp_Force_Field>  (130) 
OPLS3e

>  <r_lp_Energy>  (130) 
67.5845

>  <b_lp_Chiralities_Consistent>  (130) 
1

>  <s_lp_Variant>  (130) 
35:0-1

>  <s_i_glide_gridfile>  (130) 
pfpi4k_grid

>  <i_i_glide_lignum>  (130) 
20

>  <i_i_glide_rotatable_bonds>  (130) 
2

>  <r_i_docking_score>  (130) 
-3.26061

>  <r_i_glide_ligand_efficiency>  (130) 
-0.203788

>  <r_i_glide_ligand_efficiency_sa>  (130) 
-0.513514

>  <r_i_glide_ligand_efficiency_ln>  (130) 
-0.86429

>  <r_i_glide_gscore>  (130) 
-3.26061

>  <r_i_glide_lipo>  (130) 
-0.212184

>  <r_i_glide_hbond>  (130) 
0

>  <r_i_glide_metal>  (130) 
-0

>  <r_i_glide_rewards>  (130) 
-1.907

>  <r_i_glide_evdw>  (130) 
-9.47665

>  <r_i_glide_ecoul>  (130) 
-4.45067

>  <r_i_glide_erotb>  (130) 
0

>  <r_i_glide_esite>  (130) 
0

>  <r_i_glide_emodel>  (130) 
-17.7369

>  <r_i_glide_energy>  (130) 
-13.9273

>  <r_i_glide_einternal>  (130) 
0.506834

>  <r_i_glide_intrahb_reward>  (130) 
-0

>  <i_i_glide_confnum>  (130) 
1

>  <i_i_glide_posenum>  (130) 
1

>  <r_i_glide_eff_state_penalty>  (130) 
0

>  <ligand_id>  (130) 
35

>  <original_smiles>  (130) 
C=C1C2CCC3C4CCC3(C)C2C(O)C14O

>  <smiles>  (130) 
[H]OC1([H])C2(O[H])C(=C([H])[H])C3([H])C([H])([H])C([H])([H])C4([H])C2([H])C([H])([H])C([H])([H])C4(C([H])([H])[H])C13[H]

$$$$
36:0:0
     RDKit          3D

 57 61  0  0  1  0  0  0  0  0999 V2000
    2.8800   -3.4307   -2.1563 C   0  0  0  0  0  0  0  0  0  0  0  0
    4.3385   -2.9185   -2.0132 C   0  0  0  0  0  0  0  0  0  0  0  0
    4.8533   -3.0788   -3.4637 C   0  0  0  0  0  0  0  0  0  0  0  0
    4.5263   -1.4233   -1.6504 C   0  0  1  0  0  0  0  0  0  0  0  0
    3.3632   -0.7373   -1.9583 O   0  0  0  0  0  0  0  0  0  0  0  0
    5.3347   -0.9232   -0.3854 C   0  0  0  0  0  0  0  0  0  0  0  0
    5.4622   -1.6474    1.0177 C   0  0  1  0  0  0  0  0  0  0  0  0
    5.5034   -0.4582    1.8644 O   0  0  0  0  0  0  0  0  0  0  0  0
    4.0522   -0.6113    2.1008 C   0  0  1  0  0  0  0  0  0  0  0  0
    3.1916    0.1469    1.2817 O   0  0  0  0  0  0  0  0  0  0  0  0
    4.2956   -2.0818    1.8287 C   0  0  1  0  0  0  0  0  0  0  0  0
    3.5781   -3.3117    1.3138 C   0  0  2  0  0  0  0  0  0  0  0  0
    2.3214   -2.8267    0.7062 C   0  0  0  0  0  0  0  0  0  0  0  0
    3.1243   -4.1911    2.5372 C   0  0  1  0  0  0  0  0  0  0  0  0
    2.1218   -5.1056    2.1664 O   0  0  0  0  0  0  0  0  0  0  0  0
    4.2164   -5.0505    3.1864 C   0  0  0  0  0  0  0  0  0  0  0  0
    5.6097   -4.5375    2.9162 C   0  0  1  0  0  0  0  0  0  0  0  0
    6.4737   -5.4605    3.5339 O   0  0  0  0  0  0  0  0  0  0  0  0
    5.9264   -4.2572    1.3815 C   0  0  2  0  0  0  0  0  0  0  0  0
    6.7836   -5.4843    0.9379 C   0  0  0  0  0  0  0  0  0  0  0  0
    6.5355   -2.7912    1.1954 C   0  0  1  0  0  0  0  0  0  0  0  0
    7.5049   -2.8320    0.0361 C   0  0  0  0  0  0  0  0  0  0  0  0
    6.7189   -3.2824   -1.1920 C   0  0  0  0  0  0  0  0  0  0  0  0
    5.1992   -3.7745   -1.0385 C   0  0  1  0  0  0  0  0  0  0  0  0
    4.6490   -4.1725    0.4551 C   0  0  2  0  0  0  0  0  0  0  0  0
    2.0770   -2.7039   -2.0559 H   0  0  0  0  0  0  0  0  0  0  0  0
    2.7180   -4.2602   -1.4795 H   0  0  0  0  0  0  0  0  0  0  0  0
    2.6835   -3.8333   -3.1536 H   0  0  0  0  0  0  0  0  0  0  0  0
    5.8071   -2.6045   -3.6304 H   0  0  0  0  0  0  0  0  0  0  0  0
    4.1734   -2.5899   -4.1598 H   0  0  0  0  0  0  0  0  0  0  0  0
    4.9563   -4.1172   -3.7700 H   0  0  0  0  0  0  0  0  0  0  0  0
    5.1331   -0.9785   -2.4326 H   0  0  0  0  0  0  0  0  0  0  0  0
    2.7031   -1.0322   -1.3584 H   0  0  0  0  0  0  0  0  0  0  0  0
    6.3407   -0.7489   -0.7131 H   0  0  0  0  0  0  0  0  0  0  0  0
    5.0512    0.1137   -0.2481 H   0  0  0  0  0  0  0  0  0  0  0  0
    3.8039   -0.4352    3.1492 H   0  0  0  0  0  0  0  0  0  0  0  0
    2.4877   -0.4279    0.9713 H   0  0  0  0  0  0  0  0  0  0  0  0
    4.6091   -2.2847    2.8518 H   0  0  0  0  0  0  0  0  0  0  0  0
    1.8563   -3.6777    0.2336 H   0  0  0  0  0  0  0  0  0  0  0  0
    2.5138   -2.0313    0.0230 H   0  0  0  0  0  0  0  0  0  0  0  0
    1.6175   -2.4648    1.4667 H   0  0  0  0  0  0  0  0  0  0  0  0
    2.7073   -3.5264    3.2961 H   0  0  0  0  0  0  0  0  0  0  0  0
    1.4067   -5.0056    2.7768 H   0  0  0  0  0  0  0  0  0  0  0  0
    4.0424   -5.0971    4.2594 H   0  0  0  0  0  0  0  0  0  0  0  0
    4.1738   -6.0676    2.8061 H   0  0  0  0  0  0  0  0  0  0  0  0
    5.8176   -3.6693    3.5234 H   0  0  0  0  0  0  0  0  0  0  0  0
    6.3552   -5.4582    4.4742 H   0  0  0  0  0  0  0  0  0  0  0  0
    6.8816   -5.6134   -0.1280 H   0  0  0  0  0  0  0  0  0  0  0  0
    6.3250   -6.4171    1.2700 H   0  0  0  0  0  0  0  0  0  0  0  0
    7.7799   -5.4449    1.3675 H   0  0  0  0  0  0  0  0  0  0  0  0
    6.9762   -2.5980    2.1312 H   0  0  0  0  0  0  0  0  0  0  0  0
    8.0327   -1.8930   -0.1339 H   0  0  0  0  0  0  0  0  0  0  0  0
    8.3045   -3.5456    0.2202 H   0  0  0  0  0  0  0  0  0  0  0  0
    6.8788   -2.5162   -1.9471 H   0  0  0  0  0  0  0  0  0  0  0  0
    7.3451   -4.0378   -1.5631 H   0  0  0  0  0  0  0  0  0  0  0  0
    5.1994   -4.7572   -1.5080 H   0  0  0  0  0  0  0  0  0  0  0  0
    4.2063   -5.1784    0.3645 H   0  0  0  0  0  0  0  0  0  0  0  0
  1  2  1  0
  1 26  1  0
  1 27  1  0
  1 28  1  0
  2 24  1  0
  2  3  1  0
  2  4  1  0
  3 29  1  0
  3 30  1  0
  3 31  1  0
  4  5  1  0
  4  6  1  0
  4 32  1  6
  5 33  1  0
  6  7  1  0
  6 34  1  0
  6 35  1  0
  7 11  1  0
  7 21  1  0
  7  8  1  1
  8  9  1  0
  9 10  1  0
  9 11  1  0
  9 36  1  1
 10 37  1  0
 11 12  1  0
 11 38  1  1
 12 25  1  0
 12 13  1  6
 12 14  1  0
 13 39  1  0
 13 40  1  0
 13 41  1  0
 14 15  1  0
 14 16  1  0
 14 42  1  1
 15 43  1  0
 16 17  1  0
 16 44  1  0
 16 45  1  0
 17 18  1  0
 17 19  1  0
 17 46  1  1
 18 47  1  0
 19 25  1  0
 19 20  1  6
 19 21  1  0
 20 48  1  0
 20 49  1  0
 20 50  1  0
 21 22  1  0
 21 51  1  1
 22 23  1  0
 22 52  1  0
 22 53  1  0
 23 24  1  0
 23 54  1  0
 23 55  1  0
 24 25  1  0
 24 56  1  6
 25 57  1  6
M  END
>  <i_m_ct_stereo_status>  (131) 
1

>  <s_m_source_file>  (131) 
/var/tmp/pbs.5076255.sched01/tmp7rtc4ovb/41r77q45k8.sdf

>  <i_m_source_file_index>  (131) 
21

>  <i_lp_mmshare_version>  (131) 
48012

>  <i_f3d_flags>  (131) 
0

>  <s_epik_input>  (131) 
W09IXVtDQEBIXShbQ0gyXTEpQyhbQ0gzXSkoW0NIM10pW0NASF0yW0NIMl1bQ0gyXVtDQEBIXTNbQ0BAXShbQ0gzXSkoW0NASF0oW09IXSlbQ0gyXVtDQEBIXTRbT0hdKVtDQEhdMltDQF00KFtDSDNdKVtDQEBIXShbQ0BdMTM1KVtDQEBIXShPNSlbT0hd

>  <s_epik_cmdline>  (131) 
J2VwaWtfcHl0aG9uJywgJy1waHQnLCAnMi4wJywgJy1waCcsICc3LjAnLCAnLXRuJywgJzgnLCAnLW1hJywgJzIwMCcsICctaW1hZScsICc8aW5maWxlLm1hZT4nLCAnLW9tYWUnLCAnPG91dGZpbGUubWFlPic=

>  <r_lp_tautomer_probability>  (131) 
1

>  <r_epik_Ionization_Penalty>  (131) 
1.55781e-06

>  <r_epik_Ionization_Penalty_Charging>  (131) 
0

>  <r_epik_Ionization_Penalty_Neutral>  (131) 
1.55781e-06

>  <r_epik_State_Penalty>  (131) 
-0

>  <r_epik_Charging_Adjusted_Penalty>  (131) 
0

>  <i_epik_Tot_Q>  (131) 
0

>  <i_epik_Tot_abs_Q>  (131) 
0

>  <s_epik_Chemistry_Notes>  (131) 
This compound contains an acetal/aminal-like group ( X-CH(R)-Y where X, Y are N, S, or O) that may be acid/base labile, releasing an aldehyde.

>  <s_lp_Force_Field>  (131) 
OPLS3e

>  <r_lp_Energy>  (131) 
162.389

>  <b_lp_Chiralities_Consistent>  (131) 
1

>  <s_lp_Variant>  (131) 
36:0-1

>  <s_i_glide_gridfile>  (131) 
pfpi4k_grid

>  <i_i_glide_lignum>  (131) 
21

>  <i_i_glide_rotatable_bonds>  (131) 
4

>  <r_i_docking_score>  (131) 
-3.16082

>  <r_i_glide_ligand_efficiency>  (131) 
-0.126433

>  <r_i_glide_ligand_efficiency_sa>  (131) 
-0.369691

>  <r_i_glide_ligand_efficiency_ln>  (131) 
-0.749208

>  <r_i_glide_gscore>  (131) 
-3.16082

>  <r_i_glide_lipo>  (131) 
-0.91381

>  <r_i_glide_hbond>  (131) 
-0.1105

>  <r_i_glide_metal>  (131) 
-0

>  <r_i_glide_rewards>  (131) 
-1.07

>  <r_i_glide_evdw>  (131) 
-10.3602

>  <r_i_glide_ecoul>  (131) 
-3.65662

>  <r_i_glide_erotb>  (131) 
0

>  <r_i_glide_esite>  (131) 
0

>  <r_i_glide_emodel>  (131) 
-12.0676

>  <r_i_glide_energy>  (131) 
-14.0168

>  <r_i_glide_einternal>  (131) 
3.73992

>  <r_i_glide_intrahb_reward>  (131) 
-0

>  <i_i_glide_confnum>  (131) 
1

>  <i_i_glide_posenum>  (131) 
7

>  <r_i_glide_eff_state_penalty>  (131) 
0

>  <ligand_id>  (131) 
36

>  <original_smiles>  (131) 
CC1(C)C(O)CC23OC(O)C2C2(C)C(O)CC(O)C4(C)C3CCC1C42

>  <smiles>  (131) 
[H]OC1([H])OC23C([H])([H])C([H])(O[H])C(C([H])([H])[H])(C([H])([H])[H])C4([H])C([H])([H])C([H])([H])C2([H])C2(C([H])([H])[H])C([H])(O[H])C([H])([H])C([H])(O[H])C(C([H])([H])[H])(C13[H])C42[H]

$$$$
36:0:1
     RDKit          3D

 57 61  0  0  1  0  0  0  0  0999 V2000
    3.2317   -3.4229   -2.2230 C   0  0  0  0  0  0  0  0  0  0  0  0
    4.6688   -2.9308   -1.9156 C   0  0  0  0  0  0  0  0  0  0  0  0
    5.3463   -3.1356   -3.2960 C   0  0  0  0  0  0  0  0  0  0  0  0
    4.7734   -1.4185   -1.5437 C   0  0  1  0  0  0  0  0  0  0  0  0
    3.6276   -0.7344   -1.9417 O   0  0  0  0  0  0  0  0  0  0  0  0
    5.4743   -0.9265   -0.2223 C   0  0  0  0  0  0  0  0  0  0  0  0
    5.3931   -1.6350    1.1909 C   0  0  1  0  0  0  0  0  0  0  0  0
    5.3299   -0.4552    2.0378 O   0  0  0  0  0  0  0  0  0  0  0  0
    3.8672   -0.5952    2.0831 C   0  0  1  0  0  0  0  0  0  0  0  0
    3.1234    0.1472    1.1282 O   0  0  0  0  0  0  0  0  0  0  0  0
    4.1186   -2.0577    1.8400 C   0  0  1  0  0  0  0  0  0  0  0  0
    3.4723   -3.3005    1.2828 C   0  0  2  0  0  0  0  0  0  0  0  0
    2.2397   -2.8280    0.5063 C   0  0  0  0  0  0  0  0  0  0  0  0
    2.8598   -4.1674    2.4327 C   0  0  1  0  0  0  0  0  0  0  0  0
    1.9359   -5.1262    1.9459 O   0  0  0  0  0  0  0  0  0  0  0  0
    3.8850   -4.9896    3.2379 C   0  0  0  0  0  0  0  0  0  0  0  0
    5.3099   -4.4652    3.1446 C   0  0  1  0  0  0  0  0  0  0  0  0
    6.1062   -5.3719    3.8942 O   0  0  0  0  0  0  0  0  0  0  0  0
    5.7899   -4.2333    1.6498 C   0  0  2  0  0  0  0  0  0  0  0  0
    6.6792   -5.4878    1.3338 C   0  0  0  0  0  0  0  0  0  0  0  0
    6.4191   -2.7819    1.4705 C   0  0  1  0  0  0  0  0  0  0  0  0
    7.5405   -2.8707    0.4738 C   0  0  0  0  0  0  0  0  0  0  0  0
    6.9425   -3.4201   -0.8217 C   0  0  0  0  0  0  0  0  0  0  0  0
    5.3840   -3.7922   -0.8376 C   0  0  1  0  0  0  0  0  0  0  0  0
    4.6341   -4.1593    0.5747 C   0  0  2  0  0  0  0  0  0  0  0  0
    2.4212   -2.6952   -2.2905 H   0  0  0  0  0  0  0  0  0  0  0  0
    2.9912   -4.2288   -1.5323 H   0  0  0  0  0  0  0  0  0  0  0  0
    3.1824   -3.8989   -3.1982 H   0  0  0  0  0  0  0  0  0  0  0  0
    6.3603   -2.7722   -3.3867 H   0  0  0  0  0  0  0  0  0  0  0  0
    4.7604   -2.6240   -4.0630 H   0  0  0  0  0  0  0  0  0  0  0  0
    5.3823   -4.1929   -3.5712 H   0  0  0  0  0  0  0  0  0  0  0  0
    5.4332   -0.9789   -2.2808 H   0  0  0  0  0  0  0  0  0  0  0  0
    2.8964   -1.0261   -1.4119 H   0  0  0  0  0  0  0  0  0  0  0  0
    6.5199   -0.7974   -0.4431 H   0  0  0  0  0  0  0  0  0  0  0  0
    5.2051    0.1183   -0.1088 H   0  0  0  0  0  0  0  0  0  0  0  0
    3.4828   -0.3908    3.0791 H   0  0  0  0  0  0  0  0  0  0  0  0
    2.3791   -0.3634    0.8422 H   0  0  0  0  0  0  0  0  0  0  0  0
    4.2853   -2.2379    2.8959 H   0  0  0  0  0  0  0  0  0  0  0  0
    1.8102   -3.6597   -0.0258 H   0  0  0  0  0  0  0  0  0  0  0  0
    2.6109   -2.0754   -0.1705 H   0  0  0  0  0  0  0  0  0  0  0  0
    1.5201   -2.3674    1.1715 H   0  0  0  0  0  0  0  0  0  0  0  0
    2.3264   -3.5064    3.1165 H   0  0  0  0  0  0  0  0  0  0  0  0
    1.7313   -5.7206    2.6434 H   0  0  0  0  0  0  0  0  0  0  0  0
    3.5629   -5.0294    4.2781 H   0  0  0  0  0  0  0  0  0  0  0  0
    3.8957   -6.0196    2.8839 H   0  0  0  0  0  0  0  0  0  0  0  0
    5.4180   -3.5598    3.7411 H   0  0  0  0  0  0  0  0  0  0  0  0
    6.9919   -5.0583    3.9052 H   0  0  0  0  0  0  0  0  0  0  0  0
    6.9119   -5.6637    0.2902 H   0  0  0  0  0  0  0  0  0  0  0  0
    6.1570   -6.4009    1.6206 H   0  0  0  0  0  0  0  0  0  0  0  0
    7.6268   -5.4690    1.8747 H   0  0  0  0  0  0  0  0  0  0  0  0
    6.8629   -2.5099    2.4343 H   0  0  0  0  0  0  0  0  0  0  0  0
    8.0920   -1.9376    0.3379 H   0  0  0  0  0  0  0  0  0  0  0  0
    8.3069   -3.5638    0.8168 H   0  0  0  0  0  0  0  0  0  0  0  0
    7.2106   -2.6739   -1.5636 H   0  0  0  0  0  0  0  0  0  0  0  0
    7.5953   -4.2470   -1.0670 H   0  0  0  0  0  0  0  0  0  0  0  0
    5.3849   -4.7730   -1.3105 H   0  0  0  0  0  0  0  0  0  0  0  0
    4.2206   -5.1614    0.4337 H   0  0  0  0  0  0  0  0  0  0  0  0
  1  2  1  0
  1 26  1  0
  1 27  1  0
  1 28  1  0
  2 24  1  0
  2  3  1  0
  2  4  1  0
  3 29  1  0
  3 30  1  0
  3 31  1  0
  4  5  1  0
  4  6  1  0
  4 32  1  6
  5 33  1  0
  6  7  1  0
  6 34  1  0
  6 35  1  0
  7 11  1  0
  7 21  1  0
  7  8  1  1
  8  9  1  0
  9 10  1  0
  9 11  1  0
  9 36  1  1
 10 37  1  0
 11 12  1  0
 11 38  1  1
 12 25  1  0
 12 13  1  6
 12 14  1  0
 13 39  1  0
 13 40  1  0
 13 41  1  0
 14 15  1  0
 14 16  1  0
 14 42  1  1
 15 43  1  0
 16 17  1  0
 16 44  1  0
 16 45  1  0
 17 18  1  0
 17 19  1  0
 17 46  1  1
 18 47  1  0
 19 25  1  0
 19 20  1  6
 19 21  1  0
 20 48  1  0
 20 49  1  0
 20 50  1  0
 21 22  1  0
 21 51  1  1
 22 23  1  0
 22 52  1  0
 22 53  1  0
 23 24  1  0
 23 54  1  0
 23 55  1  0
 24 25  1  0
 24 56  1  6
 25 57  1  6
M  END
>  <i_m_ct_stereo_status>  (132) 
1

>  <s_m_source_file>  (132) 
/var/tmp/pbs.5076255.sched01/tmp7rtc4ovb/41r77q45k8.sdf

>  <i_m_source_file_index>  (132) 
21

>  <i_lp_mmshare_version>  (132) 
48012

>  <i_f3d_flags>  (132) 
0

>  <s_epik_input>  (132) 
W09IXVtDQEBIXShbQ0gyXTEpQyhbQ0gzXSkoW0NIM10pW0NASF0yW0NIMl1bQ0gyXVtDQEBIXTNbQ0BAXShbQ0gzXSkoW0NASF0oW09IXSlbQ0gyXVtDQEBIXTRbT0hdKVtDQEhdMltDQF00KFtDSDNdKVtDQEBIXShbQ0BdMTM1KVtDQEBIXShPNSlbT0hd

>  <s_epik_cmdline>  (132) 
J2VwaWtfcHl0aG9uJywgJy1waHQnLCAnMi4wJywgJy1waCcsICc3LjAnLCAnLXRuJywgJzgnLCAnLW1hJywgJzIwMCcsICctaW1hZScsICc8aW5maWxlLm1hZT4nLCAnLW9tYWUnLCAnPG91dGZpbGUubWFlPic=

>  <r_lp_tautomer_probability>  (132) 
1

>  <r_epik_Ionization_Penalty>  (132) 
1.55781e-06

>  <r_epik_Ionization_Penalty_Charging>  (132) 
0

>  <r_epik_Ionization_Penalty_Neutral>  (132) 
1.55781e-06

>  <r_epik_State_Penalty>  (132) 
-0

>  <r_epik_Charging_Adjusted_Penalty>  (132) 
0

>  <i_epik_Tot_Q>  (132) 
0

>  <i_epik_Tot_abs_Q>  (132) 
0

>  <s_epik_Chemistry_Notes>  (132) 
This compound contains an acetal/aminal-like group ( X-CH(R)-Y where X, Y are N, S, or O) that may be acid/base labile, releasing an aldehyde.

>  <s_lp_Force_Field>  (132) 
OPLS3e

>  <r_lp_Energy>  (132) 
162.389

>  <b_lp_Chiralities_Consistent>  (132) 
1

>  <s_lp_Variant>  (132) 
36:0-1

>  <s_i_glide_gridfile>  (132) 
pfpi4k_grid

>  <i_i_glide_lignum>  (132) 
21

>  <i_i_glide_rotatable_bonds>  (132) 
4

>  <r_i_docking_score>  (132) 
-3.13193

>  <r_i_glide_ligand_efficiency>  (132) 
-0.125277

>  <r_i_glide_ligand_efficiency_sa>  (132) 
-0.366313

>  <r_i_glide_ligand_efficiency_ln>  (132) 
-0.742362

>  <r_i_glide_gscore>  (132) 
-3.13193

>  <r_i_glide_lipo>  (132) 
-0.92187

>  <r_i_glide_hbond>  (132) 
-0.0810611

>  <r_i_glide_metal>  (132) 
-0

>  <r_i_glide_rewards>  (132) 
-1.04545

>  <r_i_glide_evdw>  (132) 
-10.9448

>  <r_i_glide_ecoul>  (132) 
-3.57544

>  <r_i_glide_erotb>  (132) 
0

>  <r_i_glide_esite>  (132) 
0

>  <r_i_glide_emodel>  (132) 
-12.575

>  <r_i_glide_energy>  (132) 
-14.5202

>  <r_i_glide_einternal>  (132) 
3.06676

>  <r_i_glide_intrahb_reward>  (132) 
-0

>  <i_i_glide_confnum>  (132) 
1

>  <i_i_glide_posenum>  (132) 
12

>  <r_i_glide_eff_state_penalty>  (132) 
0

>  <ligand_id>  (132) 
36

>  <original_smiles>  (132) 
CC1(C)C(O)CC23OC(O)C2C2(C)C(O)CC(O)C4(C)C3CCC1C42

>  <smiles>  (132) 
[H]OC1([H])OC23C([H])([H])C([H])(O[H])C(C([H])([H])[H])(C([H])([H])[H])C4([H])C([H])([H])C([H])([H])C2([H])C2(C([H])([H])[H])C([H])(O[H])C([H])([H])C([H])(O[H])C(C([H])([H])[H])(C13[H])C42[H]

$$$$
36:0:2
     RDKit          3D

 57 61  0  0  1  0  0  0  0  0999 V2000
    3.2067   -3.4363   -2.2005 C   0  0  0  0  0  0  0  0  0  0  0  0
    4.6411   -2.9367   -1.8901 C   0  0  0  0  0  0  0  0  0  0  0  0
    5.3175   -3.1551   -3.2683 C   0  0  0  0  0  0  0  0  0  0  0  0
    4.7595   -1.4311   -1.5398 C   0  0  1  0  0  0  0  0  0  0  0  0
    3.6132   -0.7275   -1.9207 O   0  0  0  0  0  0  0  0  0  0  0  0
    5.4605   -0.9234   -0.2282 C   0  0  0  0  0  0  0  0  0  0  0  0
    5.3846   -1.5959    1.1927 C   0  0  1  0  0  0  0  0  0  0  0  0
    5.3363   -0.3842    2.0153 O   0  0  0  0  0  0  0  0  0  0  0  0
    3.8734   -0.5255    2.0747 C   0  0  1  0  0  0  0  0  0  0  0  0
    3.1195    0.1911    1.1197 O   0  0  0  0  0  0  0  0  0  0  0  0
    4.1232   -1.9980    1.8815 C   0  0  1  0  0  0  0  0  0  0  0  0
    3.4722   -3.2509    1.3302 C   0  0  2  0  0  0  0  0  0  0  0  0
    2.2564   -2.7811    0.5445 C   0  0  0  0  0  0  0  0  0  0  0  0
    2.8459   -4.0944    2.4940 C   0  0  1  0  0  0  0  0  0  0  0  0
    1.8906   -5.0470    2.0445 O   0  0  0  0  0  0  0  0  0  0  0  0
    3.8682   -4.8978    3.3162 C   0  0  0  0  0  0  0  0  0  0  0  0
    5.3025   -4.3817    3.2066 C   0  0  1  0  0  0  0  0  0  0  0  0
    6.1284   -5.2218    4.0015 O   0  0  0  0  0  0  0  0  0  0  0  0
    5.7732   -4.1836    1.7018 C   0  0  2  0  0  0  0  0  0  0  0  0
    6.6580   -5.4422    1.4117 C   0  0  0  0  0  0  0  0  0  0  0  0
    6.4213   -2.7277    1.5024 C   0  0  1  0  0  0  0  0  0  0  0  0
    7.5329   -2.8478    0.4804 C   0  0  0  0  0  0  0  0  0  0  0  0
    6.9180   -3.4100   -0.8038 C   0  0  0  0  0  0  0  0  0  0  0  0
    5.3539   -3.7903   -0.7957 C   0  0  1  0  0  0  0  0  0  0  0  0
    4.6247   -4.1269    0.6307 C   0  0  2  0  0  0  0  0  0  0  0  0
    2.3972   -2.7002   -2.2443 H   0  0  0  0  0  0  0  0  0  0  0  0
    2.9520   -4.2271   -1.5068 H   0  0  0  0  0  0  0  0  0  0  0  0
    3.1397   -3.8935   -3.1843 H   0  0  0  0  0  0  0  0  0  0  0  0
    6.3112   -2.7326   -3.3805 H   0  0  0  0  0  0  0  0  0  0  0  0
    4.7202   -2.6742   -4.0412 H   0  0  0  0  0  0  0  0  0  0  0  0
    5.3714   -4.2161   -3.5212 H   0  0  0  0  0  0  0  0  0  0  0  0
    5.4067   -0.9954   -2.2913 H   0  0  0  0  0  0  0  0  0  0  0  0
    2.9116   -0.9458   -1.3073 H   0  0  0  0  0  0  0  0  0  0  0  0
    6.5129   -0.7815   -0.4626 H   0  0  0  0  0  0  0  0  0  0  0  0
    5.1738    0.1116   -0.1407 H   0  0  0  0  0  0  0  0  0  0  0  0
    3.4986   -0.2978    3.0706 H   0  0  0  0  0  0  0  0  0  0  0  0
    2.2576   -0.1941    1.0457 H   0  0  0  0  0  0  0  0  0  0  0  0
    4.2885   -2.1520    2.9264 H   0  0  0  0  0  0  0  0  0  0  0  0
    1.8143   -3.6141    0.0185 H   0  0  0  0  0  0  0  0  0  0  0  0
    2.6412   -2.0270   -0.1365 H   0  0  0  0  0  0  0  0  0  0  0  0
    1.5298   -2.3068    1.1988 H   0  0  0  0  0  0  0  0  0  0  0  0
    2.3253   -3.4062    3.1617 H   0  0  0  0  0  0  0  0  0  0  0  0
    2.3421   -5.6854    1.4956 H   0  0  0  0  0  0  0  0  0  0  0  0
    3.5507   -4.9083    4.3585 H   0  0  0  0  0  0  0  0  0  0  0  0
    3.8690   -5.9399    2.9893 H   0  0  0  0  0  0  0  0  0  0  0  0
    5.4079   -3.4599    3.7762 H   0  0  0  0  0  0  0  0  0  0  0  0
    6.2139   -6.0542    3.5506 H   0  0  0  0  0  0  0  0  0  0  0  0
    6.8906   -5.6313    0.3708 H   0  0  0  0  0  0  0  0  0  0  0  0
    6.1321   -6.3490    1.7139 H   0  0  0  0  0  0  0  0  0  0  0  0
    7.6112   -5.4096    1.9526 H   0  0  0  0  0  0  0  0  0  0  0  0
    6.8491   -2.4399    2.4566 H   0  0  0  0  0  0  0  0  0  0  0  0
    8.0761   -1.9157    0.3225 H   0  0  0  0  0  0  0  0  0  0  0  0
    8.2956   -3.5337    0.8340 H   0  0  0  0  0  0  0  0  0  0  0  0
    7.1818   -2.6874   -1.5588 H   0  0  0  0  0  0  0  0  0  0  0  0
    7.5651   -4.2421   -1.0616 H   0  0  0  0  0  0  0  0  0  0  0  0
    5.3641   -4.7821   -1.2506 H   0  0  0  0  0  0  0  0  0  0  0  0
    4.2056   -5.1225    0.5112 H   0  0  0  0  0  0  0  0  0  0  0  0
  1  2  1  0
  1 26  1  0
  1 27  1  0
  1 28  1  0
  2 24  1  0
  2  3  1  0
  2  4  1  0
  3 29  1  0
  3 30  1  0
  3 31  1  0
  4  5  1  0
  4  6  1  0
  4 32  1  6
  5 33  1  0
  6  7  1  0
  6 34  1  0
  6 35  1  0
  7 11  1  0
  7 21  1  0
  7  8  1  1
  8  9  1  0
  9 10  1  0
  9 11  1  0
  9 36  1  1
 10 37  1  0
 11 12  1  0
 11 38  1  1
 12 25  1  0
 12 13  1  6
 12 14  1  0
 13 39  1  0
 13 40  1  0
 13 41  1  0
 14 15  1  0
 14 16  1  0
 14 42  1  1
 15 43  1  0
 16 17  1  0
 16 44  1  0
 16 45  1  0
 17 18  1  0
 17 19  1  0
 17 46  1  1
 18 47  1  0
 19 25  1  0
 19 20  1  6
 19 21  1  0
 20 48  1  0
 20 49  1  0
 20 50  1  0
 21 22  1  0
 21 51  1  1
 22 23  1  0
 22 52  1  0
 22 53  1  0
 23 24  1  0
 23 54  1  0
 23 55  1  0
 24 25  1  0
 24 56  1  6
 25 57  1  6
M  END
>  <i_m_ct_stereo_status>  (133) 
1

>  <s_m_source_file>  (133) 
/var/tmp/pbs.5076255.sched01/tmp7rtc4ovb/41r77q45k8.sdf

>  <i_m_source_file_index>  (133) 
21

>  <i_lp_mmshare_version>  (133) 
48012

>  <i_f3d_flags>  (133) 
0

>  <s_epik_input>  (133) 
W09IXVtDQEBIXShbQ0gyXTEpQyhbQ0gzXSkoW0NIM10pW0NASF0yW0NIMl1bQ0gyXVtDQEBIXTNbQ0BAXShbQ0gzXSkoW0NASF0oW09IXSlbQ0gyXVtDQEBIXTRbT0hdKVtDQEhdMltDQF00KFtDSDNdKVtDQEBIXShbQ0BdMTM1KVtDQEBIXShPNSlbT0hd

>  <s_epik_cmdline>  (133) 
J2VwaWtfcHl0aG9uJywgJy1waHQnLCAnMi4wJywgJy1waCcsICc3LjAnLCAnLXRuJywgJzgnLCAnLW1hJywgJzIwMCcsICctaW1hZScsICc8aW5maWxlLm1hZT4nLCAnLW9tYWUnLCAnPG91dGZpbGUubWFlPic=

>  <r_lp_tautomer_probability>  (133) 
1

>  <r_epik_Ionization_Penalty>  (133) 
1.55781e-06

>  <r_epik_Ionization_Penalty_Charging>  (133) 
0

>  <r_epik_Ionization_Penalty_Neutral>  (133) 
1.55781e-06

>  <r_epik_State_Penalty>  (133) 
-0

>  <r_epik_Charging_Adjusted_Penalty>  (133) 
0

>  <i_epik_Tot_Q>  (133) 
0

>  <i_epik_Tot_abs_Q>  (133) 
0

>  <s_epik_Chemistry_Notes>  (133) 
This compound contains an acetal/aminal-like group ( X-CH(R)-Y where X, Y are N, S, or O) that may be acid/base labile, releasing an aldehyde.

>  <s_lp_Force_Field>  (133) 
OPLS3e

>  <r_lp_Energy>  (133) 
162.389

>  <b_lp_Chiralities_Consistent>  (133) 
1

>  <s_lp_Variant>  (133) 
36:0-1

>  <s_i_glide_gridfile>  (133) 
pfpi4k_grid

>  <i_i_glide_lignum>  (133) 
21

>  <i_i_glide_rotatable_bonds>  (133) 
4

>  <r_i_docking_score>  (133) 
-3.11857

>  <r_i_glide_ligand_efficiency>  (133) 
-0.124743

>  <r_i_glide_ligand_efficiency_sa>  (133) 
-0.36475

>  <r_i_glide_ligand_efficiency_ln>  (133) 
-0.739195

>  <r_i_glide_gscore>  (133) 
-3.11857

>  <r_i_glide_lipo>  (133) 
-0.918822

>  <r_i_glide_hbond>  (133) 
-0.123488

>  <r_i_glide_metal>  (133) 
-0

>  <r_i_glide_rewards>  (133) 
-1.05186

>  <r_i_glide_evdw>  (133) 
-10.4002

>  <r_i_glide_ecoul>  (133) 
-3.36259

>  <r_i_glide_erotb>  (133) 
0

>  <r_i_glide_esite>  (133) 
0

>  <r_i_glide_emodel>  (133) 
-13.2439

>  <r_i_glide_energy>  (133) 
-13.7628

>  <r_i_glide_einternal>  (133) 
1.58734

>  <r_i_glide_intrahb_reward>  (133) 
-0

>  <i_i_glide_confnum>  (133) 
1

>  <i_i_glide_posenum>  (133) 
20

>  <r_i_glide_eff_state_penalty>  (133) 
0

>  <ligand_id>  (133) 
36

>  <original_smiles>  (133) 
CC1(C)C(O)CC23OC(O)C2C2(C)C(O)CC(O)C4(C)C3CCC1C42

>  <smiles>  (133) 
[H]OC1([H])OC23C([H])([H])C([H])(O[H])C(C([H])([H])[H])(C([H])([H])[H])C4([H])C([H])([H])C([H])([H])C2([H])C2(C([H])([H])[H])C([H])(O[H])C([H])([H])C([H])(O[H])C(C([H])([H])[H])(C13[H])C42[H]

$$$$
38:0:0
     RDKit          3D

 34 36  0  0  1  0  0  0  0  0999 V2000
   -0.1680    1.7328    1.6860 N   0  0  0  0  0  0  0  0  0  0  0  0
    0.7448    1.6056    2.8346 C   0  0  2  0  0  0  0  0  0  0  0  0
    0.3710    0.3805    3.6864 C   0  0  0  0  0  0  0  0  0  0  0  0
   -0.6419    0.6909    4.6373 O   0  0  0  0  0  0  0  0  0  0  0  0
   -0.1732    0.8805    5.9434 C   0  0  2  0  0  0  0  0  0  0  0  0
   -1.2140    0.7465    6.8597 O   0  0  0  0  0  0  0  0  0  0  0  0
   -1.8942    1.9985    6.9837 C   0  0  1  0  0  0  0  0  0  0  0  0
   -2.0369    2.4494    8.4386 C   0  0  0  0  0  0  0  0  0  0  0  0
   -1.9370    3.8609    8.3600 O   0  0  0  0  0  0  0  0  0  0  0  0
   -0.9624    4.1956    7.3886 C   0  0  0  0  0  0  0  0  0  0  0  0
   -1.0059    3.0632    6.3634 C   0  0  1  0  0  0  0  0  0  0  0  0
    0.3133    2.3232    6.1586 C   0  0  2  0  0  0  0  0  0  0  0  0
    1.3009    2.8622    5.0861 C   0  0  1  0  0  0  0  0  0  0  0  0
    2.5485    2.1925    5.1991 O   0  0  0  0  0  0  0  0  0  0  0  0
    0.7751    2.9316    3.6209 C   0  0  1  0  0  0  0  0  0  0  0  0
    1.5652    3.8483    2.8888 O   0  0  0  0  0  0  0  0  0  0  0  0
   -1.1118    1.8678    2.0166 H   0  0  0  0  0  0  0  0  0  0  0  0
   -0.1520    0.9308    1.0621 H   0  0  0  0  0  0  0  0  0  0  0  0
    1.7388    1.4182    2.4301 H   0  0  0  0  0  0  0  0  0  0  0  0
    0.0066   -0.4198    3.0447 H   0  0  0  0  0  0  0  0  0  0  0  0
    1.2649   -0.0209    4.1604 H   0  0  0  0  0  0  0  0  0  0  0  0
    0.5933    0.1368    6.1910 H   0  0  0  0  0  0  0  0  0  0  0  0
   -2.8612    1.9735    6.4821 H   0  0  0  0  0  0  0  0  0  0  0  0
   -2.9776    2.1365    8.8977 H   0  0  0  0  0  0  0  0  0  0  0  0
   -1.2158    2.0622    9.0480 H   0  0  0  0  0  0  0  0  0  0  0  0
   -1.2065    5.1550    6.9388 H   0  0  0  0  0  0  0  0  0  0  0  0
    0.0172    4.2959    7.8564 H   0  0  0  0  0  0  0  0  0  0  0  0
   -1.4566    3.3885    5.4312 H   0  0  0  0  0  0  0  0  0  0  0  0
    0.8341    2.3098    7.1188 H   0  0  0  0  0  0  0  0  0  0  0  0
    1.5090    3.8894    5.3977 H   0  0  0  0  0  0  0  0  0  0  0  0
    2.5073    1.3428    4.7960 H   0  0  0  0  0  0  0  0  0  0  0  0
   -0.2255    3.3661    3.6351 H   0  0  0  0  0  0  0  0  0  0  0  0
    1.0743    4.1427    2.1195 H   0  0  0  0  0  0  0  0  0  0  0  0
    0.0956    2.5634    1.1489 H   0  0  0  0  0  0  0  0  0  0  0  0
  1  2  1  0
  1 17  1  0
  1 18  1  0
  1 34  1  0
  2 15  1  0
  2  3  1  0
  2 19  1  6
  3  4  1  0
  3 20  1  0
  3 21  1  0
  4  5  1  0
  5 12  1  0
  5  6  1  0
  5 22  1  1
  6  7  1  0
  7 11  1  0
  7  8  1  0
  7 23  1  6
  8  9  1  0
  8 24  1  0
  8 25  1  0
  9 10  1  0
 10 11  1  0
 10 26  1  0
 10 27  1  0
 11 12  1  0
 11 28  1  6
 12 13  1  0
 12 29  1  1
 13 14  1  0
 13 15  1  0
 13 30  1  1
 14 31  1  0
 15 16  1  0
 15 32  1  1
 16 33  1  0
M  CHG  1   1   1
M  END
>  <i_m_ct_stereo_status>  (134) 
1

>  <s_m_source_file>  (134) 
/var/tmp/pbs.5076255.sched01/tmp7rtc4ovb/41r77q45k8.sdf

>  <i_m_source_file_index>  (134) 
24

>  <i_lp_mmshare_version>  (134) 
48012

>  <i_f3d_flags>  (134) 
0

>  <s_epik_input>  (134) 
TzFbQ0gyXVtDQEBIXShbTkgyXSlbQ0BIXShbT0hdKVtDQEhdKFtPSF0pW0NASF0oW0NASF0xMilbQ0BIXTNbQ0BASF0oTzIpW0NIMl1PW0NIMl0z

>  <s_epik_cmdline>  (134) 
J2VwaWtfcHl0aG9uJywgJy1waHQnLCAnMi4wJywgJy1waCcsICc3LjAnLCAnLXRuJywgJzgnLCAnLW1hJywgJzIwMCcsICctaW1hZScsICc8aW5maWxlLm1hZT4nLCAnLW9tYWUnLCAnPG91dGZpbGUubWFlPic=

>  <r_epik_Ionization_Penalty>  (134) 
0.0412612

>  <r_epik_Ionization_Penalty_Charging>  (134) 
0.04126

>  <r_epik_Ionization_Penalty_Neutral>  (134) 
1.17031e-06

>  <r_epik_State_Penalty>  (134) 
0.0347799

>  <r_epik_Charging_Adjusted_Penalty>  (134) 
0.0760398

>  <i_epik_Tot_Q>  (134) 
1

>  <i_epik_Tot_abs_Q>  (134) 
1

>  <s_epik_Chemistry_Notes>  (134) 
This compound contains an acetal/aminal-like group ( X-CH(R)-Y where X, Y are N, S, or O) that may be acid/base labile, releasing an aldehyde.

>  <s_lp_Force_Field>  (134) 
OPLS3e

>  <r_lp_Energy>  (134) 
6.1341

>  <b_lp_Chiralities_Consistent>  (134) 
1

>  <s_lp_Variant>  (134) 
38:0-1

>  <s_i_glide_gridfile>  (134) 
pfpi4k_grid

>  <i_i_glide_lignum>  (134) 
24

>  <i_i_glide_rotatable_bonds>  (134) 
2

>  <r_i_docking_score>  (134) 
-4.49829

>  <r_i_glide_ligand_efficiency>  (134) 
-0.281143

>  <r_i_glide_ligand_efficiency_sa>  (134) 
-0.708436

>  <r_i_glide_ligand_efficiency_ln>  (134) 
-1.19236

>  <r_i_glide_gscore>  (134) 
-4.49829

>  <r_i_glide_lipo>  (134) 
-0.0079672

>  <r_i_glide_hbond>  (134) 
-0.406922

>  <r_i_glide_metal>  (134) 
-0

>  <r_i_glide_rewards>  (134) 
-1.82554

>  <r_i_glide_evdw>  (134) 
-11.963

>  <r_i_glide_ecoul>  (134) 
-10.4505

>  <r_i_glide_erotb>  (134) 
0

>  <r_i_glide_esite>  (134) 
-0.0921243

>  <r_i_glide_emodel>  (134) 
-32.5085

>  <r_i_glide_energy>  (134) 
-22.4135

>  <r_i_glide_einternal>  (134) 
0.499916

>  <r_i_glide_intrahb_reward>  (134) 
-0

>  <i_i_glide_confnum>  (134) 
2

>  <i_i_glide_posenum>  (134) 
9

>  <r_i_glide_eff_state_penalty>  (134) 
0

>  <ligand_id>  (134) 
38

>  <original_smiles>  (134) 
NC1COC2OC3COCC3C2C(O)C1O

>  <smiles>  (134) 
[H]OC1([H])C([H])(O[H])C([H])([N+]([H])([H])[H])C([H])([H])OC2([H])OC3([H])C([H])([H])OC([H])([H])C3([H])C21[H]

$$$$
38:0:1
     RDKit          3D

 34 36  0  0  1  0  0  0  0  0999 V2000
    2.2383   -2.6574   -2.4962 N   0  0  0  0  0  0  0  0  0  0  0  0
    3.5224   -2.7610   -1.7803 C   0  0  2  0  0  0  0  0  0  0  0  0
    3.4399   -3.8457   -0.7085 C   0  0  0  0  0  0  0  0  0  0  0  0
    2.8966   -3.3356    0.4999 O   0  0  0  0  0  0  0  0  0  0  0  0
    3.8440   -3.0776    1.4960 C   0  0  2  0  0  0  0  0  0  0  0  0
    3.2326   -3.0246    2.7437 O   0  0  0  0  0  0  0  0  0  0  0  0
    2.6954   -1.7184    2.9569 C   0  0  1  0  0  0  0  0  0  0  0  0
    3.1428   -1.1222    4.2918 C   0  0  0  0  0  0  0  0  0  0  0  0
    3.2835    0.2607    4.0203 O   0  0  0  0  0  0  0  0  0  0  0  0
    3.7917    0.4158    2.7056 C   0  0  0  0  0  0  0  0  0  0  0  0
    3.3237   -0.8076    1.9178 C   0  0  1  0  0  0  0  0  0  0  0  0
    4.4401   -1.6752    1.3312 C   0  0  2  0  0  0  0  0  0  0  0  0
    4.9613   -1.3296   -0.0929 C   0  0  1  0  0  0  0  0  0  0  0  0
    6.1271   -2.0721   -0.4177 O   0  0  0  0  0  0  0  0  0  0  0  0
    3.9121   -1.3734   -1.2347 C   0  0  1  0  0  0  0  0  0  0  0  0
    4.4031   -0.6292   -2.3275 O   0  0  0  0  0  0  0  0  0  0  0  0
    1.5321   -2.3208   -1.8417 H   0  0  0  0  0  0  0  0  0  0  0  0
    1.9698   -3.5464   -2.8900 H   0  0  0  0  0  0  0  0  0  0  0  0
    4.2663   -3.0778   -2.5115 H   0  0  0  0  0  0  0  0  0  0  0  0
    2.7882   -4.6494   -1.0422 H   0  0  0  0  0  0  0  0  0  0  0  0
    4.4227   -4.2989   -0.5665 H   0  0  0  0  0  0  0  0  0  0  0  0
    4.6004   -3.8677    1.5413 H   0  0  0  0  0  0  0  0  0  0  0  0
    1.6103   -1.7036    2.8599 H   0  0  0  0  0  0  0  0  0  0  0  0
    2.4298   -1.2963    5.0999 H   0  0  0  0  0  0  0  0  0  0  0  0
    4.1136   -1.5257    4.5904 H   0  0  0  0  0  0  0  0  0  0  0  0
    3.4137    1.3390    2.2694 H   0  0  0  0  0  0  0  0  0  0  0  0
    4.8779    0.4785    2.7422 H   0  0  0  0  0  0  0  0  0  0  0  0
    2.5682   -0.5365    1.1848 H   0  0  0  0  0  0  0  0  0  0  0  0
    5.2862   -1.6378    2.0217 H   0  0  0  0  0  0  0  0  0  0  0  0
    5.3098   -0.2977   -0.0100 H   0  0  0  0  0  0  0  0  0  0  0  0
    5.9245   -2.9949   -0.4576 H   0  0  0  0  0  0  0  0  0  0  0  0
    3.0174   -0.8651   -0.9018 H   0  0  0  0  0  0  0  0  0  0  0  0
    4.4842    0.2766   -2.0602 H   0  0  0  0  0  0  0  0  0  0  0  0
    2.3316   -1.9637   -3.2276 H   0  0  0  0  0  0  0  0  0  0  0  0
  1  2  1  0
  1 17  1  0
  1 18  1  0
  1 34  1  0
  2 15  1  0
  2  3  1  0
  2 19  1  6
  3  4  1  0
  3 20  1  0
  3 21  1  0
  4  5  1  0
  5 12  1  0
  5  6  1  0
  5 22  1  1
  6  7  1  0
  7 11  1  0
  7  8  1  0
  7 23  1  1
  8  9  1  0
  8 24  1  0
  8 25  1  0
  9 10  1  0
 10 11  1  0
 10 26  1  0
 10 27  1  0
 11 12  1  0
 11 28  1  6
 12 13  1  0
 12 29  1  1
 13 14  1  0
 13 15  1  0
 13 30  1  1
 14 31  1  0
 15 16  1  0
 15 32  1  1
 16 33  1  0
M  CHG  1   1   1
M  END
>  <i_m_ct_stereo_status>  (135) 
1

>  <s_m_source_file>  (135) 
/var/tmp/pbs.5076255.sched01/tmp7rtc4ovb/41r77q45k8.sdf

>  <i_m_source_file_index>  (135) 
24

>  <i_lp_mmshare_version>  (135) 
48012

>  <i_f3d_flags>  (135) 
0

>  <s_epik_input>  (135) 
TzFbQ0gyXVtDQEBIXShbTkgyXSlbQ0BIXShbT0hdKVtDQEhdKFtPSF0pW0NASF0oW0NASF0xMilbQ0BIXTNbQ0BASF0oTzIpW0NIMl1PW0NIMl0z

>  <s_epik_cmdline>  (135) 
J2VwaWtfcHl0aG9uJywgJy1waHQnLCAnMi4wJywgJy1waCcsICc3LjAnLCAnLXRuJywgJzgnLCAnLW1hJywgJzIwMCcsICctaW1hZScsICc8aW5maWxlLm1hZT4nLCAnLW9tYWUnLCAnPG91dGZpbGUubWFlPic=

>  <r_epik_Ionization_Penalty>  (135) 
0.0412612

>  <r_epik_Ionization_Penalty_Charging>  (135) 
0.04126

>  <r_epik_Ionization_Penalty_Neutral>  (135) 
1.17031e-06

>  <r_epik_State_Penalty>  (135) 
0.0347799

>  <r_epik_Charging_Adjusted_Penalty>  (135) 
0.0760398

>  <i_epik_Tot_Q>  (135) 
1

>  <i_epik_Tot_abs_Q>  (135) 
1

>  <s_epik_Chemistry_Notes>  (135) 
This compound contains an acetal/aminal-like group ( X-CH(R)-Y where X, Y are N, S, or O) that may be acid/base labile, releasing an aldehyde.

>  <s_lp_Force_Field>  (135) 
OPLS3e

>  <r_lp_Energy>  (135) 
6.1341

>  <b_lp_Chiralities_Consistent>  (135) 
1

>  <s_lp_Variant>  (135) 
38:0-1

>  <s_i_glide_gridfile>  (135) 
pfpi4k_grid

>  <i_i_glide_lignum>  (135) 
24

>  <i_i_glide_rotatable_bonds>  (135) 
2

>  <r_i_docking_score>  (135) 
-4.2817

>  <r_i_glide_ligand_efficiency>  (135) 
-0.267606

>  <r_i_glide_ligand_efficiency_sa>  (135) 
-0.674326

>  <r_i_glide_ligand_efficiency_ln>  (135) 
-1.13495

>  <r_i_glide_gscore>  (135) 
-4.2817

>  <r_i_glide_lipo>  (135) 
-0.0114703

>  <r_i_glide_hbond>  (135) 
-0.2

>  <r_i_glide_metal>  (135) 
-0

>  <r_i_glide_rewards>  (135) 
-1.8271

>  <r_i_glide_evdw>  (135) 
-15.2202

>  <r_i_glide_ecoul>  (135) 
-9.68097

>  <r_i_glide_erotb>  (135) 
0

>  <r_i_glide_esite>  (135) 
-0.0299812

>  <r_i_glide_emodel>  (135) 
-34.5999

>  <r_i_glide_energy>  (135) 
-24.9011

>  <r_i_glide_einternal>  (135) 
0.390762

>  <r_i_glide_intrahb_reward>  (135) 
-0

>  <i_i_glide_confnum>  (135) 
1

>  <i_i_glide_posenum>  (135) 
6

>  <r_i_glide_eff_state_penalty>  (135) 
0

>  <ligand_id>  (135) 
38

>  <original_smiles>  (135) 
NC1COC2OC3COCC3C2C(O)C1O

>  <smiles>  (135) 
[H]OC1([H])C([H])(O[H])C([H])([N+]([H])([H])[H])C([H])([H])OC2([H])OC3([H])C([H])([H])OC([H])([H])C3([H])C21[H]

$$$$
38:0:2
     RDKit          3D

 34 36  0  0  1  0  0  0  0  0999 V2000
    2.2192   -2.6655   -2.5174 N   0  0  0  0  0  0  0  0  0  0  0  0
    3.5211   -2.7439   -1.8190 C   0  0  2  0  0  0  0  0  0  0  0  0
    3.4718   -3.8315   -0.7437 C   0  0  0  0  0  0  0  0  0  0  0  0
    2.9357   -3.3304    0.4710 O   0  0  0  0  0  0  0  0  0  0  0  0
    3.8970   -3.0577    1.4479 C   0  0  2  0  0  0  0  0  0  0  0  0
    3.3081   -3.0267    2.7039 O   0  0  0  0  0  0  0  0  0  0  0  0
    2.7416   -1.7333    2.9253 C   0  0  1  0  0  0  0  0  0  0  0  0
    3.1941   -1.1359    4.2589 C   0  0  0  0  0  0  0  0  0  0  0  0
    3.2957    0.2495    3.9917 O   0  0  0  0  0  0  0  0  0  0  0  0
    3.7926    0.4192    2.6742 C   0  0  0  0  0  0  0  0  0  0  0  0
    3.3355   -0.8048    1.8852 C   0  0  1  0  0  0  0  0  0  0  0  0
    4.4636   -1.6480    1.2772 C   0  0  2  0  0  0  0  0  0  0  0  0
    4.9609   -1.2931   -0.1563 C   0  0  1  0  0  0  0  0  0  0  0  0
    6.1385   -2.0159   -0.4908 O   0  0  0  0  0  0  0  0  0  0  0  0
    3.9119   -1.3582   -1.2932 C   0  0  1  0  0  0  0  0  0  0  0  0
    4.3876   -0.6394   -2.4101 O   0  0  0  0  0  0  0  0  0  0  0  0
    1.5226   -2.3452   -1.8505 H   0  0  0  0  0  0  0  0  0  0  0  0
    1.9681   -3.5691   -2.8889 H   0  0  0  0  0  0  0  0  0  0  0  0
    4.2683   -3.0499   -2.5514 H   0  0  0  0  0  0  0  0  0  0  0  0
    2.8349   -4.6462   -1.0730 H   0  0  0  0  0  0  0  0  0  0  0  0
    4.4677   -4.2540   -0.6227 H   0  0  0  0  0  0  0  0  0  0  0  0
    4.6694   -3.8371    1.4672 H   0  0  0  0  0  0  0  0  0  0  0  0
    1.6569   -1.7493    2.8383 H   0  0  0  0  0  0  0  0  0  0  0  0
    2.4978   -1.3326    5.0776 H   0  0  0  0  0  0  0  0  0  0  0  0
    4.1781   -1.5173    4.5378 H   0  0  0  0  0  0  0  0  0  0  0  0
    3.4074    1.3430    2.2458 H   0  0  0  0  0  0  0  0  0  0  0  0
    4.8789    0.4963    2.7059 H   0  0  0  0  0  0  0  0  0  0  0  0
    2.5644   -0.5411    1.1643 H   0  0  0  0  0  0  0  0  0  0  0  0
    5.3172   -1.5928    1.9561 H   0  0  0  0  0  0  0  0  0  0  0  0
    5.2851   -0.2555   -0.0817 H   0  0  0  0  0  0  0  0  0  0  0  0
    5.9570   -2.9431   -0.5298 H   0  0  0  0  0  0  0  0  0  0  0  0
    3.0228   -0.8373   -0.9387 H   0  0  0  0  0  0  0  0  0  0  0  0
    3.6621   -0.2007   -2.8339 H   0  0  0  0  0  0  0  0  0  0  0  0
    2.2730   -1.9925   -3.2703 H   0  0  0  0  0  0  0  0  0  0  0  0
  1  2  1  0
  1 17  1  0
  1 18  1  0
  1 34  1  0
  2 15  1  0
  2  3  1  0
  2 19  1  6
  3  4  1  0
  3 20  1  0
  3 21  1  0
  4  5  1  0
  5 12  1  0
  5  6  1  0
  5 22  1  1
  6  7  1  0
  7 11  1  0
  7  8  1  0
  7 23  1  1
  8  9  1  0
  8 24  1  0
  8 25  1  0
  9 10  1  0
 10 11  1  0
 10 26  1  0
 10 27  1  0
 11 12  1  0
 11 28  1  6
 12 13  1  0
 12 29  1  1
 13 14  1  0
 13 15  1  0
 13 30  1  1
 14 31  1  0
 15 16  1  0
 15 32  1  1
 16 33  1  0
M  CHG  1   1   1
M  END
>  <i_m_ct_stereo_status>  (136) 
1

>  <s_m_source_file>  (136) 
/var/tmp/pbs.5076255.sched01/tmp7rtc4ovb/41r77q45k8.sdf

>  <i_m_source_file_index>  (136) 
24

>  <i_lp_mmshare_version>  (136) 
48012

>  <i_f3d_flags>  (136) 
0

>  <s_epik_input>  (136) 
TzFbQ0gyXVtDQEBIXShbTkgyXSlbQ0BIXShbT0hdKVtDQEhdKFtPSF0pW0NASF0oW0NASF0xMilbQ0BIXTNbQ0BASF0oTzIpW0NIMl1PW0NIMl0z

>  <s_epik_cmdline>  (136) 
J2VwaWtfcHl0aG9uJywgJy1waHQnLCAnMi4wJywgJy1waCcsICc3LjAnLCAnLXRuJywgJzgnLCAnLW1hJywgJzIwMCcsICctaW1hZScsICc8aW5maWxlLm1hZT4nLCAnLW9tYWUnLCAnPG91dGZpbGUubWFlPic=

>  <r_epik_Ionization_Penalty>  (136) 
0.0412612

>  <r_epik_Ionization_Penalty_Charging>  (136) 
0.04126

>  <r_epik_Ionization_Penalty_Neutral>  (136) 
1.17031e-06

>  <r_epik_State_Penalty>  (136) 
0.0347799

>  <r_epik_Charging_Adjusted_Penalty>  (136) 
0.0760398

>  <i_epik_Tot_Q>  (136) 
1

>  <i_epik_Tot_abs_Q>  (136) 
1

>  <s_epik_Chemistry_Notes>  (136) 
This compound contains an acetal/aminal-like group ( X-CH(R)-Y where X, Y are N, S, or O) that may be acid/base labile, releasing an aldehyde.

>  <s_lp_Force_Field>  (136) 
OPLS3e

>  <r_lp_Energy>  (136) 
6.1341

>  <b_lp_Chiralities_Consistent>  (136) 
1

>  <s_lp_Variant>  (136) 
38:0-1

>  <s_i_glide_gridfile>  (136) 
pfpi4k_grid

>  <i_i_glide_lignum>  (136) 
24

>  <i_i_glide_rotatable_bonds>  (136) 
2

>  <r_i_docking_score>  (136) 
-4.22427

>  <r_i_glide_ligand_efficiency>  (136) 
-0.264017

>  <r_i_glide_ligand_efficiency_sa>  (136) 
-0.665281

>  <r_i_glide_ligand_efficiency_ln>  (136) 
-1.11973

>  <r_i_glide_gscore>  (136) 
-4.22427

>  <r_i_glide_lipo>  (136) 
-0.0113714

>  <r_i_glide_hbond>  (136) 
-0.2

>  <r_i_glide_metal>  (136) 
-0

>  <r_i_glide_rewards>  (136) 
-1.82791

>  <r_i_glide_evdw>  (136) 
-15.1949

>  <r_i_glide_ecoul>  (136) 
-9.31625

>  <r_i_glide_erotb>  (136) 
0

>  <r_i_glide_esite>  (136) 
-0.0278077

>  <r_i_glide_emodel>  (136) 
-33.2814

>  <r_i_glide_energy>  (136) 
-24.5112

>  <r_i_glide_einternal>  (136) 
0.511561

>  <r_i_glide_intrahb_reward>  (136) 
-0

>  <i_i_glide_confnum>  (136) 
2

>  <i_i_glide_posenum>  (136) 
2

>  <r_i_glide_eff_state_penalty>  (136) 
0

>  <ligand_id>  (136) 
38

>  <original_smiles>  (136) 
NC1COC2OC3COCC3C2C(O)C1O

>  <smiles>  (136) 
[H]OC1([H])C([H])(O[H])C([H])([N+]([H])([H])[H])C([H])([H])OC2([H])OC3([H])C([H])([H])OC([H])([H])C3([H])C21[H]

$$$$
38:1:0
     RDKit          3D

 33 35  0  0  1  0  0  0  0  0999 V2000
    3.5178   -3.4520   -3.9662 N   0  0  0  0  0  0  0  0  0  0  0  0
    4.3779   -2.5922   -3.1351 C   0  0  2  0  0  0  0  0  0  0  0  0
    5.5330   -3.4117   -2.5548 C   0  0  0  0  0  0  0  0  0  0  0  0
    5.1000   -4.1643   -1.4323 O   0  0  0  0  0  0  0  0  0  0  0  0
    5.4922   -3.6462   -0.2051 C   0  0  2  0  0  0  0  0  0  0  0  0
    5.3694   -4.6135    0.7914 O   0  0  0  0  0  0  0  0  0  0  0  0
    4.0168   -4.6562    1.2482 C   0  0  1  0  0  0  0  0  0  0  0  0
    3.9096   -4.5462    2.7719 C   0  0  0  0  0  0  0  0  0  0  0  0
    2.7226   -3.7931    2.9795 O   0  0  0  0  0  0  0  0  0  0  0  0
    2.6148   -2.8096    1.9652 C   0  0  0  0  0  0  0  0  0  0  0  0
    3.3431   -3.3843    0.7505 C   0  0  1  0  0  0  0  0  0  0  0  0
    4.5205   -2.5569    0.2556 C   0  0  2  0  0  0  0  0  0  0  0  0
    4.2423   -1.4252   -0.7669 C   0  0  1  0  0  0  0  0  0  0  0  0
    5.4139   -0.6643   -0.9987 O   0  0  0  0  0  0  0  0  0  0  0  0
    3.5349   -1.8582   -2.0831 C   0  0  1  0  0  0  0  0  0  0  0  0
    3.0380   -0.7040   -2.7207 O   0  0  0  0  0  0  0  0  0  0  0  0
    3.1108   -4.1937   -3.3811 H   0  0  0  0  0  0  0  0  0  0  0  0
    2.7206   -2.9075   -4.3079 H   0  0  0  0  0  0  0  0  0  0  0  0
    4.8435   -1.8453   -3.7801 H   0  0  0  0  0  0  0  0  0  0  0  0
    5.8679   -4.1009   -3.3215 H   0  0  0  0  0  0  0  0  0  0  0  0
    6.3967   -2.7836   -2.3340 H   0  0  0  0  0  0  0  0  0  0  0  0
    6.5343   -3.3260   -0.2301 H   0  0  0  0  0  0  0  0  0  0  0  0
    3.4867   -5.5337    0.8794 H   0  0  0  0  0  0  0  0  0  0  0  0
    3.8663   -5.5170    3.2656 H   0  0  0  0  0  0  0  0  0  0  0  0
    4.7589   -3.9867    3.1691 H   0  0  0  0  0  0  0  0  0  0  0  0
    1.5672   -2.6128    1.7519 H   0  0  0  0  0  0  0  0  0  0  0  0
    3.0549   -1.8700    2.2963 H   0  0  0  0  0  0  0  0  0  0  0  0
    2.6504   -3.6513   -0.0462 H   0  0  0  0  0  0  0  0  0  0  0  0
    4.9986   -2.1066    1.1271 H   0  0  0  0  0  0  0  0  0  0  0  0
    3.5592   -0.7535   -0.2504 H   0  0  0  0  0  0  0  0  0  0  0  0
    5.1573    0.2494   -1.1313 H   0  0  0  0  0  0  0  0  0  0  0  0
    2.6596   -2.4561   -1.8325 H   0  0  0  0  0  0  0  0  0  0  0  0
    2.2971   -0.4118   -2.2097 H   0  0  0  0  0  0  0  0  0  0  0  0
  1  2  1  0
  1 17  1  0
  1 18  1  0
  2 15  1  0
  2  3  1  0
  2 19  1  6
  3  4  1  0
  3 20  1  0
  3 21  1  0
  4  5  1  0
  5 12  1  0
  5  6  1  0
  5 22  1  6
  6  7  1  0
  7 11  1  0
  7  8  1  0
  7 23  1  6
  8  9  1  0
  8 24  1  0
  8 25  1  0
  9 10  1  0
 10 11  1  0
 10 26  1  0
 10 27  1  0
 11 12  1  0
 11 28  1  6
 12 13  1  0
 12 29  1  1
 13 14  1  0
 13 15  1  0
 13 30  1  1
 14 31  1  0
 15 16  1  0
 15 32  1  1
 16 33  1  0
M  END
>  <i_m_ct_stereo_status>  (137) 
1

>  <s_m_source_file>  (137) 
/var/tmp/pbs.5076255.sched01/tmp7rtc4ovb/41r77q45k8.sdf

>  <i_m_source_file_index>  (137) 
25

>  <i_lp_mmshare_version>  (137) 
48012

>  <i_f3d_flags>  (137) 
0

>  <s_epik_input>  (137) 
TzFbQ0gyXVtDQEBIXShbTkgyXSlbQ0BIXShbT0hdKVtDQEhdKFtPSF0pW0NASF0oW0NASF0xMilbQ0BIXTNbQ0BASF0oTzIpW0NIMl1PW0NIMl0z

>  <s_epik_cmdline>  (137) 
J2VwaWtfcHl0aG9uJywgJy1waHQnLCAnMi4wJywgJy1waCcsICc3LjAnLCAnLXRuJywgJzgnLCAnLW1hJywgJzIwMCcsICctaW1hZScsICc8aW5maWxlLm1hZT4nLCAnLW9tYWUnLCAnPG91dGZpbGUubWFlPic=

>  <r_epik_Ionization_Penalty>  (137) 
1.59915

>  <r_epik_Ionization_Penalty_Charging>  (137) 
0

>  <r_epik_Ionization_Penalty_Neutral>  (137) 
1.59915

>  <r_epik_State_Penalty>  (137) 
1.69717

>  <r_epik_Charging_Adjusted_Penalty>  (137) 
1.69717

>  <i_epik_Tot_Q>  (137) 
0

>  <i_epik_Tot_abs_Q>  (137) 
0

>  <s_epik_Chemistry_Notes>  (137) 
This compound contains an acetal/aminal-like group ( X-CH(R)-Y where X, Y are N, S, or O) that may be acid/base labile, releasing an aldehyde.

>  <s_lp_Force_Field>  (137) 
OPLS3e

>  <r_lp_Energy>  (137) 
4.35208

>  <b_lp_Chiralities_Consistent>  (137) 
1

>  <s_lp_Variant>  (137) 
38:0-2

>  <s_i_glide_gridfile>  (137) 
pfpi4k_grid

>  <i_i_glide_lignum>  (137) 
25

>  <i_i_glide_rotatable_bonds>  (137) 
2

>  <r_i_docking_score>  (137) 
-4.85734

>  <r_i_glide_ligand_efficiency>  (137) 
-0.303583

>  <r_i_glide_ligand_efficiency_sa>  (137) 
-0.764982

>  <r_i_glide_ligand_efficiency_ln>  (137) 
-1.28753

>  <r_i_glide_gscore>  (137) 
-4.85734

>  <r_i_glide_lipo>  (137) 
-0.385681

>  <r_i_glide_hbond>  (137) 
-0.285872

>  <r_i_glide_metal>  (137) 
-0

>  <r_i_glide_rewards>  (137) 
-1.91146

>  <r_i_glide_evdw>  (137) 
-19.0975

>  <r_i_glide_ecoul>  (137) 
-8.79634

>  <r_i_glide_erotb>  (137) 
0

>  <r_i_glide_esite>  (137) 
0

>  <r_i_glide_emodel>  (137) 
-35.9869

>  <r_i_glide_energy>  (137) 
-27.8938

>  <r_i_glide_einternal>  (137) 
1.40333

>  <r_i_glide_intrahb_reward>  (137) 
-0

>  <i_i_glide_confnum>  (137) 
1

>  <i_i_glide_posenum>  (137) 
12

>  <r_i_glide_eff_state_penalty>  (137) 
0

>  <ligand_id>  (137) 
38

>  <original_smiles>  (137) 
NC1COC2OC3COCC3C2C(O)C1O

>  <smiles>  (137) 
[H]OC1([H])C([H])(O[H])C2([H])C([H])(OC([H])([H])C1([H])N([H])[H])OC1([H])C([H])([H])OC([H])([H])C12[H]

$$$$
38:1:1
     RDKit          3D

 33 35  0  0  1  0  0  0  0  0999 V2000
    2.5377   -3.0205   -3.6476 N   0  0  0  0  0  0  0  0  0  0  0  0
    3.8231   -2.5676   -3.0713 C   0  0  2  0  0  0  0  0  0  0  0  0
    4.5308   -3.6952   -2.3167 C   0  0  0  0  0  0  0  0  0  0  0  0
    3.9108   -3.8726   -1.0459 O   0  0  0  0  0  0  0  0  0  0  0  0
    4.6694   -3.4101    0.0308 C   0  0  2  0  0  0  0  0  0  0  0  0
    4.2602   -3.9566    1.2388 O   0  0  0  0  0  0  0  0  0  0  0  0
    3.1512   -3.1785    1.7358 C   0  0  1  0  0  0  0  0  0  0  0  0
    3.3509   -2.7081    3.1732 C   0  0  0  0  0  0  0  0  0  0  0  0
    2.7344   -1.4214    3.2225 O   0  0  0  0  0  0  0  0  0  0  0  0
    2.9605   -0.7588    1.9857 C   0  0  0  0  0  0  0  0  0  0  0  0
    3.1139   -1.8845    0.9600 C   0  0  1  0  0  0  0  0  0  0  0  0
    4.4312   -1.9180    0.2310 C   0  0  2  0  0  0  0  0  0  0  0  0
    4.5492   -1.0572   -1.0266 C   0  0  1  0  0  0  0  0  0  0  0  0
    5.8565   -1.2306   -1.4458 O   0  0  0  0  0  0  0  0  0  0  0  0
    3.6239   -1.2961   -2.2338 C   0  0  1  0  0  0  0  0  0  0  0  0
    3.7701   -0.2498   -3.1797 O   0  0  0  0  0  0  0  0  0  0  0  0
    1.9019   -3.2978   -2.9020 H   0  0  0  0  0  0  0  0  0  0  0  0
    2.0737   -2.2413   -4.1229 H   0  0  0  0  0  0  0  0  0  0  0  0
    4.4961   -2.2980   -3.8824 H   0  0  0  0  0  0  0  0  0  0  0  0
    4.4577   -4.6193   -2.9118 H   0  0  0  0  0  0  0  0  0  0  0  0
    5.6136   -3.5454   -2.2580 H   0  0  0  0  0  0  0  0  0  0  0  0
    5.7256   -3.6764   -0.1054 H   0  0  0  0  0  0  0  0  0  0  0  0
    2.2044   -3.7007    1.5975 H   0  0  0  0  0  0  0  0  0  0  0  0
    2.9057   -3.3955    3.9025 H   0  0  0  0  0  0  0  0  0  0  0  0
    4.4182   -2.5943    3.3781 H   0  0  0  0  0  0  0  0  0  0  0  0
    2.1327   -0.0993    1.7316 H   0  0  0  0  0  0  0  0  0  0  0  0
    3.8563   -0.1416    2.0378 H   0  0  0  0  0  0  0  0  0  0  0  0
    2.2777   -1.9312    0.2793 H   0  0  0  0  0  0  0  0  0  0  0  0
    5.1988   -1.5988    0.9349 H   0  0  0  0  0  0  0  0  0  0  0  0
    4.4457   -0.0255   -0.6943 H   0  0  0  0  0  0  0  0  0  0  0  0
    5.9030   -2.0771   -1.8958 H   0  0  0  0  0  0  0  0  0  0  0  0
    2.6139   -1.2621   -1.8659 H   0  0  0  0  0  0  0  0  0  0  0  0
    3.3210    0.5204   -2.8620 H   0  0  0  0  0  0  0  0  0  0  0  0
  1  2  1  0
  1 17  1  0
  1 18  1  0
  2 15  1  0
  2  3  1  0
  2 19  1  6
  3  4  1  0
  3 20  1  0
  3 21  1  0
  4  5  1  0
  5 12  1  0
  5  6  1  0
  5 22  1  6
  6  7  1  0
  7 11  1  0
  7  8  1  0
  7 23  1  1
  8  9  1  0
  8 24  1  0
  8 25  1  0
  9 10  1  0
 10 11  1  0
 10 26  1  0
 10 27  1  0
 11 12  1  0
 11 28  1  6
 12 13  1  0
 12 29  1  1
 13 14  1  0
 13 15  1  0
 13 30  1  1
 14 31  1  0
 15 16  1  0
 15 32  1  1
 16 33  1  0
M  END
>  <i_m_ct_stereo_status>  (138) 
1

>  <s_m_source_file>  (138) 
/var/tmp/pbs.5076255.sched01/tmp7rtc4ovb/41r77q45k8.sdf

>  <i_m_source_file_index>  (138) 
25

>  <i_lp_mmshare_version>  (138) 
48012

>  <i_f3d_flags>  (138) 
0

>  <s_epik_input>  (138) 
TzFbQ0gyXVtDQEBIXShbTkgyXSlbQ0BIXShbT0hdKVtDQEhdKFtPSF0pW0NASF0oW0NASF0xMilbQ0BIXTNbQ0BASF0oTzIpW0NIMl1PW0NIMl0z

>  <s_epik_cmdline>  (138) 
J2VwaWtfcHl0aG9uJywgJy1waHQnLCAnMi4wJywgJy1waCcsICc3LjAnLCAnLXRuJywgJzgnLCAnLW1hJywgJzIwMCcsICctaW1hZScsICc8aW5maWxlLm1hZT4nLCAnLW9tYWUnLCAnPG91dGZpbGUubWFlPic=

>  <r_epik_Ionization_Penalty>  (138) 
1.59915

>  <r_epik_Ionization_Penalty_Charging>  (138) 
0

>  <r_epik_Ionization_Penalty_Neutral>  (138) 
1.59915

>  <r_epik_State_Penalty>  (138) 
1.69717

>  <r_epik_Charging_Adjusted_Penalty>  (138) 
1.69717

>  <i_epik_Tot_Q>  (138) 
0

>  <i_epik_Tot_abs_Q>  (138) 
0

>  <s_epik_Chemistry_Notes>  (138) 
This compound contains an acetal/aminal-like group ( X-CH(R)-Y where X, Y are N, S, or O) that may be acid/base labile, releasing an aldehyde.

>  <s_lp_Force_Field>  (138) 
OPLS3e

>  <r_lp_Energy>  (138) 
4.35208

>  <b_lp_Chiralities_Consistent>  (138) 
1

>  <s_lp_Variant>  (138) 
38:0-2

>  <s_i_glide_gridfile>  (138) 
pfpi4k_grid

>  <i_i_glide_lignum>  (138) 
25

>  <i_i_glide_rotatable_bonds>  (138) 
2

>  <r_i_docking_score>  (138) 
-3.57804

>  <r_i_glide_ligand_efficiency>  (138) 
-0.223628

>  <r_i_glide_ligand_efficiency_sa>  (138) 
-0.563507

>  <r_i_glide_ligand_efficiency_ln>  (138) 
-0.948432

>  <r_i_glide_gscore>  (138) 
-3.57804

>  <r_i_glide_lipo>  (138) 
-0.104274

>  <r_i_glide_hbond>  (138) 
0

>  <r_i_glide_metal>  (138) 
-0

>  <r_i_glide_rewards>  (138) 
-1.88065

>  <r_i_glide_evdw>  (138) 
-16.9677

>  <r_i_glide_ecoul>  (138) 
-4.96491

>  <r_i_glide_erotb>  (138) 
0

>  <r_i_glide_esite>  (138) 
0

>  <r_i_glide_emodel>  (138) 
-27.6198

>  <r_i_glide_energy>  (138) 
-21.9326

>  <r_i_glide_einternal>  (138) 
0.542643

>  <r_i_glide_intrahb_reward>  (138) 
-0

>  <i_i_glide_confnum>  (138) 
2

>  <i_i_glide_posenum>  (138) 
25

>  <r_i_glide_eff_state_penalty>  (138) 
0

>  <ligand_id>  (138) 
38

>  <original_smiles>  (138) 
NC1COC2OC3COCC3C2C(O)C1O

>  <smiles>  (138) 
[H]OC1([H])C([H])(O[H])C2([H])C([H])(OC([H])([H])C1([H])N([H])[H])OC1([H])C([H])([H])OC([H])([H])C12[H]

$$$$
38:1:2
     RDKit          3D

 33 35  0  0  1  0  0  0  0  0999 V2000
    2.9011   -3.0482   -2.4683 N   0  0  0  0  0  0  0  0  0  0  0  0
    4.1992   -2.7894   -1.8123 C   0  0  2  0  0  0  0  0  0  0  0  0
    4.5050   -3.8793   -0.7723 C   0  0  0  0  0  0  0  0  0  0  0  0
    3.7760   -3.6521    0.4247 O   0  0  0  0  0  0  0  0  0  0  0  0
    4.5283   -3.1216    1.4699 C   0  0  2  0  0  0  0  0  0  0  0  0
    3.8537   -3.2896    2.6741 O   0  0  0  0  0  0  0  0  0  0  0  0
    2.9088   -2.2301    2.8370 C   0  0  1  0  0  0  0  0  0  0  0  0
    3.0568   -1.5318    4.1880 C   0  0  0  0  0  0  0  0  0  0  0  0
    2.7503   -0.1748    3.9079 O   0  0  0  0  0  0  0  0  0  0  0  0
    3.2547    0.1563    2.6212 C   0  0  0  0  0  0  0  0  0  0  0  0
    3.2713   -1.1524    1.8294 C   0  0  1  0  0  0  0  0  0  0  0  0
    4.6490   -1.6004    1.3440 C   0  0  2  0  0  0  0  0  0  0  0  0
    5.1447   -1.0766   -0.0297 C   0  0  1  0  0  0  0  0  0  0  0  0
    6.4871   -1.4746   -0.2698 O   0  0  0  0  0  0  0  0  0  0  0  0
    4.2257   -1.3552   -1.2510 C   0  0  1  0  0  0  0  0  0  0  0  0
    4.6276   -0.5162   -2.3163 O   0  0  0  0  0  0  0  0  0  0  0  0
    2.1531   -2.9714   -1.7782 H   0  0  0  0  0  0  0  0  0  0  0  0
    2.7054   -2.3170   -3.1483 H   0  0  0  0  0  0  0  0  0  0  0  0
    4.9832   -2.8699   -2.5667 H   0  0  0  0  0  0  0  0  0  0  0  0
    4.2178   -4.8573   -1.1542 H   0  0  0  0  0  0  0  0  0  0  0  0
    5.5790   -3.9557   -0.5976 H   0  0  0  0  0  0  0  0  0  0  0  0
    5.4912   -3.6351    1.5509 H   0  0  0  0  0  0  0  0  0  0  0  0
    1.8875   -2.5774    2.6760 H   0  0  0  0  0  0  0  0  0  0  0  0
    2.3980   -1.9437    4.9550 H   0  0  0  0  0  0  0  0  0  0  0  0
    4.0864   -1.6010    4.5474 H   0  0  0  0  0  0  0  0  0  0  0  0
    2.6192    0.9067    2.1535 H   0  0  0  0  0  0  0  0  0  0  0  0
    4.2541    0.5742    2.7160 H   0  0  0  0  0  0  0  0  0  0  0  0
    2.5197   -1.1497    1.0430 H   0  0  0  0  0  0  0  0  0  0  0  0
    5.3818   -1.3107    2.1005 H   0  0  0  0  0  0  0  0  0  0  0  0
    5.1861    0.0046    0.0934 H   0  0  0  0  0  0  0  0  0  0  0  0
    6.5289   -2.4170   -0.2885 H   0  0  0  0  0  0  0  0  0  0  0  0
    3.2095   -1.0551   -0.9955 H   0  0  0  0  0  0  0  0  0  0  0  0
    4.6161    0.3755   -2.0026 H   0  0  0  0  0  0  0  0  0  0  0  0
  1  2  1  0
  1 17  1  0
  1 18  1  0
  2 15  1  0
  2  3  1  0
  2 19  1  6
  3  4  1  0
  3 20  1  0
  3 21  1  0
  4  5  1  0
  5 12  1  0
  5  6  1  0
  5 22  1  1
  6  7  1  0
  7 11  1  0
  7  8  1  0
  7 23  1  6
  8  9  1  0
  8 24  1  0
  8 25  1  0
  9 10  1  0
 10 11  1  0
 10 26  1  0
 10 27  1  0
 11 12  1  0
 11 28  1  6
 12 13  1  0
 12 29  1  1
 13 14  1  0
 13 15  1  0
 13 30  1  1
 14 31  1  0
 15 16  1  0
 15 32  1  1
 16 33  1  0
M  END
>  <i_m_ct_stereo_status>  (139) 
1

>  <s_m_source_file>  (139) 
/var/tmp/pbs.5076255.sched01/tmp7rtc4ovb/41r77q45k8.sdf

>  <i_m_source_file_index>  (139) 
25

>  <i_lp_mmshare_version>  (139) 
48012

>  <i_f3d_flags>  (139) 
0

>  <s_epik_input>  (139) 
TzFbQ0gyXVtDQEBIXShbTkgyXSlbQ0BIXShbT0hdKVtDQEhdKFtPSF0pW0NASF0oW0NASF0xMilbQ0BIXTNbQ0BASF0oTzIpW0NIMl1PW0NIMl0z

>  <s_epik_cmdline>  (139) 
J2VwaWtfcHl0aG9uJywgJy1waHQnLCAnMi4wJywgJy1waCcsICc3LjAnLCAnLXRuJywgJzgnLCAnLW1hJywgJzIwMCcsICctaW1hZScsICc8aW5maWxlLm1hZT4nLCAnLW9tYWUnLCAnPG91dGZpbGUubWFlPic=

>  <r_epik_Ionization_Penalty>  (139) 
1.59915

>  <r_epik_Ionization_Penalty_Charging>  (139) 
0

>  <r_epik_Ionization_Penalty_Neutral>  (139) 
1.59915

>  <r_epik_State_Penalty>  (139) 
1.69717

>  <r_epik_Charging_Adjusted_Penalty>  (139) 
1.69717

>  <i_epik_Tot_Q>  (139) 
0

>  <i_epik_Tot_abs_Q>  (139) 
0

>  <s_epik_Chemistry_Notes>  (139) 
This compound contains an acetal/aminal-like group ( X-CH(R)-Y where X, Y are N, S, or O) that may be acid/base labile, releasing an aldehyde.

>  <s_lp_Force_Field>  (139) 
OPLS3e

>  <r_lp_Energy>  (139) 
4.35208

>  <b_lp_Chiralities_Consistent>  (139) 
1

>  <s_lp_Variant>  (139) 
38:0-2

>  <s_i_glide_gridfile>  (139) 
pfpi4k_grid

>  <i_i_glide_lignum>  (139) 
25

>  <i_i_glide_rotatable_bonds>  (139) 
2

>  <r_i_docking_score>  (139) 
-3.3983

>  <r_i_glide_ligand_efficiency>  (139) 
-0.212394

>  <r_i_glide_ligand_efficiency_sa>  (139) 
-0.535199

>  <r_i_glide_ligand_efficiency_ln>  (139) 
-0.900788

>  <r_i_glide_gscore>  (139) 
-3.3983

>  <r_i_glide_lipo>  (139) 
-0.0658406

>  <r_i_glide_hbond>  (139) 
0

>  <r_i_glide_metal>  (139) 
-0

>  <r_i_glide_rewards>  (139) 
-1.85899

>  <r_i_glide_evdw>  (139) 
-17.9037

>  <r_i_glide_ecoul>  (139) 
-3.85524

>  <r_i_glide_erotb>  (139) 
0

>  <r_i_glide_esite>  (139) 
0

>  <r_i_glide_emodel>  (139) 
-27.8129

>  <r_i_glide_energy>  (139) 
-21.7589

>  <r_i_glide_einternal>  (139) 
0.37734

>  <r_i_glide_intrahb_reward>  (139) 
-0

>  <i_i_glide_confnum>  (139) 
1

>  <i_i_glide_posenum>  (139) 
13

>  <r_i_glide_eff_state_penalty>  (139) 
0

>  <ligand_id>  (139) 
38

>  <original_smiles>  (139) 
NC1COC2OC3COCC3C2C(O)C1O

>  <smiles>  (139) 
[H]OC1([H])C([H])(O[H])C2([H])C([H])(OC([H])([H])C1([H])N([H])[H])OC1([H])C([H])([H])OC([H])([H])C12[H]

$$$$
39:0:0
     RDKit          3D

 30 30  0  0  1  0  0  0  0  0999 V2000
    0.8095    5.7503    3.0711 C   0  0  0  0  0  0  0  0  0  0  0  0
    0.2127    5.1467    4.3403 C   0  0  0  0  0  0  0  0  0  0  0  0
    0.3161    5.7434    5.4119 O   0  0  0  0  0  0  0  0  0  0  0  0
   -0.5209    3.8895    4.2132 C   0  0  0  0  0  0  0  0  0  0  0  0
   -0.7627    3.2698    3.0093 N   0  0  0  0  0  0  0  0  0  0  0  0
   -1.4496    2.1184    3.1496 N   0  0  0  0  0  0  0  0  0  0  0  0
   -1.6475    2.0083    4.4578 C   0  0  0  0  0  0  0  0  0  0  0  0
   -1.0861    3.1026    5.1839 C   0  0  0  0  0  0  0  0  0  0  0  0
   -1.1102    3.3277    6.5945 N   0  0  0  0  0  0  0  0  0  0  0  0
   -1.6448    2.5326    7.5355 C   0  0  0  0  0  0  0  0  0  0  0  0
   -2.1348    1.4193    7.3116 O   0  0  0  0  0  0  0  0  0  0  0  0
   -1.6129    3.0764    8.9672 C   0  0  0  0  0  0  0  0  0  0  0  0
   -2.9416    2.9479    9.7464 C   0  0  0  0  0  0  0  0  0  0  0  0
   -4.1751    3.4182    8.9627 C   0  0  0  0  0  0  0  0  0  0  0  0
   -2.8426    3.7192   11.0695 C   0  0  0  0  0  0  0  0  0  0  0  0
   -0.4576    3.6151    2.0944 H   0  0  0  0  0  0  0  0  0  0  0  0
    1.4958    5.0504    2.6000 H   0  0  0  0  0  0  0  0  0  0  0  0
    1.3369    6.6847    3.2641 H   0  0  0  0  0  0  0  0  0  0  0  0
    0.0099    5.9710    2.3655 H   0  0  0  0  0  0  0  0  0  0  0  0
   -2.1869    1.1445    4.8193 H   0  0  0  0  0  0  0  0  0  0  0  0
   -0.6804    4.1797    6.9255 H   0  0  0  0  0  0  0  0  0  0  0  0
   -0.8324    2.5312    9.4980 H   0  0  0  0  0  0  0  0  0  0  0  0
   -1.3047    4.1226    8.9501 H   0  0  0  0  0  0  0  0  0  0  0  0
   -3.0938    1.9020    9.9972 H   0  0  0  0  0  0  0  0  0  0  0  0
   -4.0500    4.4589    8.6673 H   0  0  0  0  0  0  0  0  0  0  0  0
   -5.0727    3.3397    9.5762 H   0  0  0  0  0  0  0  0  0  0  0  0
   -4.3554    2.8190    8.0703 H   0  0  0  0  0  0  0  0  0  0  0  0
   -2.6867    4.7874   10.9085 H   0  0  0  0  0  0  0  0  0  0  0  0
   -2.0120    3.3467   11.6711 H   0  0  0  0  0  0  0  0  0  0  0  0
   -3.7476    3.5966   11.6689 H   0  0  0  0  0  0  0  0  0  0  0  0
  1  2  1  0
  1 17  1  0
  1 18  1  0
  1 19  1  0
  2  3  2  0
  2  4  1  0
  4  8  2  0
  4  5  1  0
  5 16  1  0
  5  6  1  0
  6  7  2  0
  7  8  1  0
  7 20  1  0
  8  9  1  0
  9 10  1  0
  9 21  1  0
 10 11  2  0
 10 12  1  0
 12 13  1  0
 12 22  1  0
 12 23  1  0
 13 14  1  0
 13 15  1  0
 13 24  1  0
 14 25  1  0
 14 26  1  0
 14 27  1  0
 15 28  1  0
 15 29  1  0
 15 30  1  0
M  END
>  <i_m_ct_stereo_status>  (140) 
1

>  <s_m_source_file>  (140) 
/var/tmp/pbs.5076255.sched01/tmp7rtc4ovb/41r77q45k8.sdf

>  <i_m_source_file_index>  (140) 
26

>  <i_lp_mmshare_version>  (140) 
48012

>  <i_f3d_flags>  (140) 
0

>  <s_epik_input>  (140) 
W0NIM11DKD1PKWMxW25IXW5bY0hdYzFbTkhdQyg9TylbQ0gyXVtDSF0oW0NIM10pW0NIM10=

>  <s_epik_cmdline>  (140) 
J2VwaWtfcHl0aG9uJywgJy1waHQnLCAnMi4wJywgJy1waCcsICc3LjAnLCAnLXRuJywgJzgnLCAnLW1hJywgJzIwMCcsICctaW1hZScsICc8aW5maWxlLm1hZT4nLCAnLW9tYWUnLCAnPG91dGZpbGUubWFlPic=

>  <r_lp_tautomer_probability>  (140) 
1

>  <r_epik_Ionization_Penalty>  (140) 
2.2053e-05

>  <r_epik_Ionization_Penalty_Charging>  (140) 
0

>  <r_epik_Ionization_Penalty_Neutral>  (140) 
2.2053e-05

>  <r_epik_State_Penalty>  (140) 
-0

>  <r_epik_Charging_Adjusted_Penalty>  (140) 
0

>  <i_epik_Tot_Q>  (140) 
0

>  <i_epik_Tot_abs_Q>  (140) 
0

>  <s_lp_Force_Field>  (140) 
OPLS3e

>  <r_lp_Energy>  (140) 
8.11075

>  <b_lp_Chiralities_Consistent>  (140) 
1

>  <s_lp_Variant>  (140) 
39:0-1

>  <s_i_glide_gridfile>  (140) 
pfpi4k_grid

>  <i_i_glide_lignum>  (140) 
26

>  <i_i_glide_rotatable_bonds>  (140) 
5

>  <r_i_docking_score>  (140) 
-3.68159

>  <r_i_glide_ligand_efficiency>  (140) 
-0.245439

>  <r_i_glide_ligand_efficiency_sa>  (140) 
-0.605305

>  <r_i_glide_ligand_efficiency_ln>  (140) 
-0.992863

>  <r_i_glide_gscore>  (140) 
-3.68159

>  <r_i_glide_lipo>  (140) 
-0.0473519

>  <r_i_glide_hbond>  (140) 
-0.278443

>  <r_i_glide_metal>  (140) 
-0

>  <r_i_glide_rewards>  (140) 
-2.48242

>  <r_i_glide_evdw>  (140) 
-16.1759

>  <r_i_glide_ecoul>  (140) 
-6.9423

>  <r_i_glide_erotb>  (140) 
1.13587

>  <r_i_glide_esite>  (140) 
-0.159103

>  <r_i_glide_emodel>  (140) 
-33.6752

>  <r_i_glide_energy>  (140) 
-23.1182

>  <r_i_glide_einternal>  (140) 
2.06498

>  <r_i_glide_intrahb_reward>  (140) 
-0.5

>  <i_i_glide_confnum>  (140) 
1

>  <i_i_glide_posenum>  (140) 
30

>  <r_i_glide_eff_state_penalty>  (140) 
0

>  <ligand_id>  (140) 
39

>  <original_smiles>  (140) 
CC(=O)c1[nH]ncc1NC(=O)CC(C)C

>  <smiles>  (140) 
[H]c1nn([H])c(C(=O)C([H])([H])[H])c1N([H])C(=O)C([H])([H])C([H])(C([H])([H])[H])C([H])([H])[H]

$$$$
39:0:1
     RDKit          3D

 30 30  0  0  1  0  0  0  0  0999 V2000
    1.9166    4.9979    3.2200 C   0  0  0  0  0  0  0  0  0  0  0  0
    0.9045    4.7554    4.3412 C   0  0  0  0  0  0  0  0  0  0  0  0
    0.8467    5.5318    5.2935 O   0  0  0  0  0  0  0  0  0  0  0  0
    0.0528    3.5750    4.2415 C   0  0  0  0  0  0  0  0  0  0  0  0
   -0.1576    2.8931    3.0674 N   0  0  0  0  0  0  0  0  0  0  0  0
   -0.9961    1.8458    3.2235 N   0  0  0  0  0  0  0  0  0  0  0  0
   -1.3161    1.8651    4.5123 C   0  0  0  0  0  0  0  0  0  0  0  0
   -0.6880    2.9435    5.2078 C   0  0  0  0  0  0  0  0  0  0  0  0
   -0.8041    3.2804    6.5911 N   0  0  0  0  0  0  0  0  0  0  0  0
   -1.5282    2.6378    7.5238 C   0  0  0  0  0  0  0  0  0  0  0  0
   -2.1166    1.5675    7.3282 O   0  0  0  0  0  0  0  0  0  0  0  0
   -1.5763    3.3005    8.9066 C   0  0  0  0  0  0  0  0  0  0  0  0
   -2.8729    3.0539    9.7090 C   0  0  0  0  0  0  0  0  0  0  0  0
   -4.1437    3.5035    8.9720 C   0  0  0  0  0  0  0  0  0  0  0  0
   -2.7922    3.7457   11.0755 C   0  0  0  0  0  0  0  0  0  0  0  0
    0.1581    3.1972    2.1477 H   0  0  0  0  0  0  0  0  0  0  0  0
    2.5900    4.1457    3.1469 H   0  0  0  0  0  0  0  0  0  0  0  0
    2.5085    5.8956    3.3815 H   0  0  0  0  0  0  0  0  0  0  0  0
    1.4204    5.1016    2.2600 H   0  0  0  0  0  0  0  0  0  0  0  0
   -1.9969    1.1087    4.8810 H   0  0  0  0  0  0  0  0  0  0  0  0
   -0.2897    4.0917    6.9045 H   0  0  0  0  0  0  0  0  0  0  0  0
   -0.7246    2.9210    9.4699 H   0  0  0  0  0  0  0  0  0  0  0  0
   -1.4259    4.3750    8.7932 H   0  0  0  0  0  0  0  0  0  0  0  0
   -2.9632    1.9889    9.9025 H   0  0  0  0  0  0  0  0  0  0  0  0
   -4.0928    4.5701    8.7505 H   0  0  0  0  0  0  0  0  0  0  0  0
   -5.0265    3.3452    9.5919 H   0  0  0  0  0  0  0  0  0  0  0  0
   -4.3021    2.9469    8.0460 H   0  0  0  0  0  0  0  0  0  0  0  0
   -2.6916    4.8248   10.9781 H   0  0  0  0  0  0  0  0  0  0  0  0
   -1.9400    3.3820   11.6525 H   0  0  0  0  0  0  0  0  0  0  0  0
   -3.6855    3.5425   11.6712 H   0  0  0  0  0  0  0  0  0  0  0  0
  1  2  1  0
  1 17  1  0
  1 18  1  0
  1 19  1  0
  2  3  2  0
  2  4  1  0
  4  8  2  0
  4  5  1  0
  5 16  1  0
  5  6  1  0
  6  7  2  0
  7  8  1  0
  7 20  1  0
  8  9  1  0
  9 10  1  0
  9 21  1  0
 10 11  2  0
 10 12  1  0
 12 13  1  0
 12 22  1  0
 12 23  1  0
 13 14  1  0
 13 15  1  0
 13 24  1  0
 14 25  1  0
 14 26  1  0
 14 27  1  0
 15 28  1  0
 15 29  1  0
 15 30  1  0
M  END
>  <i_m_ct_stereo_status>  (141) 
1

>  <s_m_source_file>  (141) 
/var/tmp/pbs.5076255.sched01/tmp7rtc4ovb/41r77q45k8.sdf

>  <i_m_source_file_index>  (141) 
26

>  <i_lp_mmshare_version>  (141) 
48012

>  <i_f3d_flags>  (141) 
0

>  <s_epik_input>  (141) 
W0NIM11DKD1PKWMxW25IXW5bY0hdYzFbTkhdQyg9TylbQ0gyXVtDSF0oW0NIM10pW0NIM10=

>  <s_epik_cmdline>  (141) 
J2VwaWtfcHl0aG9uJywgJy1waHQnLCAnMi4wJywgJy1waCcsICc3LjAnLCAnLXRuJywgJzgnLCAnLW1hJywgJzIwMCcsICctaW1hZScsICc8aW5maWxlLm1hZT4nLCAnLW9tYWUnLCAnPG91dGZpbGUubWFlPic=

>  <r_lp_tautomer_probability>  (141) 
1

>  <r_epik_Ionization_Penalty>  (141) 
2.2053e-05

>  <r_epik_Ionization_Penalty_Charging>  (141) 
0

>  <r_epik_Ionization_Penalty_Neutral>  (141) 
2.2053e-05

>  <r_epik_State_Penalty>  (141) 
-0

>  <r_epik_Charging_Adjusted_Penalty>  (141) 
0

>  <i_epik_Tot_Q>  (141) 
0

>  <i_epik_Tot_abs_Q>  (141) 
0

>  <s_lp_Force_Field>  (141) 
OPLS3e

>  <r_lp_Energy>  (141) 
8.11075

>  <b_lp_Chiralities_Consistent>  (141) 
1

>  <s_lp_Variant>  (141) 
39:0-1

>  <s_i_glide_gridfile>  (141) 
pfpi4k_grid

>  <i_i_glide_lignum>  (141) 
26

>  <i_i_glide_rotatable_bonds>  (141) 
5

>  <r_i_docking_score>  (141) 
-3.50585

>  <r_i_glide_ligand_efficiency>  (141) 
-0.233723

>  <r_i_glide_ligand_efficiency_sa>  (141) 
-0.576411

>  <r_i_glide_ligand_efficiency_ln>  (141) 
-0.945469

>  <r_i_glide_gscore>  (141) 
-3.50585

>  <r_i_glide_lipo>  (141) 
-0.0678927

>  <r_i_glide_hbond>  (141) 
-0.222347

>  <r_i_glide_metal>  (141) 
-0

>  <r_i_glide_rewards>  (141) 
-2.49924

>  <r_i_glide_evdw>  (141) 
-16.3601

>  <r_i_glide_ecoul>  (141) 
-6.02617

>  <r_i_glide_erotb>  (141) 
1.13587

>  <r_i_glide_esite>  (141) 
-0.130315

>  <r_i_glide_emodel>  (141) 
-32.2355

>  <r_i_glide_energy>  (141) 
-22.3863

>  <r_i_glide_einternal>  (141) 
2.55225

>  <r_i_glide_intrahb_reward>  (141) 
-0.5

>  <i_i_glide_confnum>  (141) 
1

>  <i_i_glide_posenum>  (141) 
5

>  <r_i_glide_eff_state_penalty>  (141) 
0

>  <ligand_id>  (141) 
39

>  <original_smiles>  (141) 
CC(=O)c1[nH]ncc1NC(=O)CC(C)C

>  <smiles>  (141) 
[H]c1nn([H])c(C(=O)C([H])([H])[H])c1N([H])C(=O)C([H])([H])C([H])(C([H])([H])[H])C([H])([H])[H]

$$$$
39:0:2
     RDKit          3D

 30 30  0  0  1  0  0  0  0  0999 V2000
    2.3794    3.3346    2.6208 C   0  0  0  0  0  0  0  0  0  0  0  0
    1.4468    3.3703    3.8337 C   0  0  0  0  0  0  0  0  0  0  0  0
    1.6471    4.1800    4.7374 O   0  0  0  0  0  0  0  0  0  0  0  0
    0.3608    2.3894    3.8737 C   0  0  0  0  0  0  0  0  0  0  0  0
    0.0417    1.5764    2.8106 N   0  0  0  0  0  0  0  0  0  0  0  0
   -0.9808    0.7415    3.0944 N   0  0  0  0  0  0  0  0  0  0  0  0
   -1.3220    1.0428    4.3406 C   0  0  0  0  0  0  0  0  0  0  0  0
   -0.5039    2.0737    4.8899 C   0  0  0  0  0  0  0  0  0  0  0  0
   -0.5789    2.6464    6.1975 N   0  0  0  0  0  0  0  0  0  0  0  0
   -1.3580    2.2322    7.2160 C   0  0  0  0  0  0  0  0  0  0  0  0
   -2.0580    1.2190    7.1836 O   0  0  0  0  0  0  0  0  0  0  0  0
   -1.3025    3.0892    8.4895 C   0  0  0  0  0  0  0  0  0  0  0  0
   -2.5148    2.9429    9.4412 C   0  0  0  0  0  0  0  0  0  0  0  0
   -3.8366    3.4116    8.8095 C   0  0  0  0  0  0  0  0  0  0  0  0
   -2.2655    3.6934   10.7576 C   0  0  0  0  0  0  0  0  0  0  0  0
    0.4713    1.5965    1.8965 H   0  0  0  0  0  0  0  0  0  0  0  0
    2.8603    2.3603    2.5465 H   0  0  0  0  0  0  0  0  0  0  0  0
    3.1555    4.0963    2.6781 H   0  0  0  0  0  0  0  0  0  0  0  0
    1.8192    3.4916    1.6976 H   0  0  0  0  0  0  0  0  0  0  0  0
   -2.1501    0.5085    4.7810 H   0  0  0  0  0  0  0  0  0  0  0  0
    0.0234    3.4354    6.3787 H   0  0  0  0  0  0  0  0  0  0  0  0
   -0.3940    2.8042    9.0192 H   0  0  0  0  0  0  0  0  0  0  0  0
   -1.1870    4.1373    8.2128 H   0  0  0  0  0  0  0  0  0  0  0  0
   -2.6286    1.8928    9.7038 H   0  0  0  0  0  0  0  0  0  0  0  0
   -3.7715    4.4545    8.4977 H   0  0  0  0  0  0  0  0  0  0  0  0
   -4.6636    3.3290    9.5165 H   0  0  0  0  0  0  0  0  0  0  0  0
   -4.1035    2.8166    7.9370 H   0  0  0  0  0  0  0  0  0  0  0  0
   -2.1381    4.7641   10.5956 H   0  0  0  0  0  0  0  0  0  0  0  0
   -1.3725    3.3205   11.2605 H   0  0  0  0  0  0  0  0  0  0  0  0
   -3.0995    3.5618   11.4494 H   0  0  0  0  0  0  0  0  0  0  0  0
  1  2  1  0
  1 17  1  0
  1 18  1  0
  1 19  1  0
  2  3  2  0
  2  4  1  0
  4  8  2  0
  4  5  1  0
  5 16  1  0
  5  6  1  0
  6  7  2  0
  7  8  1  0
  7 20  1  0
  8  9  1  0
  9 10  1  0
  9 21  1  0
 10 11  2  0
 10 12  1  0
 12 13  1  0
 12 22  1  0
 12 23  1  0
 13 14  1  0
 13 15  1  0
 13 24  1  0
 14 25  1  0
 14 26  1  0
 14 27  1  0
 15 28  1  0
 15 29  1  0
 15 30  1  0
M  END
>  <i_m_ct_stereo_status>  (142) 
1

>  <s_m_source_file>  (142) 
/var/tmp/pbs.5076255.sched01/tmp7rtc4ovb/41r77q45k8.sdf

>  <i_m_source_file_index>  (142) 
26

>  <i_lp_mmshare_version>  (142) 
48012

>  <i_f3d_flags>  (142) 
0

>  <s_epik_input>  (142) 
W0NIM11DKD1PKWMxW25IXW5bY0hdYzFbTkhdQyg9TylbQ0gyXVtDSF0oW0NIM10pW0NIM10=

>  <s_epik_cmdline>  (142) 
J2VwaWtfcHl0aG9uJywgJy1waHQnLCAnMi4wJywgJy1waCcsICc3LjAnLCAnLXRuJywgJzgnLCAnLW1hJywgJzIwMCcsICctaW1hZScsICc8aW5maWxlLm1hZT4nLCAnLW9tYWUnLCAnPG91dGZpbGUubWFlPic=

>  <r_lp_tautomer_probability>  (142) 
1

>  <r_epik_Ionization_Penalty>  (142) 
2.2053e-05

>  <r_epik_Ionization_Penalty_Charging>  (142) 
0

>  <r_epik_Ionization_Penalty_Neutral>  (142) 
2.2053e-05

>  <r_epik_State_Penalty>  (142) 
-0

>  <r_epik_Charging_Adjusted_Penalty>  (142) 
0

>  <i_epik_Tot_Q>  (142) 
0

>  <i_epik_Tot_abs_Q>  (142) 
0

>  <s_lp_Force_Field>  (142) 
OPLS3e

>  <r_lp_Energy>  (142) 
8.11075

>  <b_lp_Chiralities_Consistent>  (142) 
1

>  <s_lp_Variant>  (142) 
39:0-1

>  <s_i_glide_gridfile>  (142) 
pfpi4k_grid

>  <i_i_glide_lignum>  (142) 
26

>  <i_i_glide_rotatable_bonds>  (142) 
5

>  <r_i_docking_score>  (142) 
-3.07902

>  <r_i_glide_ligand_efficiency>  (142) 
-0.205268

>  <r_i_glide_ligand_efficiency_sa>  (142) 
-0.506235

>  <r_i_glide_ligand_efficiency_ln>  (142) 
-0.830362

>  <r_i_glide_gscore>  (142) 
-3.07902

>  <r_i_glide_lipo>  (142) 
-0.0460867

>  <r_i_glide_hbond>  (142) 
-0.16

>  <r_i_glide_metal>  (142) 
-0

>  <r_i_glide_rewards>  (142) 
-2.48242

>  <r_i_glide_evdw>  (142) 
-17.4158

>  <r_i_glide_ecoul>  (142) 
-3.66792

>  <r_i_glide_erotb>  (142) 
1.13587

>  <r_i_glide_esite>  (142) 
-0.105413

>  <r_i_glide_emodel>  (142) 
-30.7688

>  <r_i_glide_energy>  (142) 
-21.0837

>  <r_i_glide_einternal>  (142) 
1.74995

>  <r_i_glide_intrahb_reward>  (142) 
-0.5

>  <i_i_glide_confnum>  (142) 
4

>  <i_i_glide_posenum>  (142) 
28

>  <r_i_glide_eff_state_penalty>  (142) 
0

>  <ligand_id>  (142) 
39

>  <original_smiles>  (142) 
CC(=O)c1[nH]ncc1NC(=O)CC(C)C

>  <smiles>  (142) 
[H]c1nn([H])c(C(=O)C([H])([H])[H])c1N([H])C(=O)C([H])([H])C([H])(C([H])([H])[H])C([H])([H])[H]

$$$$
40:0:0
     RDKit          3D

 45 48  0  0  1  0  0  0  0  0999 V2000
    2.0138   -5.3456    0.5374 C   0  0  0  0  0  0  0  0  0  0  0  0
    3.3838   -4.8433    0.0775 C   0  0  2  0  0  0  0  0  0  0  0  0
    4.3495   -4.9468    1.2482 C   0  0  0  0  0  0  0  0  0  0  0  0
    5.7457   -4.6564    0.7489 C   0  0  0  0  0  0  0  0  0  0  0  0
    5.8570   -3.1978    0.2997 C   0  0  1  0  0  0  0  0  0  0  0  0
    7.2446   -2.8891   -0.3262 C   0  0  0  0  0  0  0  0  0  0  0  0
    7.7088   -1.5383    0.2201 C   0  0  0  0  0  0  0  0  0  0  0  0
    8.4067   -3.8612   -0.0195 C   0  0  0  0  0  0  0  0  0  0  0  0
    6.9696   -2.8433   -1.8413 C   0  0  0  0  0  0  0  0  0  0  0  0
    5.5123   -3.2146   -2.0766 C   0  0  2  0  0  0  0  0  0  0  0  0
    5.0140   -2.6117   -3.2552 O   0  0  0  0  0  0  0  0  0  0  0  0
    4.0634   -1.5992   -3.0030 C   0  0  1  0  0  0  0  0  0  0  0  0
    3.9394   -0.7445   -4.2647 C   0  0  0  0  0  0  0  0  0  0  0  0
    2.6824   -2.1664   -2.7477 C   0  0  0  0  0  0  0  0  0  0  0  0
    2.5772   -3.4000   -1.8637 C   0  0  0  0  0  0  0  0  0  0  0  0
    3.3672   -3.4062   -0.5355 C   0  0  2  0  0  0  0  0  0  0  0  0
    4.7979   -2.8275   -0.7674 C   0  0  1  0  0  0  0  0  0  0  0  0
    4.6318   -1.4024   -0.6312 O   0  0  0  0  0  0  0  0  0  0  0  0
    4.5202   -0.6876   -2.0022 O   0  0  0  0  0  0  0  0  0  0  0  0
    1.6399   -4.6589    1.2969 H   0  0  0  0  0  0  0  0  0  0  0  0
    2.0604   -6.3363    0.9970 H   0  0  0  0  0  0  0  0  0  0  0  0
    1.3207   -5.3979   -0.3047 H   0  0  0  0  0  0  0  0  0  0  0  0
    3.7470   -5.5260   -0.6855 H   0  0  0  0  0  0  0  0  0  0  0  0
    4.0787   -4.2507    2.0444 H   0  0  0  0  0  0  0  0  0  0  0  0
    4.3183   -5.9570    1.6585 H   0  0  0  0  0  0  0  0  0  0  0  0
    6.4252   -4.8293    1.5781 H   0  0  0  0  0  0  0  0  0  0  0  0
    5.9993   -5.3502   -0.0596 H   0  0  0  0  0  0  0  0  0  0  0  0
    5.6925   -2.5739    1.1880 H   0  0  0  0  0  0  0  0  0  0  0  0
    8.6709   -1.2804   -0.2442 H   0  0  0  0  0  0  0  0  0  0  0  0
    7.8631   -1.5474    1.2696 H   0  0  0  0  0  0  0  0  0  0  0  0
    6.9682   -0.7374    0.0378 H   0  0  0  0  0  0  0  0  0  0  0  0
    9.3057   -3.4828   -0.5075 H   0  0  0  0  0  0  0  0  0  0  0  0
    8.2388   -4.8739   -0.3760 H   0  0  0  0  0  0  0  0  0  0  0  0
    8.6023   -3.9078    1.0502 H   0  0  0  0  0  0  0  0  0  0  0  0
    7.1315   -1.8506   -2.2303 H   0  0  0  0  0  0  0  0  0  0  0  0
    7.6280   -3.5038   -2.3831 H   0  0  0  0  0  0  0  0  0  0  0  0
    5.4212   -4.2871   -2.2130 H   0  0  0  0  0  0  0  0  0  0  0  0
    4.9179   -0.3034   -4.5356 H   0  0  0  0  0  0  0  0  0  0  0  0
    3.2691    0.1063   -4.1059 H   0  0  0  0  0  0  0  0  0  0  0  0
    3.5413   -1.3258   -5.1071 H   0  0  0  0  0  0  0  0  0  0  0  0
    2.1357   -1.3423   -2.3125 H   0  0  0  0  0  0  0  0  0  0  0  0
    2.2043   -2.4292   -3.6937 H   0  0  0  0  0  0  0  0  0  0  0  0
    1.5220   -3.6022   -1.6811 H   0  0  0  0  0  0  0  0  0  0  0  0
    2.9335   -4.2232   -2.4879 H   0  0  0  0  0  0  0  0  0  0  0  0
    2.8674   -2.7292    0.1666 H   0  0  0  0  0  0  0  0  0  0  0  0
  1  2  1  0
  1 20  1  0
  1 21  1  0
  1 22  1  0
  2 16  1  0
  2  3  1  0
  2 23  1  6
  3  4  1  0
  3 24  1  0
  3 25  1  0
  4  5  1  0
  4 26  1  0
  4 27  1  0
  5 17  1  0
  5  6  1  0
  5 28  1  1
  6  7  1  0
  6  8  1  0
  6  9  1  0
  7 29  1  0
  7 30  1  0
  7 31  1  0
  8 32  1  0
  8 33  1  0
  8 34  1  0
  9 10  1  0
  9 35  1  0
  9 36  1  0
 10 17  1  0
 10 11  1  0
 10 37  1  6
 11 12  1  0
 12 19  1  0
 12 13  1  6
 12 14  1  0
 13 38  1  0
 13 39  1  0
 13 40  1  0
 14 15  1  0
 14 41  1  0
 14 42  1  0
 15 16  1  0
 15 43  1  0
 15 44  1  0
 16 17  1  0
 16 45  1  1
 17 18  1  6
 18 19  1  0
M  END
>  <i_m_ct_stereo_status>  (143) 
1

>  <s_m_source_file>  (143) 
/var/tmp/pbs.5076255.sched01/tmp7rtc4ovb/41r77q45k8.sdf

>  <i_m_source_file_index>  (143) 
27

>  <i_lp_mmshare_version>  (143) 
48012

>  <i_f3d_flags>  (143) 
0

>  <s_epik_input>  (143) 
W0NAXTEyM1tDQEhdNFtDSDJdW0NIMl1bQ0BASF0oW0NIM10pW0NAQEhdMltDSDJdW0NIMl1bQ0BAXShbQ0gzXSkoT08zKU9bQ0BIXTFbQ0gyXUM0KFtDSDNdKVtDSDNd

>  <s_epik_cmdline>  (143) 
J2VwaWtfcHl0aG9uJywgJy1waHQnLCAnMi4wJywgJy1waCcsICc3LjAnLCAnLXRuJywgJzgnLCAnLW1hJywgJzIwMCcsICctaW1hZScsICc8aW5maWxlLm1hZT4nLCAnLW9tYWUnLCAnPG91dGZpbGUubWFlPic=

>  <r_lp_tautomer_probability>  (143) 
1

>  <r_epik_Ionization_Penalty>  (143) 
2.84166e-14

>  <r_epik_Ionization_Penalty_Charging>  (143) 
0

>  <r_epik_Ionization_Penalty_Neutral>  (143) 
2.84166e-14

>  <r_epik_State_Penalty>  (143) 
-0

>  <r_epik_Charging_Adjusted_Penalty>  (143) 
0

>  <i_epik_Tot_Q>  (143) 
0

>  <i_epik_Tot_abs_Q>  (143) 
0

>  <s_lp_Force_Field>  (143) 
OPLS3e

>  <r_lp_Energy>  (143) 
40.6146

>  <b_lp_Chiralities_Consistent>  (143) 
1

>  <s_lp_Variant>  (143) 
40:0-1

>  <s_i_glide_gridfile>  (143) 
pfpi4k_grid

>  <i_i_glide_lignum>  (143) 
27

>  <i_i_glide_rotatable_bonds>  (143) 
0

>  <r_i_docking_score>  (143) 
-3.55023

>  <r_i_glide_ligand_efficiency>  (143) 
-0.186854

>  <r_i_glide_ligand_efficiency_sa>  (143) 
-0.498602

>  <r_i_glide_ligand_efficiency_ln>  (143) 
-0.900059

>  <r_i_glide_gscore>  (143) 
-3.55023

>  <r_i_glide_lipo>  (143) 
-0.828131

>  <r_i_glide_hbond>  (143) 
0

>  <r_i_glide_metal>  (143) 
-0

>  <r_i_glide_rewards>  (143) 
-1.64273

>  <r_i_glide_evdw>  (143) 
-18.5868

>  <r_i_glide_ecoul>  (143) 
-1.00017

>  <r_i_glide_erotb>  (143) 
0

>  <r_i_glide_esite>  (143) 
0

>  <r_i_glide_emodel>  (143) 
-20.1571

>  <r_i_glide_energy>  (143) 
-19.5869

>  <r_i_glide_einternal>  (143) 
0

>  <r_i_glide_intrahb_reward>  (143) 
-0

>  <i_i_glide_confnum>  (143) 
2

>  <i_i_glide_posenum>  (143) 
17

>  <r_i_glide_eff_state_penalty>  (143) 
0

>  <ligand_id>  (143) 
40

>  <original_smiles>  (143) 
CC1CCC2C(C)(C)CC3OC4(C)CCC1C32OO4

>  <smiles>  (143) 
[H]C([H])([H])C12OOC34C([H])(O1)C([H])([H])C(C([H])([H])[H])(C([H])([H])[H])C3([H])C([H])([H])C([H])([H])C([H])(C([H])([H])[H])C4([H])C([H])([H])C2([H])[H]

$$$$
40:0:1
     RDKit          3D

 45 48  0  0  1  0  0  0  0  0999 V2000
    8.7303   -3.8588   -1.1448 C   0  0  0  0  0  0  0  0  0  0  0  0
    7.5770   -2.9742   -0.7017 C   0  0  2  0  0  0  0  0  0  0  0  0
    7.6592   -2.8816    0.7859 C   0  0  0  0  0  0  0  0  0  0  0  0
    6.6080   -1.8885    1.2853 C   0  0  0  0  0  0  0  0  0  0  0  0
    5.2159   -2.4604    1.1133 C   0  0  1  0  0  0  0  0  0  0  0  0
    4.1255   -1.4507    1.5471 C   0  0  0  0  0  0  0  0  0  0  0  0
    2.9748   -2.1742    2.2670 C   0  0  0  0  0  0  0  0  0  0  0  0
    4.5692   -0.3014    2.4860 C   0  0  0  0  0  0  0  0  0  0  0  0
    3.6692   -0.8749    0.2125 C   0  0  0  0  0  0  0  0  0  0  0  0
    4.5225   -1.4383   -0.9136 C   0  0  2  0  0  0  0  0  0  0  0  0
    3.8477   -1.5023   -2.1597 O   0  0  0  0  0  0  0  0  0  0  0  0
    3.4889   -2.8266   -2.5187 C   0  0  1  0  0  0  0  0  0  0  0  0
    2.3167   -2.7115   -3.4832 C   0  0  0  0  0  0  0  0  0  0  0  0
    4.6651   -3.5360   -3.2348 C   0  0  0  0  0  0  0  0  0  0  0  0
    6.0286   -3.2757   -2.6151 C   0  0  0  0  0  0  0  0  0  0  0  0
    6.1790   -3.4607   -1.1153 C   0  0  2  0  0  0  0  0  0  0  0  0
    4.9925   -2.7863   -0.3723 C   0  0  1  0  0  0  0  0  0  0  0  0
    3.9781   -3.7832   -0.3497 O   0  0  0  0  0  0  0  0  0  0  0  0
    2.9350   -3.5346   -1.4189 O   0  0  0  0  0  0  0  0  0  0  0  0
    8.6215   -4.8782   -0.7978 H   0  0  0  0  0  0  0  0  0  0  0  0
    9.6603   -3.4990   -0.7127 H   0  0  0  0  0  0  0  0  0  0  0  0
    8.8629   -3.8364   -2.2236 H   0  0  0  0  0  0  0  0  0  0  0  0
    7.7586   -1.9699   -1.0786 H   0  0  0  0  0  0  0  0  0  0  0  0
    7.5212   -3.8636    1.2467 H   0  0  0  0  0  0  0  0  0  0  0  0
    8.6799   -2.5628    1.0116 H   0  0  0  0  0  0  0  0  0  0  0  0
    6.7187   -1.7286    2.3532 H   0  0  0  0  0  0  0  0  0  0  0  0
    6.7607   -0.9155    0.8102 H   0  0  0  0  0  0  0  0  0  0  0  0
    5.1612   -3.3628    1.7253 H   0  0  0  0  0  0  0  0  0  0  0  0
    2.1593   -1.4837    2.4955 H   0  0  0  0  0  0  0  0  0  0  0  0
    3.3092   -2.6047    3.2111 H   0  0  0  0  0  0  0  0  0  0  0  0
    2.5597   -2.9783    1.6592 H   0  0  0  0  0  0  0  0  0  0  0  0
    3.7283    0.3530    2.7221 H   0  0  0  0  0  0  0  0  0  0  0  0
    5.3201    0.3265    2.0152 H   0  0  0  0  0  0  0  0  0  0  0  0
    4.9719   -0.6601    3.4339 H   0  0  0  0  0  0  0  0  0  0  0  0
    2.6563   -1.1911    0.0560 H   0  0  0  0  0  0  0  0  0  0  0  0
    3.6947    0.2031    0.2212 H   0  0  0  0  0  0  0  0  0  0  0  0
    5.3829   -0.7811   -1.0523 H   0  0  0  0  0  0  0  0  0  0  0  0
    1.4641   -2.2951   -2.9508 H   0  0  0  0  0  0  0  0  0  0  0  0
    2.0128   -3.6858   -3.8793 H   0  0  0  0  0  0  0  0  0  0  0  0
    2.5468   -2.0534   -4.3197 H   0  0  0  0  0  0  0  0  0  0  0  0
    4.5100   -4.6131   -3.3246 H   0  0  0  0  0  0  0  0  0  0  0  0
    4.7134   -3.1676   -4.2615 H   0  0  0  0  0  0  0  0  0  0  0  0
    6.7842   -3.8484   -3.1221 H   0  0  0  0  0  0  0  0  0  0  0  0
    6.2833   -2.2562   -2.8111 H   0  0  0  0  0  0  0  0  0  0  0  0
    6.1196   -4.5280   -0.8662 H   0  0  0  0  0  0  0  0  0  0  0  0
  1  2  1  0
  1 20  1  0
  1 21  1  0
  1 22  1  0
  2 16  1  0
  2  3  1  0
  2 23  1  6
  3  4  1  0
  3 24  1  0
  3 25  1  0
  4  5  1  0
  4 26  1  0
  4 27  1  0
  5 17  1  0
  5  6  1  0
  5 28  1  1
  6  7  1  0
  6  8  1  0
  6  9  1  0
  7 29  1  0
  7 30  1  0
  7 31  1  0
  8 32  1  0
  8 33  1  0
  8 34  1  0
  9 10  1  0
  9 35  1  0
  9 36  1  0
 10 17  1  0
 10 11  1  0
 10 37  1  6
 11 12  1  0
 12 19  1  0
 12 13  1  6
 12 14  1  0
 13 38  1  0
 13 39  1  0
 13 40  1  0
 14 15  1  0
 14 41  1  0
 14 42  1  0
 15 16  1  0
 15 43  1  0
 15 44  1  0
 16 17  1  0
 16 45  1  6
 17 18  1  1
 18 19  1  0
M  END
>  <i_m_ct_stereo_status>  (144) 
1

>  <s_m_source_file>  (144) 
/var/tmp/pbs.5076255.sched01/tmp7rtc4ovb/41r77q45k8.sdf

>  <i_m_source_file_index>  (144) 
27

>  <i_lp_mmshare_version>  (144) 
48012

>  <i_f3d_flags>  (144) 
0

>  <s_epik_input>  (144) 
W0NAXTEyM1tDQEhdNFtDSDJdW0NIMl1bQ0BASF0oW0NIM10pW0NAQEhdMltDSDJdW0NIMl1bQ0BAXShbQ0gzXSkoT08zKU9bQ0BIXTFbQ0gyXUM0KFtDSDNdKVtDSDNd

>  <s_epik_cmdline>  (144) 
J2VwaWtfcHl0aG9uJywgJy1waHQnLCAnMi4wJywgJy1waCcsICc3LjAnLCAnLXRuJywgJzgnLCAnLW1hJywgJzIwMCcsICctaW1hZScsICc8aW5maWxlLm1hZT4nLCAnLW9tYWUnLCAnPG91dGZpbGUubWFlPic=

>  <r_lp_tautomer_probability>  (144) 
1

>  <r_epik_Ionization_Penalty>  (144) 
2.84166e-14

>  <r_epik_Ionization_Penalty_Charging>  (144) 
0

>  <r_epik_Ionization_Penalty_Neutral>  (144) 
2.84166e-14

>  <r_epik_State_Penalty>  (144) 
-0

>  <r_epik_Charging_Adjusted_Penalty>  (144) 
0

>  <i_epik_Tot_Q>  (144) 
0

>  <i_epik_Tot_abs_Q>  (144) 
0

>  <s_lp_Force_Field>  (144) 
OPLS3e

>  <r_lp_Energy>  (144) 
40.6146

>  <b_lp_Chiralities_Consistent>  (144) 
1

>  <s_lp_Variant>  (144) 
40:0-1

>  <s_i_glide_gridfile>  (144) 
pfpi4k_grid

>  <i_i_glide_lignum>  (144) 
27

>  <i_i_glide_rotatable_bonds>  (144) 
0

>  <r_i_docking_score>  (144) 
-3.4528

>  <r_i_glide_ligand_efficiency>  (144) 
-0.181726

>  <r_i_glide_ligand_efficiency_sa>  (144) 
-0.484919

>  <r_i_glide_ligand_efficiency_ln>  (144) 
-0.875359

>  <r_i_glide_gscore>  (144) 
-3.4528

>  <r_i_glide_lipo>  (144) 
-1.14136

>  <r_i_glide_hbond>  (144) 
0

>  <r_i_glide_metal>  (144) 
-0

>  <r_i_glide_rewards>  (144) 
-1.59289

>  <r_i_glide_evdw>  (144) 
-17.7361

>  <r_i_glide_ecoul>  (144) 
1.29206

>  <r_i_glide_erotb>  (144) 
0

>  <r_i_glide_esite>  (144) 
-0.0255519

>  <r_i_glide_emodel>  (144) 
-16.5275

>  <r_i_glide_energy>  (144) 
-16.444

>  <r_i_glide_einternal>  (144) 
0

>  <r_i_glide_intrahb_reward>  (144) 
-0

>  <i_i_glide_confnum>  (144) 
1

>  <i_i_glide_posenum>  (144) 
3

>  <r_i_glide_eff_state_penalty>  (144) 
0

>  <ligand_id>  (144) 
40

>  <original_smiles>  (144) 
CC1CCC2C(C)(C)CC3OC4(C)CCC1C32OO4

>  <smiles>  (144) 
[H]C([H])([H])C12OOC34C([H])(O1)C([H])([H])C(C([H])([H])[H])(C([H])([H])[H])C3([H])C([H])([H])C([H])([H])C([H])(C([H])([H])[H])C4([H])C([H])([H])C2([H])[H]

$$$$
40:0:2
     RDKit          3D

 45 48  0  0  1  0  0  0  0  0999 V2000
    2.3182   -4.8048    1.7260 C   0  0  0  0  0  0  0  0  0  0  0  0
    3.6846   -4.5208    1.0913 C   0  0  2  0  0  0  0  0  0  0  0  0
    4.7405   -4.4708    2.1881 C   0  0  0  0  0  0  0  0  0  0  0  0
    6.1082   -4.3660    1.5520 C   0  0  0  0  0  0  0  0  0  0  0  0
    6.2486   -3.0232    0.8082 C   0  0  1  0  0  0  0  0  0  0  0  0
    7.5860   -2.9093    0.0481 C   0  0  0  0  0  0  0  0  0  0  0  0
    8.1437   -1.5380    0.2713 C   0  0  0  0  0  0  0  0  0  0  0  0
    8.7054   -3.8874    0.4336 C   0  0  0  0  0  0  0  0  0  0  0  0
    7.2218   -3.0339   -1.4489 C   0  0  0  0  0  0  0  0  0  0  0  0
    5.7435   -3.4291   -1.5097 C   0  0  2  0  0  0  0  0  0  0  0  0
    5.1850   -3.0516   -2.7423 O   0  0  0  0  0  0  0  0  0  0  0  0
    4.2811   -1.9696   -2.6204 C   0  0  1  0  0  0  0  0  0  0  0  0
    4.0644   -1.3585   -3.9920 C   0  0  0  0  0  0  0  0  0  0  0  0
    2.9060   -2.4462   -2.1950 C   0  0  0  0  0  0  0  0  0  0  0  0
    2.8289   -3.4321   -1.0336 C   0  0  0  0  0  0  0  0  0  0  0  0
    3.7112   -3.2306    0.2067 C   0  0  2  0  0  0  0  0  0  0  0  0
    5.1309   -2.7935   -0.2419 C   0  0  1  0  0  0  0  0  0  0  0  0
    5.0414   -1.3695   -0.3643 O   0  0  0  0  0  0  0  0  0  0  0  0
    4.8175   -0.9279   -1.8166 O   0  0  0  0  0  0  0  0  0  0  0  0
    1.9553   -3.9377    2.2806 H   0  0  0  0  0  0  0  0  0  0  0  0
    2.3631   -5.6470    2.4197 H   0  0  0  0  0  0  0  0  0  0  0  0
    1.5880   -5.0710    0.9662 H   0  0  0  0  0  0  0  0  0  0  0  0
    3.9205   -5.3874    0.4703 H   0  0  0  0  0  0  0  0  0  0  0  0
    4.5668   -3.6208    2.8499 H   0  0  0  0  0  0  0  0  0  0  0  0
    4.7029   -5.3741    2.8009 H   0  0  0  0  0  0  0  0  0  0  0  0
    6.8391   -4.4273    2.3516 H   0  0  0  0  0  0  0  0  0  0  0  0
    6.2777   -5.2091    0.8850 H   0  0  0  0  0  0  0  0  0  0  0  0
    6.1914   -2.2380    1.5692 H   0  0  0  0  0  0  0  0  0  0  0  0
    8.9943   -1.3783   -0.3727 H   0  0  0  0  0  0  0  0  0  0  0  0
    8.5017   -1.2958    1.2721 H   0  0  0  0  0  0  0  0  0  0  0  0
    7.3862   -0.7715    0.1075 H   0  0  0  0  0  0  0  0  0  0  0  0
    9.5933   -3.6530   -0.1503 H   0  0  0  0  0  0  0  0  0  0  0  0
    8.4533   -4.9311    0.2397 H   0  0  0  0  0  0  0  0  0  0  0  0
    8.9822   -3.7952    1.4872 H   0  0  0  0  0  0  0  0  0  0  0  0
    7.3713   -2.1083   -1.9859 H   0  0  0  0  0  0  0  0  0  0  0  0
    7.8801   -3.7266   -1.9852 H   0  0  0  0  0  0  0  0  0  0  0  0
    5.6533   -4.5140   -1.3947 H   0  0  0  0  0  0  0  0  0  0  0  0
    4.9774   -0.9921   -4.4212 H   0  0  0  0  0  0  0  0  0  0  0  0
    3.3642   -0.5124   -3.9586 H   0  0  0  0  0  0  0  0  0  0  0  0
    3.6660   -2.1044   -4.6891 H   0  0  0  0  0  0  0  0  0  0  0  0
    2.3215   -1.5505   -2.0363 H   0  0  0  0  0  0  0  0  0  0  0  0
    2.3971   -2.9375   -3.0384 H   0  0  0  0  0  0  0  0  0  0  0  0
    1.7846   -3.5732   -0.7555 H   0  0  0  0  0  0  0  0  0  0  0  0
    3.1682   -4.3632   -1.4522 H   0  0  0  0  0  0  0  0  0  0  0  0
    3.2925   -2.4193    0.8020 H   0  0  0  0  0  0  0  0  0  0  0  0
  1  2  1  0
  1 20  1  0
  1 21  1  0
  1 22  1  0
  2 16  1  0
  2  3  1  0
  2 23  1  6
  3  4  1  0
  3 24  1  0
  3 25  1  0
  4  5  1  0
  4 26  1  0
  4 27  1  0
  5 17  1  0
  5  6  1  0
  5 28  1  1
  6  7  1  0
  6  8  1  0
  6  9  1  0
  7 29  1  0
  7 30  1  0
  7 31  1  0
  8 32  1  0
  8 33  1  0
  8 34  1  0
  9 10  1  0
  9 35  1  0
  9 36  1  0
 10 17  1  0
 10 11  1  0
 10 37  1  1
 11 12  1  0
 12 19  1  0
 12 13  1  6
 12 14  1  0
 13 38  1  0
 13 39  1  0
 13 40  1  0
 14 15  1  0
 14 41  1  0
 14 42  1  0
 15 16  1  0
 15 43  1  0
 15 44  1  0
 16 17  1  0
 16 45  1  1
 17 18  1  6
 18 19  1  0
M  END
>  <i_m_ct_stereo_status>  (145) 
1

>  <s_m_source_file>  (145) 
/var/tmp/pbs.5076255.sched01/tmp7rtc4ovb/41r77q45k8.sdf

>  <i_m_source_file_index>  (145) 
27

>  <i_lp_mmshare_version>  (145) 
48012

>  <i_f3d_flags>  (145) 
0

>  <s_epik_input>  (145) 
W0NAXTEyM1tDQEhdNFtDSDJdW0NIMl1bQ0BASF0oW0NIM10pW0NAQEhdMltDSDJdW0NIMl1bQ0BAXShbQ0gzXSkoT08zKU9bQ0BIXTFbQ0gyXUM0KFtDSDNdKVtDSDNd

>  <s_epik_cmdline>  (145) 
J2VwaWtfcHl0aG9uJywgJy1waHQnLCAnMi4wJywgJy1waCcsICc3LjAnLCAnLXRuJywgJzgnLCAnLW1hJywgJzIwMCcsICctaW1hZScsICc8aW5maWxlLm1hZT4nLCAnLW9tYWUnLCAnPG91dGZpbGUubWFlPic=

>  <r_lp_tautomer_probability>  (145) 
1

>  <r_epik_Ionization_Penalty>  (145) 
2.84166e-14

>  <r_epik_Ionization_Penalty_Charging>  (145) 
0

>  <r_epik_Ionization_Penalty_Neutral>  (145) 
2.84166e-14

>  <r_epik_State_Penalty>  (145) 
-0

>  <r_epik_Charging_Adjusted_Penalty>  (145) 
0

>  <i_epik_Tot_Q>  (145) 
0

>  <i_epik_Tot_abs_Q>  (145) 
0

>  <s_lp_Force_Field>  (145) 
OPLS3e

>  <r_lp_Energy>  (145) 
40.6146

>  <b_lp_Chiralities_Consistent>  (145) 
1

>  <s_lp_Variant>  (145) 
40:0-1

>  <s_i_glide_gridfile>  (145) 
pfpi4k_grid

>  <i_i_glide_lignum>  (145) 
27

>  <i_i_glide_rotatable_bonds>  (145) 
0

>  <r_i_docking_score>  (145) 
-3.26774

>  <r_i_glide_ligand_efficiency>  (145) 
-0.171986

>  <r_i_glide_ligand_efficiency_sa>  (145) 
-0.458928

>  <r_i_glide_ligand_efficiency_ln>  (145) 
-0.828441

>  <r_i_glide_gscore>  (145) 
-3.26774

>  <r_i_glide_lipo>  (145) 
-0.60459

>  <r_i_glide_hbond>  (145) 
0

>  <r_i_glide_metal>  (145) 
-0

>  <r_i_glide_rewards>  (145) 
-1.62633

>  <r_i_glide_evdw>  (145) 
-21.4407

>  <r_i_glide_ecoul>  (145) 
0.234823

>  <r_i_glide_erotb>  (145) 
0

>  <r_i_glide_esite>  (145) 
0

>  <r_i_glide_emodel>  (145) 
-21.8649

>  <r_i_glide_energy>  (145) 
-21.2059

>  <r_i_glide_einternal>  (145) 
0

>  <r_i_glide_intrahb_reward>  (145) 
-0

>  <i_i_glide_confnum>  (145) 
1

>  <i_i_glide_posenum>  (145) 
1

>  <r_i_glide_eff_state_penalty>  (145) 
0

>  <ligand_id>  (145) 
40

>  <original_smiles>  (145) 
CC1CCC2C(C)(C)CC3OC4(C)CCC1C32OO4

>  <smiles>  (145) 
[H]C([H])([H])C12OOC34C([H])(O1)C([H])([H])C(C([H])([H])[H])(C([H])([H])[H])C3([H])C([H])([H])C([H])([H])C([H])(C([H])([H])[H])C4([H])C([H])([H])C2([H])[H]

$$$$
41:0:0
     RDKit          3D

 56 62  0  0  1  0  0  0  0  0999 V2000
    8.1645   -2.9263   -0.5154 O   0  0  0  0  0  0  0  0  0  0  0  0
    7.0326   -2.6453   -0.1334 C   0  0  0  0  0  0  0  0  0  0  0  0
    6.1647   -1.5655   -0.7585 C   0  0  0  0  0  0  0  0  0  0  0  0
    4.6345   -1.9244   -0.6320 C   0  0  1  0  0  0  0  0  0  0  0  0
    4.0030   -1.3073   -1.8953 C   0  0  0  0  0  0  0  0  0  0  0  0
    4.3990   -2.3019   -3.0250 C   0  0  0  0  0  0  0  0  0  0  0  0
    4.9579   -3.5805   -2.3354 C   0  0  0  0  0  0  0  0  0  0  0  0
    4.4396   -3.4246   -0.8782 C   0  0  2  0  0  0  0  0  0  0  0  0
    3.1072   -3.8560   -1.1300 O   0  0  0  0  0  0  0  0  0  0  0  0
    5.0218   -4.1053    0.4256 C   0  0  2  0  0  0  0  0  0  0  0  0
    5.3671   -5.5712    0.1060 C   0  0  0  0  0  0  0  0  0  0  0  0
    4.7856   -6.3915    1.2469 C   0  0  0  0  0  0  0  0  0  0  0  0
    3.5682   -5.6678    1.6553 N   0  0  1  0  0  0  0  0  0  0  0  0
    3.0424   -6.1190    2.9698 C   0  0  0  0  0  0  0  0  0  0  0  0
    2.5116   -7.5466    2.9306 C   0  0  0  0  0  0  0  0  0  0  0  0
    2.1462   -8.2589    4.2195 C   0  0  0  0  0  0  0  0  0  0  0  0
    3.3509   -8.7026    3.4347 C   0  0  0  0  0  0  0  0  0  0  0  0
    3.9092   -4.2221    1.5517 C   0  0  2  0  0  0  0  0  0  0  0  0
    2.6294   -3.2712    1.5005 C   0  0  0  0  0  0  0  0  0  0  0  0
    2.8029   -1.7539    1.2186 C   0  0  0  0  0  0  0  0  0  0  0  0
    2.3732   -0.9019    2.2646 C   0  0  0  0  0  0  0  0  0  0  0  0
    3.3316   -0.2487    3.0632 C   0  0  0  0  0  0  0  0  0  0  0  0
    4.6840   -0.5984    2.9117 C   0  0  0  0  0  0  0  0  0  0  0  0
    5.5822   -0.2371    3.8692 O   0  0  0  0  0  0  0  0  0  0  0  0
    5.0852   -1.4134    1.8309 C   0  0  0  0  0  0  0  0  0  0  0  0
    4.1277   -1.5461    0.7984 C   0  0  0  0  0  0  0  0  0  0  0  0
    6.1677   -2.2517    1.9440 O   0  0  0  0  0  0  0  0  0  0  0  0
    6.3195   -3.3333    0.9969 C   0  0  2  0  0  0  0  0  0  0  0  0
    6.3887   -0.5973   -0.3107 H   0  0  0  0  0  0  0  0  0  0  0  0
    6.4720   -1.4917   -1.7991 H   0  0  0  0  0  0  0  0  0  0  0  0
    2.9176   -1.2729   -1.8167 H   0  0  0  0  0  0  0  0  0  0  0  0
    4.3443   -0.2907   -2.1012 H   0  0  0  0  0  0  0  0  0  0  0  0
    3.5312   -2.5334   -3.6399 H   0  0  0  0  0  0  0  0  0  0  0  0
    5.1362   -1.8765   -3.6984 H   0  0  0  0  0  0  0  0  0  0  0  0
    4.6193   -4.4890   -2.8357 H   0  0  0  0  0  0  0  0  0  0  0  0
    6.0440   -3.6055   -2.4166 H   0  0  0  0  0  0  0  0  0  0  0  0
    3.1291   -4.6710   -1.6332 H   0  0  0  0  0  0  0  0  0  0  0  0
    4.8876   -5.8901   -0.8204 H   0  0  0  0  0  0  0  0  0  0  0  0
    6.4367   -5.7478   -0.0026 H   0  0  0  0  0  0  0  0  0  0  0  0
    4.5842   -7.4219    0.9481 H   0  0  0  0  0  0  0  0  0  0  0  0
    5.5030   -6.4156    2.0670 H   0  0  0  0  0  0  0  0  0  0  0  0
    3.8115   -6.0453    3.7402 H   0  0  0  0  0  0  0  0  0  0  0  0
    2.2174   -5.4847    3.2897 H   0  0  0  0  0  0  0  0  0  0  0  0
    1.8323   -7.7548    2.1016 H   0  0  0  0  0  0  0  0  0  0  0  0
    2.3225   -7.7511    5.1669 H   0  0  0  0  0  0  0  0  0  0  0  0
    1.2950   -8.9383    4.2151 H   0  0  0  0  0  0  0  0  0  0  0  0
    3.2767   -9.6458    2.8948 H   0  0  0  0  0  0  0  0  0  0  0  0
    4.3355   -8.4718    3.8391 H   0  0  0  0  0  0  0  0  0  0  0  0
    4.4151   -3.9875    2.4877 H   0  0  0  0  0  0  0  0  0  0  0  0
    1.8590   -3.6522    0.8324 H   0  0  0  0  0  0  0  0  0  0  0  0
    2.1469   -3.3431    2.4762 H   0  0  0  0  0  0  0  0  0  0  0  0
    1.3524   -0.9340    2.6202 H   0  0  0  0  0  0  0  0  0  0  0  0
    3.0227    0.3289    3.9179 H   0  0  0  0  0  0  0  0  0  0  0  0
    6.4573   -0.5252    3.6680 H   0  0  0  0  0  0  0  0  0  0  0  0
    6.9928   -4.0552    1.4627 H   0  0  0  0  0  0  0  0  0  0  0  0
    2.8772   -5.8557    0.9423 H   0  0  0  0  0  0  0  0  0  0  0  0
  1  2  2  0
  2 28  1  0
  2  3  1  0
  3  4  1  0
  3 29  1  0
  3 30  1  0
  4  8  1  0
  4 26  1  0
  4  5  1  6
  5  6  1  0
  5 31  1  0
  5 32  1  0
  6  7  1  0
  6 33  1  0
  6 34  1  0
  7  8  1  0
  7 35  1  0
  7 36  1  0
  8  9  1  6
  8 10  1  0
  9 37  1  0
 10 18  1  0
 10 28  1  0
 10 11  1  6
 11 12  1  0
 11 38  1  0
 11 39  1  0
 12 13  1  0
 12 40  1  0
 12 41  1  0
 13 14  1  0
 13 18  1  0
 13 56  1  6
 14 15  1  0
 14 42  1  0
 14 43  1  0
 15 17  1  0
 15 16  1  0
 15 44  1  0
 16 17  1  0
 16 45  1  0
 16 46  1  0
 17 47  1  0
 17 48  1  0
 18 19  1  0
 18 49  1  1
 19 20  1  0
 19 50  1  0
 19 51  1  0
 20 26  2  0
 20 21  1  0
 21 22  2  0
 21 52  1  0
 22 23  1  0
 22 53  1  0
 23 24  1  0
 23 25  2  0
 24 54  1  0
 25 26  1  0
 25 27  1  0
 27 28  1  0
 28 55  1  1
M  CHG  1  13   1
M  END
>  <i_m_ct_stereo_status>  (146) 
1

>  <s_m_source_file>  (146) 
/var/tmp/pbs.5076255.sched01/tmp7rtc4ovb/41r77q45k8.sdf

>  <i_m_source_file_index>  (146) 
28

>  <i_lp_mmshare_version>  (146) 
48012

>  <i_f3d_flags>  (146) 
0

>  <s_epik_input>  (146) 
Tz1DKFtDSDJdMSlbQ0BIXTJPYyhjKFtPSF0pW2NIXVtjSF0zKWM0YzNbQ0gyXVtDQEhdKFtDQEBdMjVbQ0BdKFtDQF0xNDYpKFtPSF0pW0NIMl1bQ0gyXVtDSDJdNilOKFtDSDJdW0NIMl01KVtDSDJdW0NIXTdbQ0gyXVtDSDJdNw==

>  <s_epik_cmdline>  (146) 
J2VwaWtfcHl0aG9uJywgJy1waHQnLCAnMi4wJywgJy1waCcsICc3LjAnLCAnLXRuJywgJzgnLCAnLW1hJywgJzIwMCcsICctaW1hZScsICc8aW5maWxlLm1hZT4nLCAnLW9tYWUnLCAnPG91dGZpbGUubWFlPic=

>  <r_lp_tautomer_probability>  (146) 
1

>  <r_epik_Ionization_Penalty>  (146) 
0.004118

>  <r_epik_Ionization_Penalty_Charging>  (146) 
0.0027708

>  <r_epik_Ionization_Penalty_Neutral>  (146) 
0.0013472

>  <r_epik_State_Penalty>  (146) 
-0

>  <r_epik_Charging_Adjusted_Penalty>  (146) 
0.0027708

>  <i_epik_Tot_Q>  (146) 
1

>  <i_epik_Tot_abs_Q>  (146) 
1

>  <s_lp_Force_Field>  (146) 
OPLS3e

>  <r_lp_Energy>  (146) 
160.54

>  <b_lp_Chiralities_Consistent>  (146) 
1

>  <s_lp_Variant>  (146) 
41:0-1

>  <s_i_glide_gridfile>  (146) 
pfpi4k_grid

>  <i_i_glide_lignum>  (146) 
28

>  <i_i_glide_rotatable_bonds>  (146) 
4

>  <r_i_docking_score>  (146) 
-3.76831

>  <r_i_glide_ligand_efficiency>  (146) 
-0.134583

>  <r_i_glide_ligand_efficiency_sa>  (146) 
-0.408672

>  <r_i_glide_ligand_efficiency_ln>  (146) 
-0.869838

>  <r_i_glide_gscore>  (146) 
-3.76831

>  <r_i_glide_lipo>  (146) 
-0.687633

>  <r_i_glide_hbond>  (146) 
-0.32

>  <r_i_glide_metal>  (146) 
-0

>  <r_i_glide_rewards>  (146) 
-0.840788

>  <r_i_glide_evdw>  (146) 
-28.7129

>  <r_i_glide_ecoul>  (146) 
-4.99856

>  <r_i_glide_erotb>  (146) 
0.265536

>  <r_i_glide_esite>  (146) 
0

>  <r_i_glide_emodel>  (146) 
-41.2978

>  <r_i_glide_energy>  (146) 
-33.7115

>  <r_i_glide_einternal>  (146) 
0.331269

>  <r_i_glide_intrahb_reward>  (146) 
-0

>  <i_i_glide_confnum>  (146) 
2

>  <i_i_glide_posenum>  (146) 
11

>  <r_i_glide_eff_state_penalty>  (146) 
0

>  <ligand_id>  (146) 
41

>  <original_smiles>  (146) 
O=C1CC23CCCC2(O)C24CCN(CC5CC5)C2Cc2ccc(O)c(c23)OC14

>  <smiles>  (146) 
[H]Oc1c([H])c([H])c2c3c1OC1([H])C(=O)C([H])([H])C34C([H])([H])C([H])([H])C([H])([H])C4(O[H])C13C([H])([H])C([H])([H])[N+]([H])(C([H])([H])C1([H])C([H])([H])C1([H])[H])C3([H])C2([H])[H]

$$$$
41:0:1
     RDKit          3D

 56 62  0  0  1  0  0  0  0  0999 V2000
    8.0976   -2.4644   -0.4459 O   0  0  0  0  0  0  0  0  0  0  0  0
    6.9521   -2.3410   -0.0221 C   0  0  0  0  0  0  0  0  0  0  0  0
    5.8991   -1.4648   -0.6804 C   0  0  0  0  0  0  0  0  0  0  0  0
    4.4595   -2.0656   -0.4469 C   0  0  1  0  0  0  0  0  0  0  0  0
    3.6884   -1.6611   -1.7153 C   0  0  0  0  0  0  0  0  0  0  0  0
    4.2114   -2.6521   -2.7949 C   0  0  0  0  0  0  0  0  0  0  0  0
    4.9886   -3.7680   -2.0468 C   0  0  0  0  0  0  0  0  0  0  0  0
    4.5041   -3.5933   -0.5798 C   0  0  2  0  0  0  0  0  0  0  0  0
    3.2546   -4.2533   -0.7217 O   0  0  0  0  0  0  0  0  0  0  0  0
    5.2396   -4.0743    0.7314 C   0  0  2  0  0  0  0  0  0  0  0  0
    5.8127   -5.4853    0.4915 C   0  0  0  0  0  0  0  0  0  0  0  0
    5.4180   -6.3011    1.7164 C   0  0  0  0  0  0  0  0  0  0  0  0
    4.1136   -5.7577    2.1358 N   0  0  1  0  0  0  0  0  0  0  0  0
    3.7209   -6.1884    3.5038 C   0  0  0  0  0  0  0  0  0  0  0  0
    3.4998   -7.6930    3.6041 C   0  0  0  0  0  0  0  0  0  0  0  0
    3.3484   -8.3539    4.9641 C   0  0  0  0  0  0  0  0  0  0  0  0
    4.5862   -8.6034    4.1450 C   0  0  0  0  0  0  0  0  0  0  0  0
    4.2066   -4.2862    1.9193 C   0  0  2  0  0  0  0  0  0  0  0  0
    2.7834   -3.5613    1.8716 C   0  0  0  0  0  0  0  0  0  0  0  0
    2.6889   -2.0581    1.4722 C   0  0  0  0  0  0  0  0  0  0  0  0
    2.1729   -1.2116    2.4812 C   0  0  0  0  0  0  0  0  0  0  0  0
    3.0450   -0.3595    3.1926 C   0  0  0  0  0  0  0  0  0  0  0  0
    4.4300   -0.5035    3.0039 C   0  0  0  0  0  0  0  0  0  0  0  0
    5.2977    0.0493    3.8995 O   0  0  0  0  0  0  0  0  0  0  0  0
    4.9085   -1.3189    1.9560 C   0  0  0  0  0  0  0  0  0  0  0  0
    3.9527   -1.6713    0.9794 C   0  0  0  0  0  0  0  0  0  0  0  0
    6.1193   -1.9649    2.0697 O   0  0  0  0  0  0  0  0  0  0  0  0
    6.4106   -3.0619    1.1819 C   0  0  2  0  0  0  0  0  0  0  0  0
    5.9836   -0.4410   -0.3168 H   0  0  0  0  0  0  0  0  0  0  0  0
    6.1577   -1.4243   -1.7358 H   0  0  0  0  0  0  0  0  0  0  0  0
    2.6175   -1.8083   -1.5883 H   0  0  0  0  0  0  0  0  0  0  0  0
    3.8475   -0.6199   -2.0039 H   0  0  0  0  0  0  0  0  0  0  0  0
    3.3708   -3.0644   -3.3488 H   0  0  0  0  0  0  0  0  0  0  0  0
    4.8547   -2.1660   -3.5248 H   0  0  0  0  0  0  0  0  0  0  0  0
    4.7823   -4.7481   -2.4678 H   0  0  0  0  0  0  0  0  0  0  0  0
    6.0604   -3.6294   -2.1761 H   0  0  0  0  0  0  0  0  0  0  0  0
    3.3162   -4.8983   -1.4194 H   0  0  0  0  0  0  0  0  0  0  0  0
    5.3465   -5.9466   -0.3806 H   0  0  0  0  0  0  0  0  0  0  0  0
    6.8919   -5.5013    0.3242 H   0  0  0  0  0  0  0  0  0  0  0  0
    5.3773   -7.3710    1.4978 H   0  0  0  0  0  0  0  0  0  0  0  0
    6.1603   -6.1494    2.5010 H   0  0  0  0  0  0  0  0  0  0  0  0
    4.4736   -5.8923    4.2351 H   0  0  0  0  0  0  0  0  0  0  0  0
    2.7879   -5.7127    3.8003 H   0  0  0  0  0  0  0  0  0  0  0  0
    2.8463   -8.1078    2.8358 H   0  0  0  0  0  0  0  0  0  0  0  0
    3.4519   -7.7422    5.8585 H   0  0  0  0  0  0  0  0  0  0  0  0
    2.6606   -9.1930    5.0584 H   0  0  0  0  0  0  0  0  0  0  0  0
    4.6891   -9.5828    3.6792 H   0  0  0  0  0  0  0  0  0  0  0  0
    5.5156   -8.1386    4.4698 H   0  0  0  0  0  0  0  0  0  0  0  0
    4.7030   -3.9052    2.8098 H   0  0  0  0  0  0  0  0  0  0  0  0
    2.0562   -4.1206    1.2834 H   0  0  0  0  0  0  0  0  0  0  0  0
    2.3656   -3.6348    2.8761 H   0  0  0  0  0  0  0  0  0  0  0  0
    1.1892   -1.3846    2.8953 H   0  0  0  0  0  0  0  0  0  0  0  0
    2.6653    0.2173    4.0152 H   0  0  0  0  0  0  0  0  0  0  0  0
    4.8674    0.5368    4.5845 H   0  0  0  0  0  0  0  0  0  0  0  0
    7.2147   -3.6339    1.6522 H   0  0  0  0  0  0  0  0  0  0  0  0
    3.4339   -6.1058    1.4741 H   0  0  0  0  0  0  0  0  0  0  0  0
  1  2  2  0
  2 28  1  0
  2  3  1  0
  3  4  1  0
  3 29  1  0
  3 30  1  0
  4  8  1  0
  4 26  1  0
  4  5  1  6
  5  6  1  0
  5 31  1  0
  5 32  1  0
  6  7  1  0
  6 33  1  0
  6 34  1  0
  7  8  1  0
  7 35  1  0
  7 36  1  0
  8  9  1  6
  8 10  1  0
  9 37  1  0
 10 18  1  0
 10 28  1  0
 10 11  1  6
 11 12  1  0
 11 38  1  0
 11 39  1  0
 12 13  1  0
 12 40  1  0
 12 41  1  0
 13 14  1  0
 13 18  1  0
 13 56  1  6
 14 15  1  0
 14 42  1  0
 14 43  1  0
 15 17  1  0
 15 16  1  0
 15 44  1  0
 16 17  1  0
 16 45  1  0
 16 46  1  0
 17 47  1  0
 17 48  1  0
 18 19  1  0
 18 49  1  1
 19 20  1  0
 19 50  1  0
 19 51  1  0
 20 26  2  0
 20 21  1  0
 21 22  2  0
 21 52  1  0
 22 23  1  0
 22 53  1  0
 23 24  1  0
 23 25  2  0
 24 54  1  0
 25 26  1  0
 25 27  1  0
 27 28  1  0
 28 55  1  1
M  CHG  1  13   1
M  END
>  <i_m_ct_stereo_status>  (147) 
1

>  <s_m_source_file>  (147) 
/var/tmp/pbs.5076255.sched01/tmp7rtc4ovb/41r77q45k8.sdf

>  <i_m_source_file_index>  (147) 
28

>  <i_lp_mmshare_version>  (147) 
48012

>  <i_f3d_flags>  (147) 
0

>  <s_epik_input>  (147) 
Tz1DKFtDSDJdMSlbQ0BIXTJPYyhjKFtPSF0pW2NIXVtjSF0zKWM0YzNbQ0gyXVtDQEhdKFtDQEBdMjVbQ0BdKFtDQF0xNDYpKFtPSF0pW0NIMl1bQ0gyXVtDSDJdNilOKFtDSDJdW0NIMl01KVtDSDJdW0NIXTdbQ0gyXVtDSDJdNw==

>  <s_epik_cmdline>  (147) 
J2VwaWtfcHl0aG9uJywgJy1waHQnLCAnMi4wJywgJy1waCcsICc3LjAnLCAnLXRuJywgJzgnLCAnLW1hJywgJzIwMCcsICctaW1hZScsICc8aW5maWxlLm1hZT4nLCAnLW9tYWUnLCAnPG91dGZpbGUubWFlPic=

>  <r_lp_tautomer_probability>  (147) 
1

>  <r_epik_Ionization_Penalty>  (147) 
0.004118

>  <r_epik_Ionization_Penalty_Charging>  (147) 
0.0027708

>  <r_epik_Ionization_Penalty_Neutral>  (147) 
0.0013472

>  <r_epik_State_Penalty>  (147) 
-0

>  <r_epik_Charging_Adjusted_Penalty>  (147) 
0.0027708

>  <i_epik_Tot_Q>  (147) 
1

>  <i_epik_Tot_abs_Q>  (147) 
1

>  <s_lp_Force_Field>  (147) 
OPLS3e

>  <r_lp_Energy>  (147) 
160.54

>  <b_lp_Chiralities_Consistent>  (147) 
1

>  <s_lp_Variant>  (147) 
41:0-1

>  <s_i_glide_gridfile>  (147) 
pfpi4k_grid

>  <i_i_glide_lignum>  (147) 
28

>  <i_i_glide_rotatable_bonds>  (147) 
4

>  <r_i_docking_score>  (147) 
-3.76328

>  <r_i_glide_ligand_efficiency>  (147) 
-0.134403

>  <r_i_glide_ligand_efficiency_sa>  (147) 
-0.408127

>  <r_i_glide_ligand_efficiency_ln>  (147) 
-0.868676

>  <r_i_glide_gscore>  (147) 
-3.76328

>  <r_i_glide_lipo>  (147) 
-0.568623

>  <r_i_glide_hbond>  (147) 
-0.396352

>  <r_i_glide_metal>  (147) 
-0

>  <r_i_glide_rewards>  (147) 
-0.810195

>  <r_i_glide_evdw>  (147) 
-27.0588

>  <r_i_glide_ecoul>  (147) 
-6.00471

>  <r_i_glide_erotb>  (147) 
0.265536

>  <r_i_glide_esite>  (147) 
0

>  <r_i_glide_emodel>  (147) 
-40.3556

>  <r_i_glide_energy>  (147) 
-33.0636

>  <r_i_glide_einternal>  (147) 
0.887387

>  <r_i_glide_intrahb_reward>  (147) 
-0

>  <i_i_glide_confnum>  (147) 
2

>  <i_i_glide_posenum>  (147) 
25

>  <r_i_glide_eff_state_penalty>  (147) 
0

>  <ligand_id>  (147) 
41

>  <original_smiles>  (147) 
O=C1CC23CCCC2(O)C24CCN(CC5CC5)C2Cc2ccc(O)c(c23)OC14

>  <smiles>  (147) 
[H]Oc1c([H])c([H])c2c3c1OC1([H])C(=O)C([H])([H])C34C([H])([H])C([H])([H])C([H])([H])C4(O[H])C13C([H])([H])C([H])([H])[N+]([H])(C([H])([H])C1([H])C([H])([H])C1([H])[H])C3([H])C2([H])[H]

$$$$
41:0:2
     RDKit          3D

 56 62  0  0  1  0  0  0  0  0999 V2000
    0.6259   -7.7977    7.1427 O   0  0  0  0  0  0  0  0  0  0  0  0
    1.0646   -7.9838    6.0090 C   0  0  0  0  0  0  0  0  0  0  0  0
    0.5781   -9.0764    5.0683 C   0  0  0  0  0  0  0  0  0  0  0  0
    0.6718   -8.5840    3.5634 C   0  0  1  0  0  0  0  0  0  0  0  0
   -0.4977   -9.2974    2.8646 C   0  0  0  0  0  0  0  0  0  0  0  0
   -1.7457   -8.4850    3.3159 C   0  0  0  0  0  0  0  0  0  0  0  0
   -1.2188   -7.1732    3.9631 C   0  0  0  0  0  0  0  0  0  0  0  0
    0.2436   -7.1134    3.4577 C   0  0  2  0  0  0  0  0  0  0  0  0
   -0.0700   -6.6322    2.1487 O   0  0  0  0  0  0  0  0  0  0  0  0
    1.4445   -6.3123    4.1059 C   0  0  2  0  0  0  0  0  0  0  0  0
    0.9417   -4.9248    4.5567 C   0  0  0  0  0  0  0  0  0  0  0  0
    1.9766   -3.9273    4.0486 C   0  0  0  0  0  0  0  0  0  0  0  0
    2.4785   -4.5013    2.7860 N   0  0  1  0  0  0  0  0  0  0  0  0
    3.7280   -3.8513    2.3087 C   0  0  0  0  0  0  0  0  0  0  0  0
    3.5150   -2.3990    1.8933 C   0  0  0  0  0  0  0  0  0  0  0  0
    4.7069   -1.5140    1.5738 C   0  0  0  0  0  0  0  0  0  0  0  0
    3.9007   -1.2630    2.8196 C   0  0  0  0  0  0  0  0  0  0  0  0
    2.5508   -5.9722    3.0171 C   0  0  2  0  0  0  0  0  0  0  0  0
    2.6176   -6.8264    1.6688 C   0  0  0  0  0  0  0  0  0  0  0  0
    2.5251   -8.3808    1.7320 C   0  0  0  0  0  0  0  0  0  0  0  0
    3.6814   -9.0531    1.2666 C   0  0  0  0  0  0  0  0  0  0  0  0
    4.5619   -9.6601    2.1849 C   0  0  0  0  0  0  0  0  0  0  0  0
    4.3642   -9.4300    3.5539 C   0  0  0  0  0  0  0  0  0  0  0  0
    5.3658   -9.7123    4.4350 O   0  0  0  0  0  0  0  0  0  0  0  0
    3.1818   -8.8001    3.9958 C   0  0  0  0  0  0  0  0  0  0  0  0
    2.1392   -8.7337    3.0408 C   0  0  0  0  0  0  0  0  0  0  0  0
    3.1881   -8.0290    5.1337 O   0  0  0  0  0  0  0  0  0  0  0  0
    2.1014   -7.1048    5.3528 C   0  0  2  0  0  0  0  0  0  0  0  0
    1.1369   -9.9975    5.2359 H   0  0  0  0  0  0  0  0  0  0  0  0
   -0.4437   -9.3125    5.3647 H   0  0  0  0  0  0  0  0  0  0  0  0
   -0.4107   -9.2461    1.7814 H   0  0  0  0  0  0  0  0  0  0  0  0
   -0.5696  -10.3505    3.1375 H   0  0  0  0  0  0  0  0  0  0  0  0
   -2.3920   -8.2764    2.4646 H   0  0  0  0  0  0  0  0  0  0  0  0
   -2.3491   -9.0412    4.0318 H   0  0  0  0  0  0  0  0  0  0  0  0
   -1.8186   -6.3126    3.6804 H   0  0  0  0  0  0  0  0  0  0  0  0
   -1.3002   -7.2307    5.0455 H   0  0  0  0  0  0  0  0  0  0  0  0
   -0.2699   -7.3996    1.6262 H   0  0  0  0  0  0  0  0  0  0  0  0
   -0.0099   -4.6891    4.0831 H   0  0  0  0  0  0  0  0  0  0  0  0
    0.7880   -4.8448    5.6340 H   0  0  0  0  0  0  0  0  0  0  0  0
    1.5532   -2.9295    3.9153 H   0  0  0  0  0  0  0  0  0  0  0  0
    2.7867   -3.8501    4.7736 H   0  0  0  0  0  0  0  0  0  0  0  0
    4.5020   -3.8924    3.0758 H   0  0  0  0  0  0  0  0  0  0  0  0
    4.1196   -4.3751    1.4381 H   0  0  0  0  0  0  0  0  0  0  0  0
    2.6546   -2.2342    1.2421 H   0  0  0  0  0  0  0  0  0  0  0  0
    5.7081   -1.9243    1.6958 H   0  0  0  0  0  0  0  0  0  0  0  0
    4.6049   -0.7774    0.7779 H   0  0  0  0  0  0  0  0  0  0  0  0
    3.2545   -0.3865    2.8290 H   0  0  0  0  0  0  0  0  0  0  0  0
    4.3477   -1.5254    3.7769 H   0  0  0  0  0  0  0  0  0  0  0  0
    3.5083   -6.1214    3.5141 H   0  0  0  0  0  0  0  0  0  0  0  0
    1.9225   -6.4684    0.9090 H   0  0  0  0  0  0  0  0  0  0  0  0
    3.5828   -6.5996    1.2132 H   0  0  0  0  0  0  0  0  0  0  0  0
    4.0462   -8.9089    0.2590 H   0  0  0  0  0  0  0  0  0  0  0  0
    5.4778  -10.1067    1.8384 H   0  0  0  0  0  0  0  0  0  0  0  0
    5.1112   -9.5679    5.3313 H   0  0  0  0  0  0  0  0  0  0  0  0
    2.4734   -6.3810    6.0803 H   0  0  0  0  0  0  0  0  0  0  0  0
    1.7598   -4.3462    2.0951 H   0  0  0  0  0  0  0  0  0  0  0  0
  1  2  2  0
  2 28  1  0
  2  3  1  0
  3  4  1  0
  3 29  1  0
  3 30  1  0
  4  8  1  0
  4 26  1  0
  4  5  1  6
  5  6  1  0
  5 31  1  0
  5 32  1  0
  6  7  1  0
  6 33  1  0
  6 34  1  0
  7  8  1  0
  7 35  1  0
  7 36  1  0
  8  9  1  6
  8 10  1  0
  9 37  1  0
 10 18  1  0
 10 28  1  0
 10 11  1  1
 11 12  1  0
 11 38  1  0
 11 39  1  0
 12 13  1  0
 12 40  1  0
 12 41  1  0
 13 14  1  0
 13 18  1  0
 13 56  1  6
 14 15  1  0
 14 42  1  0
 14 43  1  0
 15 17  1  0
 15 16  1  0
 15 44  1  0
 16 17  1  0
 16 45  1  0
 16 46  1  0
 17 47  1  0
 17 48  1  0
 18 19  1  0
 18 49  1  1
 19 20  1  0
 19 50  1  0
 19 51  1  0
 20 26  2  0
 20 21  1  0
 21 22  2  0
 21 52  1  0
 22 23  1  0
 22 53  1  0
 23 24  1  0
 23 25  2  0
 24 54  1  0
 25 26  1  0
 25 27  1  0
 27 28  1  0
 28 55  1  1
M  CHG  1  13   1
M  END
>  <i_m_ct_stereo_status>  (148) 
1

>  <s_m_source_file>  (148) 
/var/tmp/pbs.5076255.sched01/tmp7rtc4ovb/41r77q45k8.sdf

>  <i_m_source_file_index>  (148) 
28

>  <i_lp_mmshare_version>  (148) 
48012

>  <i_f3d_flags>  (148) 
0

>  <s_epik_input>  (148) 
Tz1DKFtDSDJdMSlbQ0BIXTJPYyhjKFtPSF0pW2NIXVtjSF0zKWM0YzNbQ0gyXVtDQEhdKFtDQEBdMjVbQ0BdKFtDQF0xNDYpKFtPSF0pW0NIMl1bQ0gyXVtDSDJdNilOKFtDSDJdW0NIMl01KVtDSDJdW0NIXTdbQ0gyXVtDSDJdNw==

>  <s_epik_cmdline>  (148) 
J2VwaWtfcHl0aG9uJywgJy1waHQnLCAnMi4wJywgJy1waCcsICc3LjAnLCAnLXRuJywgJzgnLCAnLW1hJywgJzIwMCcsICctaW1hZScsICc8aW5maWxlLm1hZT4nLCAnLW9tYWUnLCAnPG91dGZpbGUubWFlPic=

>  <r_lp_tautomer_probability>  (148) 
1

>  <r_epik_Ionization_Penalty>  (148) 
0.004118

>  <r_epik_Ionization_Penalty_Charging>  (148) 
0.0027708

>  <r_epik_Ionization_Penalty_Neutral>  (148) 
0.0013472

>  <r_epik_State_Penalty>  (148) 
-0

>  <r_epik_Charging_Adjusted_Penalty>  (148) 
0.0027708

>  <i_epik_Tot_Q>  (148) 
1

>  <i_epik_Tot_abs_Q>  (148) 
1

>  <s_lp_Force_Field>  (148) 
OPLS3e

>  <r_lp_Energy>  (148) 
160.54

>  <b_lp_Chiralities_Consistent>  (148) 
1

>  <s_lp_Variant>  (148) 
41:0-1

>  <s_i_glide_gridfile>  (148) 
pfpi4k_grid

>  <i_i_glide_lignum>  (148) 
28

>  <i_i_glide_rotatable_bonds>  (148) 
4

>  <r_i_docking_score>  (148) 
-3.02381

>  <r_i_glide_ligand_efficiency>  (148) 
-0.107993

>  <r_i_glide_ligand_efficiency_sa>  (148) 
-0.327931

>  <r_i_glide_ligand_efficiency_ln>  (148) 
-0.697984

>  <r_i_glide_gscore>  (148) 
-3.02381

>  <r_i_glide_lipo>  (148) 
-0.0494468

>  <r_i_glide_hbond>  (148) 
-0.162249

>  <r_i_glide_metal>  (148) 
-0

>  <r_i_glide_rewards>  (148) 
-0.801322

>  <r_i_glide_evdw>  (148) 
-26.4037

>  <r_i_glide_ecoul>  (148) 
-6.23164

>  <r_i_glide_erotb>  (148) 
0.265536

>  <r_i_glide_esite>  (148) 
-0.0213952

>  <r_i_glide_emodel>  (148) 
-38.2052

>  <r_i_glide_energy>  (148) 
-32.6353

>  <r_i_glide_einternal>  (148) 
0.776923

>  <r_i_glide_intrahb_reward>  (148) 
-0

>  <i_i_glide_confnum>  (148) 
1

>  <i_i_glide_posenum>  (148) 
10

>  <r_i_glide_eff_state_penalty>  (148) 
0

>  <ligand_id>  (148) 
41

>  <original_smiles>  (148) 
O=C1CC23CCCC2(O)C24CCN(CC5CC5)C2Cc2ccc(O)c(c23)OC14

>  <smiles>  (148) 
[H]Oc1c([H])c([H])c2c3c1OC1([H])C(=O)C([H])([H])C34C([H])([H])C([H])([H])C([H])([H])C4(O[H])C13C([H])([H])C([H])([H])[N+]([H])(C([H])([H])C1([H])C([H])([H])C1([H])[H])C3([H])C2([H])[H]

$$$$
43:0:0
     RDKit          3D

 57 61  0  0  1  0  0  0  0  0999 V2000
    2.7339   -4.0697    0.6876 O   0  0  0  0  0  0  0  0  0  0  0  0
    3.7957   -4.4176    0.1775 C   0  0  0  0  0  0  0  0  0  0  0  0
    4.4564   -5.5095    0.5896 N   0  0  0  0  0  0  0  0  0  0  0  0
    4.1227   -6.2545    1.8064 C   0  0  2  0  0  0  0  0  0  0  0  0
    5.4129   -6.6685    2.5441 C   0  0  1  0  0  0  0  0  0  0  0  0
    5.2243   -6.7600    4.0718 C   0  0  0  0  0  0  0  0  0  0  0  0
    4.2972   -7.8518    4.6428 C   0  0  0  0  0  0  0  0  0  0  0  0
    3.5591   -8.7817    3.6602 C   0  0  1  0  0  0  0  0  0  0  0  0
    2.5538   -8.0465    2.7470 C   0  0  0  0  0  0  0  0  0  0  0  0
    3.2070   -7.4537    1.4877 C   0  0  2  0  0  0  0  0  0  0  0  0
    3.9742   -8.5531    0.7330 C   0  0  0  0  0  0  0  0  0  0  0  0
    5.1051   -9.0716    1.6282 C   0  0  2  0  0  0  0  0  0  0  0  0
    5.8120  -10.0807    0.9585 O   0  0  0  0  0  0  0  0  0  0  0  0
    4.5013   -9.7190    2.8828 C   0  0  0  0  0  0  0  0  0  0  0  0
    6.0823   -7.9199    1.9361 C   0  0  0  0  0  0  0  0  0  0  0  0
    4.4294   -3.5951   -0.9716 C   0  0  2  0  0  0  0  0  0  0  0  0
    5.7493   -2.9863   -0.5653 C   0  0  0  0  0  0  0  0  0  0  0  0
    6.9421   -3.0920   -1.2374 C   0  0  0  0  0  0  0  0  0  0  0  0
    8.0014   -2.3817   -0.6252 C   0  0  0  0  0  0  0  0  0  0  0  0
    7.5927   -1.6851    0.4777 C   0  0  0  0  0  0  0  0  0  0  0  0
    5.9031   -1.9414    0.8225 S   0  0  0  0  0  0  0  0  0  0  0  0
    3.4700   -2.5510   -1.6090 C   0  0  0  0  0  0  0  0  0  0  0  0
    2.2560   -3.1979   -2.3158 C   0  0  0  0  0  0  0  0  0  0  0  0
    2.4516   -2.9389   -3.8052 C   0  0  0  0  0  0  0  0  0  0  0  0
    3.2193   -1.6209   -3.8856 C   0  0  0  0  0  0  0  0  0  0  0  0
    4.1516   -1.6564   -2.6816 C   0  0  0  0  0  0  0  0  0  0  0  0
    5.3166   -5.7504    0.1128 H   0  0  0  0  0  0  0  0  0  0  0  0
    3.5665   -5.5874    2.4757 H   0  0  0  0  0  0  0  0  0  0  0  0
    6.1174   -5.8452    2.4136 H   0  0  0  0  0  0  0  0  0  0  0  0
    6.2060   -6.8779    4.5318 H   0  0  0  0  0  0  0  0  0  0  0  0
    4.8625   -5.7954    4.4321 H   0  0  0  0  0  0  0  0  0  0  0  0
    4.8805   -8.4751    5.3227 H   0  0  0  0  0  0  0  0  0  0  0  0
    3.5536   -7.3729    5.2820 H   0  0  0  0  0  0  0  0  0  0  0  0
    2.9600   -9.4277    4.3004 H   0  0  0  0  0  0  0  0  0  0  0  0
    1.7870   -8.7607    2.4322 H   0  0  0  0  0  0  0  0  0  0  0  0
    2.0288   -7.2720    3.3081 H   0  0  0  0  0  0  0  0  0  0  0  0
    2.3905   -7.0773    0.8799 H   0  0  0  0  0  0  0  0  0  0  0  0
    3.2991   -9.3722    0.4795 H   0  0  0  0  0  0  0  0  0  0  0  0
    4.3775   -8.1657   -0.2017 H   0  0  0  0  0  0  0  0  0  0  0  0
    5.2093  -10.7938    0.7383 H   0  0  0  0  0  0  0  0  0  0  0  0
    5.2938  -10.0934    3.5332 H   0  0  0  0  0  0  0  0  0  0  0  0
    3.9257  -10.5973    2.5783 H   0  0  0  0  0  0  0  0  0  0  0  0
    6.5664   -7.6247    1.0045 H   0  0  0  0  0  0  0  0  0  0  0  0
    6.8820   -8.2737    2.5865 H   0  0  0  0  0  0  0  0  0  0  0  0
    4.6606   -4.3169   -1.7534 H   0  0  0  0  0  0  0  0  0  0  0  0
    7.0942   -3.6383   -2.1567 H   0  0  0  0  0  0  0  0  0  0  0  0
    9.0046   -2.3700   -1.0312 H   0  0  0  0  0  0  0  0  0  0  0  0
    8.1767   -1.0408    1.1298 H   0  0  0  0  0  0  0  0  0  0  0  0
    3.0802   -1.8735   -0.8397 H   0  0  0  0  0  0  0  0  0  0  0  0
    2.0993   -4.2531   -2.1087 H   0  0  0  0  0  0  0  0  0  0  0  0
    1.3537   -2.7084   -1.9716 H   0  0  0  0  0  0  0  0  0  0  0  0
    3.0483   -3.7483   -4.2170 H   0  0  0  0  0  0  0  0  0  0  0  0
    1.4940   -2.9115   -4.3219 H   0  0  0  0  0  0  0  0  0  0  0  0
    3.7642   -1.4961   -4.8263 H   0  0  0  0  0  0  0  0  0  0  0  0
    2.5486   -0.7773   -3.7779 H   0  0  0  0  0  0  0  0  0  0  0  0
    4.3819   -0.6534   -2.3020 H   0  0  0  0  0  0  0  0  0  0  0  0
    5.0829   -2.0922   -3.0332 H   0  0  0  0  0  0  0  0  0  0  0  0
  1  2  2  0
  2  3  1  0
  2 16  1  0
  3  4  1  0
  3 27  1  0
  4 10  1  0
  4  5  1  0
  4 28  1  1
  5 15  1  0
  5  6  1  0
  5 29  1  1
  6  7  1  0
  6 30  1  0
  6 31  1  0
  7  8  1  0
  7 32  1  0
  7 33  1  0
  8 14  1  0
  8  9  1  0
  8 34  1  1
  9 10  1  0
  9 35  1  0
  9 36  1  0
 10 11  1  0
 10 37  1  6
 11 12  1  0
 11 38  1  0
 11 39  1  0
 12 13  1  6
 12 14  1  0
 12 15  1  0
 13 40  1  0
 14 41  1  0
 14 42  1  0
 15 43  1  0
 15 44  1  0
 16 17  1  0
 16 22  1  0
 16 45  1  6
 17 21  1  0
 17 18  2  0
 18 19  1  0
 18 46  1  0
 19 20  2  0
 19 47  1  0
 20 21  1  0
 20 48  1  0
 22 26  1  0
 22 23  1  0
 22 49  1  0
 23 24  1  0
 23 50  1  0
 23 51  1  0
 24 25  1  0
 24 52  1  0
 24 53  1  0
 25 26  1  0
 25 54  1  0
 25 55  1  0
 26 56  1  0
 26 57  1  0
M  END
>  <i_m_ct_stereo_status>  (149) 
1

>  <s_m_source_file>  (149) 
/var/tmp/pbs.5076255.sched01/tmp7rtc4ovb/41r77q45k8.sdf

>  <i_m_source_file_index>  (149) 
30

>  <i_lp_mmshare_version>  (149) 
48012

>  <i_f3d_flags>  (149) 
0

>  <s_epik_input>  (149) 
czFbY0hdW2NIXVtjSF1jMVtDQEhdKFtDSF0yW0NIMl1bQ0gyXVtDSDJdW0NIMl0yKUMoPU8pW05IXVtDQEBIXShbQ0BIXTNbQ0gyXVtDQF00NVtPSF0pW0NASF0oW0NIMl01KVtDSDJdW0NIMl1bQ0BASF0oW0NIMl0zKVtDSDJdNA==

>  <s_epik_cmdline>  (149) 
J2VwaWtfcHl0aG9uJywgJy1waHQnLCAnMi4wJywgJy1waCcsICc3LjAnLCAnLXRuJywgJzgnLCAnLW1hJywgJzIwMCcsICctaW1hZScsICc8aW5maWxlLm1hZT4nLCAnLW9tYWUnLCAnPG91dGZpbGUubWFlPic=

>  <r_lp_tautomer_probability>  (149) 
1

>  <r_epik_Ionization_Penalty>  (149) 
1.73337e-06

>  <r_epik_Ionization_Penalty_Charging>  (149) 
0

>  <r_epik_Ionization_Penalty_Neutral>  (149) 
1.73337e-06

>  <r_epik_State_Penalty>  (149) 
-0

>  <r_epik_Charging_Adjusted_Penalty>  (149) 
0

>  <i_epik_Tot_Q>  (149) 
0

>  <i_epik_Tot_abs_Q>  (149) 
0

>  <s_lp_Force_Field>  (149) 
OPLS3e

>  <r_lp_Energy>  (149) 
32.914

>  <b_lp_Chiralities_Consistent>  (149) 
1

>  <s_lp_Variant>  (149) 
43:0-1

>  <s_i_glide_gridfile>  (149) 
pfpi4k_grid

>  <i_i_glide_lignum>  (149) 
30

>  <i_i_glide_rotatable_bonds>  (149) 
6

>  <r_i_docking_score>  (149) 
-3.39158

>  <r_i_glide_ligand_efficiency>  (149) 
-0.130445

>  <r_i_glide_ligand_efficiency_sa>  (149) 
-0.386444

>  <r_i_glide_ligand_efficiency_ln>  (149) 
-0.796501

>  <r_i_glide_gscore>  (149) 
-3.39158

>  <r_i_glide_lipo>  (149) 
-0.79934

>  <r_i_glide_hbond>  (149) 
-0.16

>  <r_i_glide_metal>  (149) 
-0

>  <r_i_glide_rewards>  (149) 
-0.862138

>  <r_i_glide_evdw>  (149) 
-27.2226

>  <r_i_glide_ecoul>  (149) 
-5.96582

>  <r_i_glide_erotb>  (149) 
0.692493

>  <r_i_glide_esite>  (149) 
-0.00659215

>  <r_i_glide_emodel>  (149) 
-40.2012

>  <r_i_glide_energy>  (149) 
-33.1884

>  <r_i_glide_einternal>  (149) 
1.41712

>  <r_i_glide_intrahb_reward>  (149) 
-0

>  <i_i_glide_confnum>  (149) 
4

>  <i_i_glide_posenum>  (149) 
18

>  <r_i_glide_eff_state_penalty>  (149) 
0

>  <ligand_id>  (149) 
43

>  <original_smiles>  (149) 
O=C(NC1C2CCC3CC1CC(O)(C3)C2)C(c1cccs1)C1CCCC1

>  <smiles>  (149) 
[H]OC12C([H])([H])C3([H])C([H])([H])C([H])([H])C([H])(C1([H])[H])C([H])(N([H])C(=O)C([H])(c1sc([H])c([H])c1[H])C1([H])C([H])([H])C([H])([H])C([H])([H])C1([H])[H])C([H])(C3([H])[H])C2([H])[H]

$$$$
43:0:1
     RDKit          3D

 57 61  0  0  1  0  0  0  0  0999 V2000
    1.5257   -5.8603    0.3646 O   0  0  0  0  0  0  0  0  0  0  0  0
    2.3964   -5.9447    1.2328 C   0  0  0  0  0  0  0  0  0  0  0  0
    3.3017   -4.9779    1.4299 N   0  0  0  0  0  0  0  0  0  0  0  0
    3.3752   -3.7502    0.6348 C   0  0  2  0  0  0  0  0  0  0  0  0
    4.1068   -3.9974   -0.7109 C   0  0  1  0  0  0  0  0  0  0  0  0
    3.5995   -3.0915   -1.8509 C   0  0  0  0  0  0  0  0  0  0  0  0
    3.8647   -1.5752   -1.7589 C   0  0  0  0  0  0  0  0  0  0  0  0
    4.5777   -1.0311   -0.5035 C   0  0  1  0  0  0  0  0  0  0  0  0
    3.7868   -1.2356    0.8102 C   0  0  0  0  0  0  0  0  0  0  0  0
    4.0181   -2.6177    1.4576 C   0  0  2  0  0  0  0  0  0  0  0  0
    5.5261   -2.8559    1.6509 C   0  0  0  0  0  0  0  0  0  0  0  0
    6.2045   -2.8653    0.2734 C   0  0  2  0  0  0  0  0  0  0  0  0
    7.5833   -3.0983    0.4373 O   0  0  0  0  0  0  0  0  0  0  0  0
    6.0444   -1.4880   -0.3915 C   0  0  0  0  0  0  0  0  0  0  0  0
    5.6417   -4.0145   -0.5764 C   0  0  0  0  0  0  0  0  0  0  0  0
    2.4351   -7.1584    2.1938 C   0  0  2  0  0  0  0  0  0  0  0  0
    3.8071   -7.7847    2.2502 C   0  0  0  0  0  0  0  0  0  0  0  0
    4.6581   -7.8433    3.3243 C   0  0  0  0  0  0  0  0  0  0  0  0
    5.8711   -8.5437    3.0494 C   0  0  0  0  0  0  0  0  0  0  0  0
    5.9291   -9.0091    1.7670 C   0  0  0  0  0  0  0  0  0  0  0  0
    4.4926   -8.6091    0.8702 S   0  0  0  0  0  0  0  0  0  0  0  0
    1.3098   -8.1957    1.9419 C   0  0  0  0  0  0  0  0  0  0  0  0
   -0.1174   -7.6254    2.1307 C   0  0  0  0  0  0  0  0  0  0  0  0
   -0.6917   -8.3060    3.3663 C   0  0  0  0  0  0  0  0  0  0  0  0
   -0.0264   -9.6723    3.3979 C   0  0  0  0  0  0  0  0  0  0  0  0
    1.3911   -9.4214    2.8839 C   0  0  0  0  0  0  0  0  0  0  0  0
    4.0028   -5.1118    2.1483 H   0  0  0  0  0  0  0  0  0  0  0  0
    2.3499   -3.4355    0.4174 H   0  0  0  0  0  0  0  0  0  0  0  0
    3.8429   -5.0016   -1.0319 H   0  0  0  0  0  0  0  0  0  0  0  0
    4.0133   -3.4550   -2.7926 H   0  0  0  0  0  0  0  0  0  0  0  0
    2.5222   -3.2387   -1.9491 H   0  0  0  0  0  0  0  0  0  0  0  0
    4.4344   -1.2695   -2.6385 H   0  0  0  0  0  0  0  0  0  0  0  0
    2.9101   -1.0569   -1.8628 H   0  0  0  0  0  0  0  0  0  0  0  0
    4.6116    0.0475   -0.6581 H   0  0  0  0  0  0  0  0  0  0  0  0
    4.1000   -0.4657    1.5197 H   0  0  0  0  0  0  0  0  0  0  0  0
    2.7219   -1.0637    0.6355 H   0  0  0  0  0  0  0  0  0  0  0  0
    3.5360   -2.6000    2.4360 H   0  0  0  0  0  0  0  0  0  0  0  0
    5.9459   -2.0710    2.2816 H   0  0  0  0  0  0  0  0  0  0  0  0
    5.7038   -3.7973    2.1693 H   0  0  0  0  0  0  0  0  0  0  0  0
    7.9194   -2.4475    1.0395 H   0  0  0  0  0  0  0  0  0  0  0  0
    6.5067   -1.4957   -1.3775 H   0  0  0  0  0  0  0  0  0  0  0  0
    6.5810   -0.7423    0.1985 H   0  0  0  0  0  0  0  0  0  0  0  0
    5.9275   -4.9578   -0.1106 H   0  0  0  0  0  0  0  0  0  0  0  0
    6.1022   -4.0132   -1.5623 H   0  0  0  0  0  0  0  0  0  0  0  0
    2.2485   -6.7497    3.1877 H   0  0  0  0  0  0  0  0  0  0  0  0
    4.4496   -7.4345    4.3002 H   0  0  0  0  0  0  0  0  0  0  0  0
    6.6421   -8.6860    3.7910 H   0  0  0  0  0  0  0  0  0  0  0  0
    6.7144   -9.5814    1.2825 H   0  0  0  0  0  0  0  0  0  0  0  0
    1.4084   -8.5625    0.9176 H   0  0  0  0  0  0  0  0  0  0  0  0
   -0.1540   -6.5431    2.2756 H   0  0  0  0  0  0  0  0  0  0  0  0
   -0.7128   -7.8584    1.2454 H   0  0  0  0  0  0  0  0  0  0  0  0
   -0.3995   -7.7317    4.2427 H   0  0  0  0  0  0  0  0  0  0  0  0
   -1.7796   -8.3603    3.3383 H   0  0  0  0  0  0  0  0  0  0  0  0
   -0.0270  -10.1053    4.3993 H   0  0  0  0  0  0  0  0  0  0  0  0
   -0.5492  -10.3528    2.7294 H   0  0  0  0  0  0  0  0  0  0  0  0
    1.8108  -10.2997    2.3848 H   0  0  0  0  0  0  0  0  0  0  0  0
    2.0306   -9.2084    3.7407 H   0  0  0  0  0  0  0  0  0  0  0  0
  1  2  2  0
  2  3  1  0
  2 16  1  0
  3  4  1  0
  3 27  1  0
  4 10  1  0
  4  5  1  0
  4 28  1  6
  5 15  1  0
  5  6  1  0
  5 29  1  6
  6  7  1  0
  6 30  1  0
  6 31  1  0
  7  8  1  0
  7 32  1  0
  7 33  1  0
  8 14  1  0
  8  9  1  0
  8 34  1  6
  9 10  1  0
  9 35  1  0
  9 36  1  0
 10 11  1  0
 10 37  1  1
 11 12  1  0
 11 38  1  0
 11 39  1  0
 12 13  1  1
 12 14  1  0
 12 15  1  0
 13 40  1  0
 14 41  1  0
 14 42  1  0
 15 43  1  0
 15 44  1  0
 16 17  1  0
 16 22  1  0
 16 45  1  1
 17 21  1  0
 17 18  2  0
 18 19  1  0
 18 46  1  0
 19 20  2  0
 19 47  1  0
 20 21  1  0
 20 48  1  0
 22 26  1  0
 22 23  1  0
 22 49  1  0
 23 24  1  0
 23 50  1  0
 23 51  1  0
 24 25  1  0
 24 52  1  0
 24 53  1  0
 25 26  1  0
 25 54  1  0
 25 55  1  0
 26 56  1  0
 26 57  1  0
M  END
>  <i_m_ct_stereo_status>  (150) 
1

>  <s_m_source_file>  (150) 
/var/tmp/pbs.5076255.sched01/tmp7rtc4ovb/41r77q45k8.sdf

>  <i_m_source_file_index>  (150) 
30

>  <i_lp_mmshare_version>  (150) 
48012

>  <i_f3d_flags>  (150) 
0

>  <s_epik_input>  (150) 
czFbY0hdW2NIXVtjSF1jMVtDQEhdKFtDSF0yW0NIMl1bQ0gyXVtDSDJdW0NIMl0yKUMoPU8pW05IXVtDQEBIXShbQ0BIXTNbQ0gyXVtDQF00NVtPSF0pW0NASF0oW0NIMl01KVtDSDJdW0NIMl1bQ0BASF0oW0NIMl0zKVtDSDJdNA==

>  <s_epik_cmdline>  (150) 
J2VwaWtfcHl0aG9uJywgJy1waHQnLCAnMi4wJywgJy1waCcsICc3LjAnLCAnLXRuJywgJzgnLCAnLW1hJywgJzIwMCcsICctaW1hZScsICc8aW5maWxlLm1hZT4nLCAnLW9tYWUnLCAnPG91dGZpbGUubWFlPic=

>  <r_lp_tautomer_probability>  (150) 
1

>  <r_epik_Ionization_Penalty>  (150) 
1.73337e-06

>  <r_epik_Ionization_Penalty_Charging>  (150) 
0

>  <r_epik_Ionization_Penalty_Neutral>  (150) 
1.73337e-06

>  <r_epik_State_Penalty>  (150) 
-0

>  <r_epik_Charging_Adjusted_Penalty>  (150) 
0

>  <i_epik_Tot_Q>  (150) 
0

>  <i_epik_Tot_abs_Q>  (150) 
0

>  <s_lp_Force_Field>  (150) 
OPLS3e

>  <r_lp_Energy>  (150) 
32.914

>  <b_lp_Chiralities_Consistent>  (150) 
1

>  <s_lp_Variant>  (150) 
43:0-1

>  <s_i_glide_gridfile>  (150) 
pfpi4k_grid

>  <i_i_glide_lignum>  (150) 
30

>  <i_i_glide_rotatable_bonds>  (150) 
6

>  <r_i_docking_score>  (150) 
-2.33995

>  <r_i_glide_ligand_efficiency>  (150) 
-0.0899979

>  <r_i_glide_ligand_efficiency_sa>  (150) 
-0.266618

>  <r_i_glide_ligand_efficiency_ln>  (150) 
-0.549529

>  <r_i_glide_gscore>  (150) 
-2.33995

>  <r_i_glide_lipo>  (150) 
-0.248905

>  <r_i_glide_hbond>  (150) 
-0.148259

>  <r_i_glide_metal>  (150) 
-0

>  <r_i_glide_rewards>  (150) 
-0.862138

>  <r_i_glide_evdw>  (150) 
-28.3198

>  <r_i_glide_ecoul>  (150) 
-2.22945

>  <r_i_glide_erotb>  (150) 
0.692493

>  <r_i_glide_esite>  (150) 
-0.0227263

>  <r_i_glide_emodel>  (150) 
-35.4856

>  <r_i_glide_energy>  (150) 
-30.5493

>  <r_i_glide_einternal>  (150) 
0.558818

>  <r_i_glide_intrahb_reward>  (150) 
-0

>  <i_i_glide_confnum>  (150) 
4

>  <i_i_glide_posenum>  (150) 
11

>  <r_i_glide_eff_state_penalty>  (150) 
0

>  <ligand_id>  (150) 
43

>  <original_smiles>  (150) 
O=C(NC1C2CCC3CC1CC(O)(C3)C2)C(c1cccs1)C1CCCC1

>  <smiles>  (150) 
[H]OC12C([H])([H])C3([H])C([H])([H])C([H])([H])C([H])(C1([H])[H])C([H])(N([H])C(=O)C([H])(c1sc([H])c([H])c1[H])C1([H])C([H])([H])C([H])([H])C([H])([H])C1([H])[H])C([H])(C3([H])[H])C2([H])[H]

$$$$
43:0:2
     RDKit          3D

 57 61  0  0  1  0  0  0  0  0999 V2000
    1.5359   -5.8604    0.3676 O   0  0  0  0  0  0  0  0  0  0  0  0
    2.3861   -5.9061    1.2608 C   0  0  0  0  0  0  0  0  0  0  0  0
    3.2541   -4.9087    1.4706 N   0  0  0  0  0  0  0  0  0  0  0  0
    3.3299   -3.6995    0.6477 C   0  0  2  0  0  0  0  0  0  0  0  0
    4.0662   -3.9794   -0.6903 C   0  0  1  0  0  0  0  0  0  0  0  0
    3.5576   -3.1023   -1.8517 C   0  0  0  0  0  0  0  0  0  0  0  0
    3.8236   -1.5839   -1.7973 C   0  0  0  0  0  0  0  0  0  0  0  0
    4.5381   -1.0128   -0.5557 C   0  0  1  0  0  0  0  0  0  0  0  0
    3.7470   -1.1824    0.7626 C   0  0  0  0  0  0  0  0  0  0  0  0
    3.9732   -2.5480    1.4447 C   0  0  2  0  0  0  0  0  0  0  0  0
    5.4803   -2.7845    1.6452 C   0  0  0  0  0  0  0  0  0  0  0  0
    6.1618   -2.8276    0.2697 C   0  0  2  0  0  0  0  0  0  0  0  0
    7.5378   -3.0424    0.4453 O   0  0  0  0  0  0  0  0  0  0  0  0
    6.0022   -1.4708   -0.4315 C   0  0  0  0  0  0  0  0  0  0  0  0
    5.5989   -3.9984   -0.5520 C   0  0  0  0  0  0  0  0  0  0  0  0
    2.4342   -7.1043    2.2372 C   0  0  2  0  0  0  0  0  0  0  0  0
    3.7998   -7.7518    2.2571 C   0  0  0  0  0  0  0  0  0  0  0  0
    4.6838   -7.8078    3.3024 C   0  0  0  0  0  0  0  0  0  0  0  0
    5.8719   -8.5324    3.0018 C   0  0  0  0  0  0  0  0  0  0  0  0
    5.8796   -9.0218    1.7282 C   0  0  0  0  0  0  0  0  0  0  0  0
    4.4234   -8.6130    0.8686 S   0  0  0  0  0  0  0  0  0  0  0  0
    1.2893   -8.1270    2.0362 C   0  0  0  0  0  0  0  0  0  0  0  0
   -0.1248   -7.5266    2.2382 C   0  0  0  0  0  0  0  0  0  0  0  0
   -0.6841   -8.1640    3.5047 C   0  0  0  0  0  0  0  0  0  0  0  0
   -0.0446   -9.5425    3.5578 C   0  0  0  0  0  0  0  0  0  0  0  0
    1.3664   -9.3326    3.0054 C   0  0  0  0  0  0  0  0  0  0  0  0
    3.9245   -5.0046    2.2253 H   0  0  0  0  0  0  0  0  0  0  0  0
    2.3018   -3.3908    0.4249 H   0  0  0  0  0  0  0  0  0  0  0  0
    3.8162   -4.9949   -0.9879 H   0  0  0  0  0  0  0  0  0  0  0  0
    3.9712   -3.4884   -2.7842 H   0  0  0  0  0  0  0  0  0  0  0  0
    2.4798   -3.2498   -1.9458 H   0  0  0  0  0  0  0  0  0  0  0  0
    4.3952   -1.3007   -2.6830 H   0  0  0  0  0  0  0  0  0  0  0  0
    2.8710   -1.0642   -1.9175 H   0  0  0  0  0  0  0  0  0  0  0  0
    4.5819    0.0587   -0.7383 H   0  0  0  0  0  0  0  0  0  0  0  0
    4.0617   -0.3940    1.4526 H   0  0  0  0  0  0  0  0  0  0  0  0
    2.6829   -1.0110    0.5829 H   0  0  0  0  0  0  0  0  0  0  0  0
    3.4914   -2.5045    2.4212 H   0  0  0  0  0  0  0  0  0  0  0  0
    5.9064   -1.9821    2.2493 H   0  0  0  0  0  0  0  0  0  0  0  0
    5.6541   -3.7100    2.1933 H   0  0  0  0  0  0  0  0  0  0  0  0
    7.6437   -3.8435    0.9472 H   0  0  0  0  0  0  0  0  0  0  0  0
    6.4689   -1.5039   -1.4150 H   0  0  0  0  0  0  0  0  0  0  0  0
    6.5445   -0.7190    0.1446 H   0  0  0  0  0  0  0  0  0  0  0  0
    5.8757   -4.9362   -0.0681 H   0  0  0  0  0  0  0  0  0  0  0  0
    6.0565   -4.0227   -1.5398 H   0  0  0  0  0  0  0  0  0  0  0  0
    2.2870   -6.6790    3.2301 H   0  0  0  0  0  0  0  0  0  0  0  0
    4.5121   -7.3784    4.2797 H   0  0  0  0  0  0  0  0  0  0  0  0
    6.6654   -8.6772    3.7214 H   0  0  0  0  0  0  0  0  0  0  0  0
    6.6407   -9.6214    1.2290 H   0  0  0  0  0  0  0  0  0  0  0  0
    1.3617   -8.5221    1.0190 H   0  0  0  0  0  0  0  0  0  0  0  0
   -0.1411   -6.4403    2.3558 H   0  0  0  0  0  0  0  0  0  0  0  0
   -0.7429   -7.7712    1.3718 H   0  0  0  0  0  0  0  0  0  0  0  0
   -0.3609   -7.5737    4.3579 H   0  0  0  0  0  0  0  0  0  0  0  0
   -1.7724   -8.1964    3.5025 H   0  0  0  0  0  0  0  0  0  0  0  0
   -0.0295   -9.9476    4.5717 H   0  0  0  0  0  0  0  0  0  0  0  0
   -0.5929  -10.2361    2.9248 H   0  0  0  0  0  0  0  0  0  0  0  0
    1.7544  -10.2321    2.5178 H   0  0  0  0  0  0  0  0  0  0  0  0
    2.0298   -9.1126    3.8401 H   0  0  0  0  0  0  0  0  0  0  0  0
  1  2  2  0
  2  3  1  0
  2 16  1  0
  3  4  1  0
  3 27  1  0
  4 10  1  0
  4  5  1  0
  4 28  1  6
  5 15  1  0
  5  6  1  0
  5 29  1  6
  6  7  1  0
  6 30  1  0
  6 31  1  0
  7  8  1  0
  7 32  1  0
  7 33  1  0
  8 14  1  0
  8  9  1  0
  8 34  1  6
  9 10  1  0
  9 35  1  0
  9 36  1  0
 10 11  1  0
 10 37  1  1
 11 12  1  0
 11 38  1  0
 11 39  1  0
 12 13  1  1
 12 14  1  0
 12 15  1  0
 13 40  1  0
 14 41  1  0
 14 42  1  0
 15 43  1  0
 15 44  1  0
 16 17  1  0
 16 22  1  0
 16 45  1  1
 17 21  1  0
 17 18  2  0
 18 19  1  0
 18 46  1  0
 19 20  2  0
 19 47  1  0
 20 21  1  0
 20 48  1  0
 22 26  1  0
 22 23  1  0
 22 49  1  0
 23 24  1  0
 23 50  1  0
 23 51  1  0
 24 25  1  0
 24 52  1  0
 24 53  1  0
 25 26  1  0
 25 54  1  0
 25 55  1  0
 26 56  1  0
 26 57  1  0
M  END
>  <i_m_ct_stereo_status>  (151) 
1

>  <s_m_source_file>  (151) 
/var/tmp/pbs.5076255.sched01/tmp7rtc4ovb/41r77q45k8.sdf

>  <i_m_source_file_index>  (151) 
30

>  <i_lp_mmshare_version>  (151) 
48012

>  <i_f3d_flags>  (151) 
0

>  <s_epik_input>  (151) 
czFbY0hdW2NIXVtjSF1jMVtDQEhdKFtDSF0yW0NIMl1bQ0gyXVtDSDJdW0NIMl0yKUMoPU8pW05IXVtDQEBIXShbQ0BIXTNbQ0gyXVtDQF00NVtPSF0pW0NASF0oW0NIMl01KVtDSDJdW0NIMl1bQ0BASF0oW0NIMl0zKVtDSDJdNA==

>  <s_epik_cmdline>  (151) 
J2VwaWtfcHl0aG9uJywgJy1waHQnLCAnMi4wJywgJy1waCcsICc3LjAnLCAnLXRuJywgJzgnLCAnLW1hJywgJzIwMCcsICctaW1hZScsICc8aW5maWxlLm1hZT4nLCAnLW9tYWUnLCAnPG91dGZpbGUubWFlPic=

>  <r_lp_tautomer_probability>  (151) 
1

>  <r_epik_Ionization_Penalty>  (151) 
1.73337e-06

>  <r_epik_Ionization_Penalty_Charging>  (151) 
0

>  <r_epik_Ionization_Penalty_Neutral>  (151) 
1.73337e-06

>  <r_epik_State_Penalty>  (151) 
-0

>  <r_epik_Charging_Adjusted_Penalty>  (151) 
0

>  <i_epik_Tot_Q>  (151) 
0

>  <i_epik_Tot_abs_Q>  (151) 
0

>  <s_lp_Force_Field>  (151) 
OPLS3e

>  <r_lp_Energy>  (151) 
32.914

>  <b_lp_Chiralities_Consistent>  (151) 
1

>  <s_lp_Variant>  (151) 
43:0-1

>  <s_i_glide_gridfile>  (151) 
pfpi4k_grid

>  <i_i_glide_lignum>  (151) 
30

>  <i_i_glide_rotatable_bonds>  (151) 
6

>  <r_i_docking_score>  (151) 
-2.32857

>  <r_i_glide_ligand_efficiency>  (151) 
-0.0895604

>  <r_i_glide_ligand_efficiency_sa>  (151) 
-0.265322

>  <r_i_glide_ligand_efficiency_ln>  (151) 
-0.546857

>  <r_i_glide_gscore>  (151) 
-2.32857

>  <r_i_glide_lipo>  (151) 
-0.217575

>  <r_i_glide_hbond>  (151) 
-0.145002

>  <r_i_glide_metal>  (151) 
-0

>  <r_i_glide_rewards>  (151) 
-0.862138

>  <r_i_glide_evdw>  (151) 
-28.1424

>  <r_i_glide_ecoul>  (151) 
-2.43951

>  <r_i_glide_erotb>  (151) 
0.692493

>  <r_i_glide_esite>  (151) 
-0.0233011

>  <r_i_glide_emodel>  (151) 
-35.5179

>  <r_i_glide_energy>  (151) 
-30.5819

>  <r_i_glide_einternal>  (151) 
0.562798

>  <r_i_glide_intrahb_reward>  (151) 
-0

>  <i_i_glide_confnum>  (151) 
4

>  <i_i_glide_posenum>  (151) 
1

>  <r_i_glide_eff_state_penalty>  (151) 
0

>  <ligand_id>  (151) 
43

>  <original_smiles>  (151) 
O=C(NC1C2CCC3CC1CC(O)(C3)C2)C(c1cccs1)C1CCCC1

>  <smiles>  (151) 
[H]OC12C([H])([H])C3([H])C([H])([H])C([H])([H])C([H])(C1([H])[H])C([H])(N([H])C(=O)C([H])(c1sc([H])c([H])c1[H])C1([H])C([H])([H])C([H])([H])C([H])([H])C1([H])[H])C([H])(C3([H])[H])C2([H])[H]

$$$$
44:0:0
     RDKit          3D

 35 41  0  0  1  0  0  0  0  0999 V2000
    5.4567   -5.9874    1.8542 C   0  0  0  0  0  0  0  0  0  0  0  0
    4.9587   -4.5736    2.1811 C   0  0  2  0  0  0  0  0  0  0  0  0
    3.3799   -4.5663    2.2818 C   0  0  0  0  0  0  0  0  0  0  0  0
    2.8327   -4.8226    3.3527 O   0  0  0  0  0  0  0  0  0  0  0  0
    2.6472   -4.2160    1.1216 O   0  0  0  0  0  0  0  0  0  0  0  0
    3.3021   -4.1445   -0.1576 C   0  0  1  0  0  0  0  0  0  0  0  0
    3.1091   -3.1129   -1.3812 C   0  0  2  0  0  0  0  0  0  0  0  0
    4.0279   -3.0799   -2.7408 C   0  0  0  0  0  0  0  0  0  0  0  0
    5.4137   -3.3576   -2.8793 C   0  0  0  0  0  0  0  0  0  0  0  0
    6.5727   -3.0592   -1.7088 C   0  0  1  0  0  0  0  0  0  0  0  0
    5.9657   -1.9691   -0.9778 C   0  0  1  0  0  0  0  0  0  0  0  0
    4.7038   -1.0986   -1.1326 C   0  0  1  0  0  0  0  0  0  0  0  0
    4.2315   -0.7849   -2.5711 C   0  0  0  0  0  0  0  0  0  0  0  0
    3.8082   -1.8009   -3.3551 C   0  0  0  0  0  0  0  0  0  0  0  0
    3.7094   -2.0203   -0.4398 C   0  0  2  0  0  0  0  0  0  0  0  0
    4.3910   -3.2056    0.2626 C   0  0  1  0  0  0  0  0  0  0  0  0
    5.5253   -3.4488    1.2480 C   0  0  2  0  0  0  0  0  0  0  0  0
    6.6527   -3.5984    0.0109 C   0  0  2  0  0  0  0  0  0  0  0  0
    5.4636   -3.4423   -0.5128 C   0  0  2  0  0  0  0  0  0  0  0  0
    5.1150   -6.6930    2.6161 H   0  0  0  0  0  0  0  0  0  0  0  0
    6.5427   -6.0217    1.8424 H   0  0  0  0  0  0  0  0  0  0  0  0
    5.0846   -6.3363    0.8880 H   0  0  0  0  0  0  0  0  0  0  0  0
    5.2890   -4.3612    3.1991 H   0  0  0  0  0  0  0  0  0  0  0  0
    3.5869   -5.1405   -0.4994 H   0  0  0  0  0  0  0  0  0  0  0  0
    2.0537   -2.9315   -1.6059 H   0  0  0  0  0  0  0  0  0  0  0  0
    5.8420   -3.0903   -3.8361 H   0  0  0  0  0  0  0  0  0  0  0  0
    7.5432   -2.7761   -2.1243 H   0  0  0  0  0  0  0  0  0  0  0  0
    6.7047   -1.4134   -0.3737 H   0  0  0  0  0  0  0  0  0  0  0  0
    4.8213   -0.1779   -0.5709 H   0  0  0  0  0  0  0  0  0  0  0  0
    4.1670    0.2529   -2.8658 H   0  0  0  0  0  0  0  0  0  0  0  0
    3.3892   -1.6616   -4.3494 H   0  0  0  0  0  0  0  0  0  0  0  0
    2.9477   -1.5469    0.1851 H   0  0  0  0  0  0  0  0  0  0  0  0
    5.7173   -2.5294    1.8003 H   0  0  0  0  0  0  0  0  0  0  0  0
    7.0721   -4.6082    0.0286 H   0  0  0  0  0  0  0  0  0  0  0  0
    5.3535   -4.5027   -0.9059 H   0  0  0  0  0  0  0  0  0  0  0  0
  1  2  1  0
  1 20  1  0
  1 21  1  0
  1 22  1  0
  2 17  1  0
  2  3  1  0
  2 23  1  1
  3  4  2  0
  3  5  1  0
  5  6  1  0
 16  6  1  1
  6  7  1  0
  6 24  1  6
  7 15  1  0
  7  8  1  0
  7 25  1  6
  8 14  1  0
  8  9  2  0
  9 10  1  0
  9 26  1  0
 10 18  1  0
 10 11  1  0
 10 27  1  6
 11 19  1  0
 11 12  1  0
 11 28  1  1
 12 13  1  0
 12 15  1  0
 12 29  1  1
 13 14  2  0
 13 30  1  0
 14 31  1  0
 15 16  1  0
 15 32  1  1
 16 19  1  0
 16 17  1  0
 17 18  1  0
 17 33  1  1
 18 19  1  0
 18 34  1  1
 19 35  1  6
M  END
>  <i_m_ct_stereo_status>  (152) 
1

>  <s_m_source_file>  (152) 
/var/tmp/pbs.5076255.sched01/tmp7rtc4ovb/41r77q45k8.sdf

>  <i_m_source_file_index>  (152) 
31

>  <i_lp_mmshare_version>  (152) 
48012

>  <i_f3d_flags>  (152) 
0

>  <s_epik_input>  (152) 
Tz1DKE8xKVtDQEBIXShbQ0gzXSlbQ0BIXTJbQ0BIXTNbQ0BASF00W0NASF0oW0NASF0oW0NAQEhdNTYpW0NIXT1bQ0hdNylbQ0BASF0zW0NIXT1DN1tDQEhdNVtDQEhdMVtDQEBdMjQ2

>  <s_epik_cmdline>  (152) 
J2VwaWtfcHl0aG9uJywgJy1waHQnLCAnMi4wJywgJy1waCcsICc3LjAnLCAnLXRuJywgJzgnLCAnLW1hJywgJzIwMCcsICctaW1hZScsICc8aW5maWxlLm1hZT4nLCAnLW9tYWUnLCAnPG91dGZpbGUubWFlPic=

>  <r_lp_tautomer_probability>  (152) 
1

>  <r_epik_Ionization_Penalty>  (152) 
1.04821e-09

>  <r_epik_Ionization_Penalty_Charging>  (152) 
0

>  <r_epik_Ionization_Penalty_Neutral>  (152) 
1.04821e-09

>  <r_epik_State_Penalty>  (152) 
-0

>  <r_epik_Charging_Adjusted_Penalty>  (152) 
0

>  <i_epik_Tot_Q>  (152) 
0

>  <i_epik_Tot_abs_Q>  (152) 
0

>  <s_epik_Chemistry_Notes>  (152) 
This compound has an ester and may undergo hydrolysis at high or low pH.

>  <s_lp_Force_Field>  (152) 
OPLS3e

>  <r_lp_Energy>  (152) 
426.038

>  <b_lp_Chiralities_Consistent>  (152) 
1

>  <s_lp_Variant>  (152) 
44:0-1

>  <s_i_glide_gridfile>  (152) 
pfpi4k_grid

>  <i_i_glide_lignum>  (152) 
31

>  <i_i_glide_rotatable_bonds>  (152) 
0

>  <r_i_docking_score>  (152) 
-3.7825

>  <r_i_glide_ligand_efficiency>  (152) 
-0.199079

>  <r_i_glide_ligand_efficiency_sa>  (152) 
-0.531222

>  <r_i_glide_ligand_efficiency_ln>  (152) 
-0.958944

>  <r_i_glide_gscore>  (152) 
-3.7825

>  <r_i_glide_lipo>  (152) 
-0.812261

>  <r_i_glide_hbond>  (152) 
0

>  <r_i_glide_metal>  (152) 
-0

>  <r_i_glide_rewards>  (152) 
-1.68959

>  <r_i_glide_evdw>  (152) 
-24.511

>  <r_i_glide_ecoul>  (152) 
-0.367333

>  <r_i_glide_erotb>  (152) 
0

>  <r_i_glide_esite>  (152) 
0

>  <r_i_glide_emodel>  (152) 
-30.8058

>  <r_i_glide_energy>  (152) 
-24.8783

>  <r_i_glide_einternal>  (152) 
0

>  <r_i_glide_intrahb_reward>  (152) 
-0

>  <i_i_glide_confnum>  (152) 
2

>  <i_i_glide_posenum>  (152) 
17

>  <r_i_glide_eff_state_penalty>  (152) 
0

>  <ligand_id>  (152) 
44

>  <original_smiles>  (152) 
CC1C(=O)OC2C3C4=CC5C6C(C=C4)C3C23C1C5C63

>  <smiles>  (152) 
[H]C1=C([H])C2([H])C3([H])C4([H])C([H])=C1C1([H])C5([H])OC(=O)C([H])(C([H])([H])[H])C6([H])C4([H])C3([H])C56C12[H]

$$$$
44:0:1
     RDKit          3D

 35 41  0  0  1  0  0  0  0  0999 V2000
    3.8765   -3.3087    4.3080 C   0  0  0  0  0  0  0  0  0  0  0  0
    2.8250   -3.0101    3.2298 C   0  0  2  0  0  0  0  0  0  0  0  0
    2.2207   -4.3632    2.6772 C   0  0  0  0  0  0  0  0  0  0  0  0
    1.2553   -4.8714    3.2440 O   0  0  0  0  0  0  0  0  0  0  0  0
    2.8078   -4.9148    1.5024 O   0  0  0  0  0  0  0  0  0  0  0  0
    4.0673   -4.4195    1.0153 C   0  0  1  0  0  0  0  0  0  0  0  0
    4.5899   -4.1669   -0.4830 C   0  0  2  0  0  0  0  0  0  0  0  0
    6.0122   -3.4652   -0.8771 C   0  0  0  0  0  0  0  0  0  0  0  0
    6.7102   -2.4168   -0.2178 C   0  0  0  0  0  0  0  0  0  0  0  0
    5.9711   -1.1749    0.6363 C   0  0  1  0  0  0  0  0  0  0  0  0
    4.6962   -1.0980   -0.0391 C   0  0  1  0  0  0  0  0  0  0  0  0
    4.0230   -1.7661   -1.2612 C   0  0  1  0  0  0  0  0  0  0  0  0
    4.9474   -2.1303   -2.4372 C   0  0  0  0  0  0  0  0  0  0  0  0
    5.9158   -3.0634   -2.2570 C   0  0  0  0  0  0  0  0  0  0  0  0
    3.5149   -3.0373   -0.5719 C   0  0  2  0  0  0  0  0  0  0  0  0
    3.6580   -2.9776    0.9538 C   0  0  1  0  0  0  0  0  0  0  0  0
    3.3149   -2.0407    2.1032 C   0  0  2  0  0  0  0  0  0  0  0  0
    4.7817   -1.2400    1.9775 C   0  0  2  0  0  0  0  0  0  0  0  0
    4.7568   -2.2139    1.1240 C   0  0  2  0  0  0  0  0  0  0  0  0
    3.4321   -3.8937    5.1166 H   0  0  0  0  0  0  0  0  0  0  0  0
    4.2526   -2.3841    4.7437 H   0  0  0  0  0  0  0  0  0  0  0  0
    4.7177   -3.8744    3.9087 H   0  0  0  0  0  0  0  0  0  0  0  0
    1.9874   -2.5410    3.7365 H   0  0  0  0  0  0  0  0  0  0  0  0
    4.8809   -4.6940    1.6911 H   0  0  0  0  0  0  0  0  0  0  0  0
    4.3557   -5.0104   -1.1345 H   0  0  0  0  0  0  0  0  0  0  0  0
    7.5368   -2.0015   -0.7645 H   0  0  0  0  0  0  0  0  0  0  0  0
    6.5068   -0.2299    0.5635 H   0  0  0  0  0  0  0  0  0  0  0  0
    4.2044   -0.1281    0.1541 H   0  0  0  0  0  0  0  0  0  0  0  0
    3.1999   -1.1549   -1.6188 H   0  0  0  0  0  0  0  0  0  0  0  0
    4.7249   -1.6918   -3.3961 H   0  0  0  0  0  0  0  0  0  0  0  0
    6.5527   -3.4319   -3.0447 H   0  0  0  0  0  0  0  0  0  0  0  0
    2.5434   -3.4145   -0.8870 H   0  0  0  0  0  0  0  0  0  0  0  0
    2.5179   -1.3759    1.7695 H   0  0  0  0  0  0  0  0  0  0  0  0
    5.3458   -1.3974    2.9059 H   0  0  0  0  0  0  0  0  0  0  0  0
    5.5113   -2.8749    1.6665 H   0  0  0  0  0  0  0  0  0  0  0  0
  1  2  1  0
  1 20  1  0
  1 21  1  0
  1 22  1  0
  2 17  1  0
  2  3  1  0
  2 23  1  1
  3  4  2  0
  3  5  1  0
  5  6  1  0
 16  6  1  1
  6  7  1  0
  6 24  1  1
  7 15  1  0
  7  8  1  0
  7 25  1  6
  8 14  1  0
  8  9  2  0
  9 10  1  0
  9 26  1  0
 10 18  1  0
 10 11  1  0
 10 27  1  1
 11 19  1  0
 11 12  1  0
 11 28  1  1
 12 13  1  0
 12 15  1  0
 12 29  1  6
 13 14  2  0
 13 30  1  0
 14 31  1  0
 15 16  1  0
 15 32  1  1
 16 19  1  0
 16 17  1  0
 17 18  1  0
 17 33  1  6
 18 19  1  0
 18 34  1  1
 19 35  1  6
M  END
>  <i_m_ct_stereo_status>  (153) 
1

>  <s_m_source_file>  (153) 
/var/tmp/pbs.5076255.sched01/tmp7rtc4ovb/41r77q45k8.sdf

>  <i_m_source_file_index>  (153) 
31

>  <i_lp_mmshare_version>  (153) 
48012

>  <i_f3d_flags>  (153) 
0

>  <s_epik_input>  (153) 
Tz1DKE8xKVtDQEBIXShbQ0gzXSlbQ0BIXTJbQ0BIXTNbQ0BASF00W0NASF0oW0NASF0oW0NAQEhdNTYpW0NIXT1bQ0hdNylbQ0BASF0zW0NIXT1DN1tDQEhdNVtDQEhdMVtDQEBdMjQ2

>  <s_epik_cmdline>  (153) 
J2VwaWtfcHl0aG9uJywgJy1waHQnLCAnMi4wJywgJy1waCcsICc3LjAnLCAnLXRuJywgJzgnLCAnLW1hJywgJzIwMCcsICctaW1hZScsICc8aW5maWxlLm1hZT4nLCAnLW9tYWUnLCAnPG91dGZpbGUubWFlPic=

>  <r_lp_tautomer_probability>  (153) 
1

>  <r_epik_Ionization_Penalty>  (153) 
1.04821e-09

>  <r_epik_Ionization_Penalty_Charging>  (153) 
0

>  <r_epik_Ionization_Penalty_Neutral>  (153) 
1.04821e-09

>  <r_epik_State_Penalty>  (153) 
-0

>  <r_epik_Charging_Adjusted_Penalty>  (153) 
0

>  <i_epik_Tot_Q>  (153) 
0

>  <i_epik_Tot_abs_Q>  (153) 
0

>  <s_epik_Chemistry_Notes>  (153) 
This compound has an ester and may undergo hydrolysis at high or low pH.

>  <s_lp_Force_Field>  (153) 
OPLS3e

>  <r_lp_Energy>  (153) 
426.038

>  <b_lp_Chiralities_Consistent>  (153) 
1

>  <s_lp_Variant>  (153) 
44:0-1

>  <s_i_glide_gridfile>  (153) 
pfpi4k_grid

>  <i_i_glide_lignum>  (153) 
31

>  <i_i_glide_rotatable_bonds>  (153) 
0

>  <r_i_docking_score>  (153) 
-3.37428

>  <r_i_glide_ligand_efficiency>  (153) 
-0.177594

>  <r_i_glide_ligand_efficiency_sa>  (153) 
-0.473892

>  <r_i_glide_ligand_efficiency_ln>  (153) 
-0.855453

>  <r_i_glide_gscore>  (153) 
-3.37428

>  <r_i_glide_lipo>  (153) 
-0.564968

>  <r_i_glide_hbond>  (153) 
0

>  <r_i_glide_metal>  (153) 
-0

>  <r_i_glide_rewards>  (153) 
-1.68881

>  <r_i_glide_evdw>  (153) 
-21.9811

>  <r_i_glide_ecoul>  (153) 
-0.0946186

>  <r_i_glide_erotb>  (153) 
0

>  <r_i_glide_esite>  (153) 
-0.00725629

>  <r_i_glide_emodel>  (153) 
-27.3673

>  <r_i_glide_energy>  (153) 
-22.0757

>  <r_i_glide_einternal>  (153) 
0

>  <r_i_glide_intrahb_reward>  (153) 
-0

>  <i_i_glide_confnum>  (153) 
1

>  <i_i_glide_posenum>  (153) 
38

>  <r_i_glide_eff_state_penalty>  (153) 
0

>  <ligand_id>  (153) 
44

>  <original_smiles>  (153) 
CC1C(=O)OC2C3C4=CC5C6C(C=C4)C3C23C1C5C63

>  <smiles>  (153) 
[H]C1=C([H])C2([H])C3([H])C4([H])C([H])=C1C1([H])C5([H])OC(=O)C([H])(C([H])([H])[H])C6([H])C4([H])C3([H])C56C12[H]

$$$$
44:0:2
     RDKit          3D

 35 41  0  0  1  0  0  0  0  0999 V2000
    4.2150   -2.7198    4.5928 C   0  0  0  0  0  0  0  0  0  0  0  0
    3.1811   -2.2185    3.5744 C   0  0  2  0  0  0  0  0  0  0  0  0
    2.2208   -3.3956    3.1586 C   0  0  0  0  0  0  0  0  0  0  0  0
    1.2005   -3.6169    3.8256 O   0  0  0  0  0  0  0  0  0  0  0  0
    2.5467   -4.1467    1.9955 O   0  0  0  0  0  0  0  0  0  0  0  0
    3.8431   -4.0138    1.3845 C   0  0  1  0  0  0  0  0  0  0  0  0
    4.2763   -3.9818   -0.1655 C   0  0  2  0  0  0  0  0  0  0  0  0
    5.7916   -3.6808   -0.7089 C   0  0  0  0  0  0  0  0  0  0  0  0
    6.7818   -2.8132   -0.1804 C   0  0  0  0  0  0  0  0  0  0  0  0
    6.4513   -1.3861    0.6422 C   0  0  1  0  0  0  0  0  0  0  0  0
    5.1842   -1.0213    0.0549 C   0  0  1  0  0  0  0  0  0  0  0  0
    4.2597   -1.5560   -1.0683 C   0  0  1  0  0  0  0  0  0  0  0  0
    4.9597   -2.1987   -2.2811 C   0  0  0  0  0  0  0  0  0  0  0  0
    5.6731   -3.3304   -2.1055 C   0  0  0  0  0  0  0  0  0  0  0  0
    3.5143   -2.6197   -0.2558 C   0  0  2  0  0  0  0  0  0  0  0  0
    3.7991   -2.5186    1.2466 C   0  0  1  0  0  0  0  0  0  0  0  0
    3.7987   -1.4656    2.3465 C   0  0  2  0  0  0  0  0  0  0  0  0
    5.4044   -1.0741    2.0612 C   0  0  2  0  0  0  0  0  0  0  0  0
    5.0689   -2.0570    1.2882 C   0  0  2  0  0  0  0  0  0  0  0  0
    3.7092   -3.1268    5.4694 H   0  0  0  0  0  0  0  0  0  0  0  0
    4.8483   -1.8999    4.9337 H   0  0  0  0  0  0  0  0  0  0  0  0
    4.8497   -3.5019    4.1799 H   0  0  0  0  0  0  0  0  0  0  0  0
    2.5363   -1.5235    4.1050 H   0  0  0  0  0  0  0  0  0  0  0  0
    4.6138   -4.4479    2.0231 H   0  0  0  0  0  0  0  0  0  0  0  0
    3.7815   -4.7642   -0.7399 H   0  0  0  0  0  0  0  0  0  0  0  0
    7.6260   -2.6329   -0.8248 H   0  0  0  0  0  0  0  0  0  0  0  0
    7.2101   -0.6198    0.4856 H   0  0  0  0  0  0  0  0  0  0  0  0
    4.9599    0.0483    0.2119 H   0  0  0  0  0  0  0  0  0  0  0  0
    3.5880   -0.7739   -1.4093 H   0  0  0  0  0  0  0  0  0  0  0  0
    4.7700   -1.7708   -3.2532 H   0  0  0  0  0  0  0  0  0  0  0  0
    6.1335   -3.8730   -2.9122 H   0  0  0  0  0  0  0  0  0  0  0  0
    2.4570   -2.7493   -0.4732 H   0  0  0  0  0  0  0  0  0  0  0  0
    3.1680   -0.6375    2.0253 H   0  0  0  0  0  0  0  0  0  0  0  0
    5.9881   -1.3053    2.9569 H   0  0  0  0  0  0  0  0  0  0  0  0
    5.6778   -2.8590    1.8194 H   0  0  0  0  0  0  0  0  0  0  0  0
  1  2  1  0
  1 20  1  0
  1 21  1  0
  1 22  1  0
  2 17  1  0
  2  3  1  0
  2 23  1  1
  3  4  2  0
  3  5  1  0
  5  6  1  0
 16  6  1  1
  6  7  1  0
  6 24  1  1
  7 15  1  0
  7  8  1  0
  7 25  1  6
  8 14  1  0
  8  9  2  0
  9 10  1  0
  9 26  1  0
 10 18  1  0
 10 11  1  0
 10 27  1  6
 11 19  1  0
 11 12  1  0
 11 28  1  1
 12 13  1  0
 12 15  1  0
 12 29  1  6
 13 14  2  0
 13 30  1  0
 14 31  1  0
 15 16  1  0
 15 32  1  1
 16 19  1  0
 16 17  1  0
 17 18  1  0
 17 33  1  6
 18 19  1  0
 18 34  1  1
 19 35  1  6
M  END
>  <i_m_ct_stereo_status>  (154) 
1

>  <s_m_source_file>  (154) 
/var/tmp/pbs.5076255.sched01/tmp7rtc4ovb/41r77q45k8.sdf

>  <i_m_source_file_index>  (154) 
31

>  <i_lp_mmshare_version>  (154) 
48012

>  <i_f3d_flags>  (154) 
0

>  <s_epik_input>  (154) 
Tz1DKE8xKVtDQEBIXShbQ0gzXSlbQ0BIXTJbQ0BIXTNbQ0BASF00W0NASF0oW0NASF0oW0NAQEhdNTYpW0NIXT1bQ0hdNylbQ0BASF0zW0NIXT1DN1tDQEhdNVtDQEhdMVtDQEBdMjQ2

>  <s_epik_cmdline>  (154) 
J2VwaWtfcHl0aG9uJywgJy1waHQnLCAnMi4wJywgJy1waCcsICc3LjAnLCAnLXRuJywgJzgnLCAnLW1hJywgJzIwMCcsICctaW1hZScsICc8aW5maWxlLm1hZT4nLCAnLW9tYWUnLCAnPG91dGZpbGUubWFlPic=

>  <r_lp_tautomer_probability>  (154) 
1

>  <r_epik_Ionization_Penalty>  (154) 
1.04821e-09

>  <r_epik_Ionization_Penalty_Charging>  (154) 
0

>  <r_epik_Ionization_Penalty_Neutral>  (154) 
1.04821e-09

>  <r_epik_State_Penalty>  (154) 
-0

>  <r_epik_Charging_Adjusted_Penalty>  (154) 
0

>  <i_epik_Tot_Q>  (154) 
0

>  <i_epik_Tot_abs_Q>  (154) 
0

>  <s_epik_Chemistry_Notes>  (154) 
This compound has an ester and may undergo hydrolysis at high or low pH.

>  <s_lp_Force_Field>  (154) 
OPLS3e

>  <r_lp_Energy>  (154) 
426.038

>  <b_lp_Chiralities_Consistent>  (154) 
1

>  <s_lp_Variant>  (154) 
44:0-1

>  <s_i_glide_gridfile>  (154) 
pfpi4k_grid

>  <i_i_glide_lignum>  (154) 
31

>  <i_i_glide_rotatable_bonds>  (154) 
0

>  <r_i_docking_score>  (154) 
-3.30927

>  <r_i_glide_ligand_efficiency>  (154) 
-0.174172

>  <r_i_glide_ligand_efficiency_sa>  (154) 
-0.464761

>  <r_i_glide_ligand_efficiency_ln>  (154) 
-0.838971

>  <r_i_glide_gscore>  (154) 
-3.30927

>  <r_i_glide_lipo>  (154) 
-0.620978

>  <r_i_glide_hbond>  (154) 
0

>  <r_i_glide_metal>  (154) 
-0

>  <r_i_glide_rewards>  (154) 
-1.68881

>  <r_i_glide_evdw>  (154) 
-21.6081

>  <r_i_glide_ecoul>  (154) 
0.540317

>  <r_i_glide_erotb>  (154) 
0

>  <r_i_glide_esite>  (154) 
-0.000123301

>  <r_i_glide_emodel>  (154) 
-26.2461

>  <r_i_glide_energy>  (154) 
-21.0678

>  <r_i_glide_einternal>  (154) 
0

>  <r_i_glide_intrahb_reward>  (154) 
-0

>  <i_i_glide_confnum>  (154) 
2

>  <i_i_glide_posenum>  (154) 
7

>  <r_i_glide_eff_state_penalty>  (154) 
0

>  <ligand_id>  (154) 
44

>  <original_smiles>  (154) 
CC1C(=O)OC2C3C4=CC5C6C(C=C4)C3C23C1C5C63

>  <smiles>  (154) 
[H]C1=C([H])C2([H])C3([H])C4([H])C([H])=C1C1([H])C5([H])OC(=O)C([H])(C([H])([H])[H])C6([H])C4([H])C3([H])C56C12[H]

$$$$
45:0:0
     RDKit          3D

 41 44  0  0  1  0  0  0  0  0999 V2000
    3.0322   -1.2613   -3.8853 C   0  0  0  0  0  0  0  0  0  0  0  0
    2.9180   -2.8055   -3.7797 C   0  0  0  0  0  0  0  0  0  0  0  0
    3.6428   -3.4163   -2.6264 N   0  0  1  0  0  0  0  0  0  0  0  0
    5.1291   -3.3128   -2.6796 C   0  0  0  0  0  0  0  0  0  0  0  0
    5.5599   -2.7236   -1.3095 C   0  0  1  0  0  0  0  0  0  0  0  0
    4.3382   -1.8552   -1.0128 C   0  0  2  0  0  0  0  0  0  0  0  0
    4.2527   -0.9849    0.2582 C   0  0  0  0  0  0  0  0  0  0  0  0
    5.5920   -0.6522    0.9194 C   0  0  0  0  0  0  0  0  0  0  0  0
    6.5768   -1.8115    1.1518 C   0  0  0  0  0  0  0  0  0  0  0  0
    6.0592   -3.1957    1.0749 N   0  0  0  0  0  0  0  0  0  0  0  0
    5.2417   -3.6435    2.2310 C   0  0  0  0  0  0  0  0  0  0  0  0
    3.7228   -3.5512    2.2284 C   0  0  0  0  0  0  0  0  0  0  0  0
    2.8997   -3.7163    1.1648 C   0  0  0  0  0  0  0  0  0  0  0  0
    3.3082   -4.1031   -0.2530 C   0  0  2  0  0  0  0  0  0  0  0  0
    4.7068   -4.7606   -0.2735 C   0  0  0  0  0  0  0  0  0  0  0  0
    5.7796   -3.7437   -0.2427 N   0  0  0  0  0  0  0  0  0  0  0  0
    3.2401   -2.9162   -1.2877 C   0  0  2  0  0  0  0  0  0  0  0  0
    2.5020   -0.8826   -4.7605 H   0  0  0  0  0  0  0  0  0  0  0  0
    4.0621   -0.9141   -3.9690 H   0  0  0  0  0  0  0  0  0  0  0  0
    2.5902   -0.7691   -3.0172 H   0  0  0  0  0  0  0  0  0  0  0  0
    1.8614   -3.0719   -3.7109 H   0  0  0  0  0  0  0  0  0  0  0  0
    3.2900   -3.2561   -4.7032 H   0  0  0  0  0  0  0  0  0  0  0  0
    5.6048   -4.2661   -2.9054 H   0  0  0  0  0  0  0  0  0  0  0  0
    5.4312   -2.6326   -3.4773 H   0  0  0  0  0  0  0  0  0  0  0  0
    6.4616   -2.1268   -1.4323 H   0  0  0  0  0  0  0  0  0  0  0  0
    4.3760   -1.0911   -1.7794 H   0  0  0  0  0  0  0  0  0  0  0  0
    3.8240   -0.0307   -0.0298 H   0  0  0  0  0  0  0  0  0  0  0  0
    3.5322   -1.3296    0.9911 H   0  0  0  0  0  0  0  0  0  0  0  0
    6.1061    0.1121    0.3325 H   0  0  0  0  0  0  0  0  0  0  0  0
    5.3679   -0.1811    1.8770 H   0  0  0  0  0  0  0  0  0  0  0  0
    7.4155   -1.7298    0.4609 H   0  0  0  0  0  0  0  0  0  0  0  0
    7.0167   -1.6534    2.1277 H   0  0  0  0  0  0  0  0  0  0  0  0
    5.4951   -4.6848    2.4347 H   0  0  0  0  0  0  0  0  0  0  0  0
    5.5890   -3.0964    3.1089 H   0  0  0  0  0  0  0  0  0  0  0  0
    3.2835   -3.2979    3.1834 H   0  0  0  0  0  0  0  0  0  0  0  0
    1.8419   -3.5622    1.3241 H   0  0  0  0  0  0  0  0  0  0  0  0
    2.5835   -4.8698   -0.5396 H   0  0  0  0  0  0  0  0  0  0  0  0
    4.8348   -5.4827    0.5336 H   0  0  0  0  0  0  0  0  0  0  0  0
    4.8159   -5.3600   -1.1734 H   0  0  0  0  0  0  0  0  0  0  0  0
    2.2262   -2.5127   -1.3079 H   0  0  0  0  0  0  0  0  0  0  0  0
    3.4097   -4.4117   -2.6530 H   0  0  0  0  0  0  0  0  0  0  0  0
  1  2  1  0
  1 18  1  0
  1 19  1  0
  1 20  1  0
  2  3  1  0
  2 21  1  0
  2 22  1  0
  3 17  1  0
  3  4  1  0
  3 41  1  1
  4  5  1  0
  4 23  1  0
  4 24  1  0
  5 16  1  0
  5  6  1  0
  5 25  1  6
  6 17  1  0
  6  7  1  0
  6 26  1  6
  7  8  1  0
  7 27  1  0
  7 28  1  0
  8  9  1  0
  8 29  1  0
  8 30  1  0
  9 10  1  0
  9 31  1  0
  9 32  1  0
 10 16  1  0
 10 11  1  0
 11 12  1  0
 11 33  1  0
 11 34  1  0
 12 13  2  0
 12 35  1  0
 13 14  1  0
 13 36  1  0
 14 15  1  0
 14 17  1  0
 14 37  1  6
 15 16  1  0
 15 38  1  0
 15 39  1  0
 17 40  1  6
M  CHG  1   3   1
M  END
>  <i_m_ct_stereo_status>  (155) 
1

>  <s_m_source_file>  (155) 
/var/tmp/pbs.5076255.sched01/tmp7rtc4ovb/41r77q45k8.sdf

>  <i_m_source_file_index>  (155) 
32

>  <i_lp_mmshare_version>  (155) 
48012

>  <i_f3d_flags>  (155) 
0

>  <s_epik_input>  (155) 
W0NIM11bQ0gyXU4oW0NIMl0xKVtDQEhdKFtDQEBIXTJbQ0BIXTEzKVtDQEBIXTRbQ0hdPVtDSF1bQ0gyXU4oTjNbQ0gyXTQpW0NIMl1bQ0gyXVtDSDJdMg==

>  <s_epik_cmdline>  (155) 
J2VwaWtfcHl0aG9uJywgJy1waHQnLCAnMi4wJywgJy1waCcsICc3LjAnLCAnLXRuJywgJzgnLCAnLW1hJywgJzIwMCcsICctaW1hZScsICc8aW5maWxlLm1hZT4nLCAnLW9tYWUnLCAnPG91dGZpbGUubWFlPic=

>  <r_lp_tautomer_probability>  (155) 
1

>  <r_epik_Ionization_Penalty>  (155) 
0.00467574

>  <r_epik_Ionization_Penalty_Charging>  (155) 
0.000755643

>  <r_epik_Ionization_Penalty_Neutral>  (155) 
0.00392009

>  <r_epik_State_Penalty>  (155) 
-0

>  <r_epik_Charging_Adjusted_Penalty>  (155) 
0.000755643

>  <i_epik_Tot_Q>  (155) 
1

>  <i_epik_Tot_abs_Q>  (155) 
1

>  <s_lp_Force_Field>  (155) 
OPLS3e

>  <r_lp_Energy>  (155) 
67.3139

>  <b_lp_Chiralities_Consistent>  (155) 
1

>  <s_lp_Variant>  (155) 
45:0-1

>  <s_i_glide_gridfile>  (155) 
pfpi4k_grid

>  <i_i_glide_lignum>  (155) 
32

>  <i_i_glide_rotatable_bonds>  (155) 
1

>  <r_i_docking_score>  (155) 
-4.8745

>  <r_i_glide_ligand_efficiency>  (155) 
-0.286735

>  <r_i_glide_ligand_efficiency_sa>  (155) 
-0.737277

>  <r_i_glide_ligand_efficiency_ln>  (155) 
-1.27165

>  <r_i_glide_gscore>  (155) 
-4.8745

>  <r_i_glide_lipo>  (155) 
-0.756222

>  <r_i_glide_hbond>  (155) 
0

>  <r_i_glide_metal>  (155) 
-0

>  <r_i_glide_rewards>  (155) 
-2.01403

>  <r_i_glide_evdw>  (155) 
-23.1805

>  <r_i_glide_ecoul>  (155) 
-6.03001

>  <r_i_glide_erotb>  (155) 
0

>  <r_i_glide_esite>  (155) 
-0.0407281

>  <r_i_glide_emodel>  (155) 
-36.239

>  <r_i_glide_energy>  (155) 
-29.2105

>  <r_i_glide_einternal>  (155) 
4.05951

>  <r_i_glide_intrahb_reward>  (155) 
-0

>  <i_i_glide_confnum>  (155) 
1

>  <i_i_glide_posenum>  (155) 
18

>  <r_i_glide_eff_state_penalty>  (155) 
0

>  <ligand_id>  (155) 
45

>  <original_smiles>  (155) 
CCN1CC2C3CCCN4CC=CC(CN24)C31

>  <smiles>  (155) 
[H]C1=C([H])C2([H])C([H])([H])N3N(C1([H])[H])C([H])([H])C([H])([H])C([H])([H])C1([H])C3([H])C([H])([H])[N+]([H])(C([H])([H])C([H])([H])[H])C21[H]

$$$$
45:0:1
     RDKit          3D

 41 44  0  0  1  0  0  0  0  0999 V2000
    3.4446   -0.0026   -3.9170 C   0  0  0  0  0  0  0  0  0  0  0  0
    3.7635   -1.4777   -3.6640 C   0  0  0  0  0  0  0  0  0  0  0  0
    3.5291   -1.8852   -2.2489 N   0  0  1  0  0  0  0  0  0  0  0  0
    3.4955   -3.3693   -2.0636 C   0  0  0  0  0  0  0  0  0  0  0  0
    4.5186   -3.6931   -0.9441 C   0  0  1  0  0  0  0  0  0  0  0  0
    5.5402   -2.6006   -1.2533 C   0  0  2  0  0  0  0  0  0  0  0  0
    6.8397   -2.5026   -0.4204 C   0  0  0  0  0  0  0  0  0  0  0  0
    7.2535   -3.7556    0.3747 C   0  0  0  0  0  0  0  0  0  0  0  0
    6.1788   -4.4692    1.2259 C   0  0  0  0  0  0  0  0  0  0  0  0
    4.9366   -3.7341    1.5203 N   0  0  0  0  0  0  0  0  0  0  0  0
    5.0327   -2.6912    2.5704 C   0  0  0  0  0  0  0  0  0  0  0  0
    5.2839   -1.2305    2.2199 C   0  0  0  0  0  0  0  0  0  0  0  0
    4.8144   -0.5694    1.1408 C   0  0  0  0  0  0  0  0  0  0  0  0
    3.8739   -1.1191    0.0802 C   0  0  2  0  0  0  0  0  0  0  0  0
    3.1264   -2.3729    0.5701 C   0  0  0  0  0  0  0  0  0  0  0  0
    3.9681   -3.5753    0.4431 N   0  0  0  0  0  0  0  0  0  0  0  0
    4.5671   -1.3956   -1.3010 C   0  0  2  0  0  0  0  0  0  0  0  0
    3.6683    0.2736   -4.9504 H   0  0  0  0  0  0  0  0  0  0  0  0
    4.0205    0.6624   -3.2720 H   0  0  0  0  0  0  0  0  0  0  0  0
    2.3843    0.1902   -3.7402 H   0  0  0  0  0  0  0  0  0  0  0  0
    3.1291   -2.0748   -4.3208 H   0  0  0  0  0  0  0  0  0  0  0  0
    4.7938   -1.6856   -3.9525 H   0  0  0  0  0  0  0  0  0  0  0  0
    2.4941   -3.7434   -1.8481 H   0  0  0  0  0  0  0  0  0  0  0  0
    3.8148   -3.8599   -2.9822 H   0  0  0  0  0  0  0  0  0  0  0  0
    4.9229   -4.6958   -1.0877 H   0  0  0  0  0  0  0  0  0  0  0  0
    5.9054   -2.7985   -2.2639 H   0  0  0  0  0  0  0  0  0  0  0  0
    7.6548   -2.2869   -1.1118 H   0  0  0  0  0  0  0  0  0  0  0  0
    6.8535   -1.6407    0.2327 H   0  0  0  0  0  0  0  0  0  0  0  0
    7.6821   -4.4853   -0.3123 H   0  0  0  0  0  0  0  0  0  0  0  0
    8.0737   -3.4647    1.0319 H   0  0  0  0  0  0  0  0  0  0  0  0
    5.9008   -5.4017    0.7365 H   0  0  0  0  0  0  0  0  0  0  0  0
    6.6261   -4.7818    2.1695 H   0  0  0  0  0  0  0  0  0  0  0  0
    4.1219   -2.7257    3.1689 H   0  0  0  0  0  0  0  0  0  0  0  0
    5.8166   -2.9942    3.2602 H   0  0  0  0  0  0  0  0  0  0  0  0
    5.9226   -0.7006    2.9131 H   0  0  0  0  0  0  0  0  0  0  0  0
    5.1012    0.4622    0.9885 H   0  0  0  0  0  0  0  0  0  0  0  0
    3.1250   -0.3369   -0.0271 H   0  0  0  0  0  0  0  0  0  0  0  0
    2.7540   -2.2533    1.5853 H   0  0  0  0  0  0  0  0  0  0  0  0
    2.2202   -2.5189   -0.0166 H   0  0  0  0  0  0  0  0  0  0  0  0
    5.0723   -0.4975   -1.6585 H   0  0  0  0  0  0  0  0  0  0  0  0
    2.6243   -1.5205   -1.9631 H   0  0  0  0  0  0  0  0  0  0  0  0
  1  2  1  0
  1 18  1  0
  1 19  1  0
  1 20  1  0
  2  3  1  0
  2 21  1  0
  2 22  1  0
  3 17  1  0
  3  4  1  0
  3 41  1  1
  4  5  1  0
  4 23  1  0
  4 24  1  0
  5 16  1  0
  5  6  1  0
  5 25  1  6
  6 17  1  0
  6  7  1  0
  6 26  1  6
  7  8  1  0
  7 27  1  0
  7 28  1  0
  8  9  1  0
  8 29  1  0
  8 30  1  0
  9 10  1  0
  9 31  1  0
  9 32  1  0
 10 16  1  0
 10 11  1  0
 11 12  1  0
 11 33  1  0
 11 34  1  0
 12 13  2  0
 12 35  1  0
 13 14  1  0
 13 36  1  0
 14 15  1  0
 14 17  1  0
 14 37  1  6
 15 16  1  0
 15 38  1  0
 15 39  1  0
 17 40  1  6
M  CHG  1   3   1
M  END
>  <i_m_ct_stereo_status>  (156) 
1

>  <s_m_source_file>  (156) 
/var/tmp/pbs.5076255.sched01/tmp7rtc4ovb/41r77q45k8.sdf

>  <i_m_source_file_index>  (156) 
32

>  <i_lp_mmshare_version>  (156) 
48012

>  <i_f3d_flags>  (156) 
0

>  <s_epik_input>  (156) 
W0NIM11bQ0gyXU4oW0NIMl0xKVtDQEhdKFtDQEBIXTJbQ0BIXTEzKVtDQEBIXTRbQ0hdPVtDSF1bQ0gyXU4oTjNbQ0gyXTQpW0NIMl1bQ0gyXVtDSDJdMg==

>  <s_epik_cmdline>  (156) 
J2VwaWtfcHl0aG9uJywgJy1waHQnLCAnMi4wJywgJy1waCcsICc3LjAnLCAnLXRuJywgJzgnLCAnLW1hJywgJzIwMCcsICctaW1hZScsICc8aW5maWxlLm1hZT4nLCAnLW9tYWUnLCAnPG91dGZpbGUubWFlPic=

>  <r_lp_tautomer_probability>  (156) 
1

>  <r_epik_Ionization_Penalty>  (156) 
0.00467574

>  <r_epik_Ionization_Penalty_Charging>  (156) 
0.000755643

>  <r_epik_Ionization_Penalty_Neutral>  (156) 
0.00392009

>  <r_epik_State_Penalty>  (156) 
-0

>  <r_epik_Charging_Adjusted_Penalty>  (156) 
0.000755643

>  <i_epik_Tot_Q>  (156) 
1

>  <i_epik_Tot_abs_Q>  (156) 
1

>  <s_lp_Force_Field>  (156) 
OPLS3e

>  <r_lp_Energy>  (156) 
67.3139

>  <b_lp_Chiralities_Consistent>  (156) 
1

>  <s_lp_Variant>  (156) 
45:0-1

>  <s_i_glide_gridfile>  (156) 
pfpi4k_grid

>  <i_i_glide_lignum>  (156) 
32

>  <i_i_glide_rotatable_bonds>  (156) 
1

>  <r_i_docking_score>  (156) 
-4.56373

>  <r_i_glide_ligand_efficiency>  (156) 
-0.268455

>  <r_i_glide_ligand_efficiency_sa>  (156) 
-0.690272

>  <r_i_glide_ligand_efficiency_ln>  (156) 
-1.19058

>  <r_i_glide_gscore>  (156) 
-4.56373

>  <r_i_glide_lipo>  (156) 
-0.877926

>  <r_i_glide_hbond>  (156) 
-0.0837651

>  <r_i_glide_metal>  (156) 
-0

>  <r_i_glide_rewards>  (156) 
-1.87205

>  <r_i_glide_evdw>  (156) 
-24.1841

>  <r_i_glide_ecoul>  (156) 
-3.15588

>  <r_i_glide_erotb>  (156) 
0

>  <r_i_glide_esite>  (156) 
-0.0473952

>  <r_i_glide_emodel>  (156) 
-35.9315

>  <r_i_glide_energy>  (156) 
-27.34

>  <r_i_glide_einternal>  (156) 
0.522412

>  <r_i_glide_intrahb_reward>  (156) 
-0

>  <i_i_glide_confnum>  (156) 
2

>  <i_i_glide_posenum>  (156) 
17

>  <r_i_glide_eff_state_penalty>  (156) 
0

>  <ligand_id>  (156) 
45

>  <original_smiles>  (156) 
CCN1CC2C3CCCN4CC=CC(CN24)C31

>  <smiles>  (156) 
[H]C1=C([H])C2([H])C([H])([H])N3N(C1([H])[H])C([H])([H])C([H])([H])C([H])([H])C1([H])C3([H])C([H])([H])[N+]([H])(C([H])([H])C([H])([H])[H])C21[H]

$$$$
45:0:2
     RDKit          3D

 41 44  0  0  1  0  0  0  0  0999 V2000
    3.4887   -0.7689   -4.2991 C   0  0  0  0  0  0  0  0  0  0  0  0
    3.0632   -1.8113   -3.2431 C   0  0  0  0  0  0  0  0  0  0  0  0
    4.1776   -2.2445   -2.3546 N   0  0  1  0  0  0  0  0  0  0  0  0
    4.8188   -1.1363   -1.5878 C   0  0  0  0  0  0  0  0  0  0  0  0
    4.8234   -1.5767   -0.1052 C   0  0  1  0  0  0  0  0  0  0  0  0
    3.5183   -2.3690   -0.1038 C   0  0  2  0  0  0  0  0  0  0  0  0
    3.0045   -2.9976    1.2104 C   0  0  0  0  0  0  0  0  0  0  0  0
    3.5806   -2.4303    2.5213 C   0  0  0  0  0  0  0  0  0  0  0  0
    5.1116   -2.2583    2.6274 C   0  0  0  0  0  0  0  0  0  0  0  0
    5.9495   -2.9553    1.6349 N   0  0  0  0  0  0  0  0  0  0  0  0
    6.1271   -4.4116    1.8511 C   0  0  0  0  0  0  0  0  0  0  0  0
    5.2493   -5.4344    1.1501 C   0  0  0  0  0  0  0  0  0  0  0  0
    4.7436   -5.3424   -0.0983 C   0  0  0  0  0  0  0  0  0  0  0  0
    5.0009   -4.2288   -1.1119 C   0  0  2  0  0  0  0  0  0  0  0  0
    6.2748   -3.4310   -0.7577 C   0  0  0  0  0  0  0  0  0  0  0  0
    5.9948   -2.4209    0.2811 N   0  0  0  0  0  0  0  0  0  0  0  0
    3.7840   -3.2606   -1.3371 C   0  0  2  0  0  0  0  0  0  0  0  0
    2.6364   -0.5246   -4.9368 H   0  0  0  0  0  0  0  0  0  0  0  0
    4.2864   -1.1395   -4.9446 H   0  0  0  0  0  0  0  0  0  0  0  0
    3.8177    0.1734   -3.8553 H   0  0  0  0  0  0  0  0  0  0  0  0
    2.2403   -1.4050   -2.6525 H   0  0  0  0  0  0  0  0  0  0  0  0
    2.6638   -2.6850   -3.7603 H   0  0  0  0  0  0  0  0  0  0  0  0
    5.8125   -0.8943   -1.9663 H   0  0  0  0  0  0  0  0  0  0  0  0
    4.2229   -0.2296   -1.6658 H   0  0  0  0  0  0  0  0  0  0  0  0
    4.7780   -0.6990    0.5391 H   0  0  0  0  0  0  0  0  0  0  0  0
    2.7311   -1.6626   -0.3615 H   0  0  0  0  0  0  0  0  0  0  0  0
    1.9284   -2.8274    1.2424 H   0  0  0  0  0  0  0  0  0  0  0  0
    3.0714   -4.0768    1.2150 H   0  0  0  0  0  0  0  0  0  0  0  0
    3.1145   -1.4665    2.7288 H   0  0  0  0  0  0  0  0  0  0  0  0
    3.2531   -3.0886    3.3265 H   0  0  0  0  0  0  0  0  0  0  0  0
    5.3536   -1.1974    2.5761 H   0  0  0  0  0  0  0  0  0  0  0  0
    5.4298   -2.5612    3.6253 H   0  0  0  0  0  0  0  0  0  0  0  0
    7.1618   -4.6674    1.6240 H   0  0  0  0  0  0  0  0  0  0  0  0
    6.0368   -4.5981    2.9212 H   0  0  0  0  0  0  0  0  0  0  0  0
    5.0022   -6.3027    1.7467 H   0  0  0  0  0  0  0  0  0  0  0  0
    4.0987   -6.1368   -0.4458 H   0  0  0  0  0  0  0  0  0  0  0  0
    5.1947   -4.7543   -2.0457 H   0  0  0  0  0  0  0  0  0  0  0  0
    7.0946   -4.0789   -0.4516 H   0  0  0  0  0  0  0  0  0  0  0  0
    6.6614   -2.9329   -1.6467 H   0  0  0  0  0  0  0  0  0  0  0  0
    2.8984   -3.8213   -1.6407 H   0  0  0  0  0  0  0  0  0  0  0  0
    4.8748   -2.6722   -2.9483 H   0  0  0  0  0  0  0  0  0  0  0  0
  1  2  1  0
  1 18  1  0
  1 19  1  0
  1 20  1  0
  2  3  1  0
  2 21  1  0
  2 22  1  0
  3 17  1  0
  3  4  1  0
  3 41  1  6
  4  5  1  0
  4 23  1  0
  4 24  1  0
  5 16  1  0
  5  6  1  0
  5 25  1  1
  6 17  1  0
  6  7  1  0
  6 26  1  6
  7  8  1  0
  7 27  1  0
  7 28  1  0
  8  9  1  0
  8 29  1  0
  8 30  1  0
  9 10  1  0
  9 31  1  0
  9 32  1  0
 10 16  1  0
 10 11  1  0
 11 12  1  0
 11 33  1  0
 11 34  1  0
 12 13  2  0
 12 35  1  0
 13 14  1  0
 13 36  1  0
 14 15  1  0
 14 17  1  0
 14 37  1  6
 15 16  1  0
 15 38  1  0
 15 39  1  0
 17 40  1  6
M  CHG  1   3   1
M  END
>  <i_m_ct_stereo_status>  (157) 
1

>  <s_m_source_file>  (157) 
/var/tmp/pbs.5076255.sched01/tmp7rtc4ovb/41r77q45k8.sdf

>  <i_m_source_file_index>  (157) 
32

>  <i_lp_mmshare_version>  (157) 
48012

>  <i_f3d_flags>  (157) 
0

>  <s_epik_input>  (157) 
W0NIM11bQ0gyXU4oW0NIMl0xKVtDQEhdKFtDQEBIXTJbQ0BIXTEzKVtDQEBIXTRbQ0hdPVtDSF1bQ0gyXU4oTjNbQ0gyXTQpW0NIMl1bQ0gyXVtDSDJdMg==

>  <s_epik_cmdline>  (157) 
J2VwaWtfcHl0aG9uJywgJy1waHQnLCAnMi4wJywgJy1waCcsICc3LjAnLCAnLXRuJywgJzgnLCAnLW1hJywgJzIwMCcsICctaW1hZScsICc8aW5maWxlLm1hZT4nLCAnLW9tYWUnLCAnPG91dGZpbGUubWFlPic=

>  <r_lp_tautomer_probability>  (157) 
1

>  <r_epik_Ionization_Penalty>  (157) 
0.00467574

>  <r_epik_Ionization_Penalty_Charging>  (157) 
0.000755643

>  <r_epik_Ionization_Penalty_Neutral>  (157) 
0.00392009

>  <r_epik_State_Penalty>  (157) 
-0

>  <r_epik_Charging_Adjusted_Penalty>  (157) 
0.000755643

>  <i_epik_Tot_Q>  (157) 
1

>  <i_epik_Tot_abs_Q>  (157) 
1

>  <s_lp_Force_Field>  (157) 
OPLS3e

>  <r_lp_Energy>  (157) 
67.3139

>  <b_lp_Chiralities_Consistent>  (157) 
1

>  <s_lp_Variant>  (157) 
45:0-1

>  <s_i_glide_gridfile>  (157) 
pfpi4k_grid

>  <i_i_glide_lignum>  (157) 
32

>  <i_i_glide_rotatable_bonds>  (157) 
1

>  <r_i_docking_score>  (157) 
-4.08578

>  <r_i_glide_ligand_efficiency>  (157) 
-0.24034

>  <r_i_glide_ligand_efficiency_sa>  (157) 
-0.617982

>  <r_i_glide_ligand_efficiency_ln>  (157) 
-1.06589

>  <r_i_glide_gscore>  (157) 
-4.08578

>  <r_i_glide_lipo>  (157) 
-0.533009

>  <r_i_glide_hbond>  (157) 
0

>  <r_i_glide_metal>  (157) 
-0

>  <r_i_glide_rewards>  (157) 
-1.97157

>  <r_i_glide_evdw>  (157) 
-22.2815

>  <r_i_glide_ecoul>  (157) 
-3.1142

>  <r_i_glide_erotb>  (157) 
0

>  <r_i_glide_esite>  (157) 
0

>  <r_i_glide_emodel>  (157) 
-33.1617

>  <r_i_glide_energy>  (157) 
-25.3957

>  <r_i_glide_einternal>  (157) 
0.218196

>  <r_i_glide_intrahb_reward>  (157) 
-0

>  <i_i_glide_confnum>  (157) 
2

>  <i_i_glide_posenum>  (157) 
7

>  <r_i_glide_eff_state_penalty>  (157) 
0

>  <ligand_id>  (157) 
45

>  <original_smiles>  (157) 
CCN1CC2C3CCCN4CC=CC(CN24)C31

>  <smiles>  (157) 
[H]C1=C([H])C2([H])C([H])([H])N3N(C1([H])[H])C([H])([H])C([H])([H])C([H])([H])C1([H])C3([H])C([H])([H])[N+]([H])(C([H])([H])C([H])([H])[H])C21[H]

$$$$
46:0:0
     RDKit          3D

 47 49  0  0  1  0  0  0  0  0999 V2000
    3.3390   -1.0642   -2.7833 C   0  0  0  0  0  0  0  0  0  0  0  0
    3.7768   -2.3805   -2.0889 C   0  0  0  0  0  0  0  0  0  0  0  0
    2.5108   -3.2450   -1.8897 C   0  0  0  0  0  0  0  0  0  0  0  0
    4.7223   -3.1110   -3.0730 C   0  0  0  0  0  0  0  0  0  0  0  0
    4.1527   -3.3957   -4.1547 O   0  0  0  0  0  0  0  0  0  0  0  0
    6.0223   -3.3331   -2.7355 C   0  0  0  0  0  0  0  0  0  0  0  0
    6.6820   -2.9679   -1.5006 C   0  0  0  0  0  0  0  0  0  0  0  0
    7.9034   -2.8547   -1.4055 O   0  0  0  0  0  0  0  0  0  0  0  0
    5.8037   -2.6992   -0.2802 C   0  0  1  0  0  0  0  0  0  0  0  0
    4.4875   -1.9920   -0.7126 C   0  0  2  0  0  0  0  0  0  0  0  0
    3.6012   -1.6991    0.5224 C   0  0  0  0  0  0  0  0  0  0  0  0
    3.4481   -2.8530    1.5398 C   0  0  1  0  0  0  0  0  0  0  0  0
    2.5300   -3.8129    1.0701 O   0  0  0  0  0  0  0  0  0  0  0  0
    4.8075   -3.4833    1.9648 C   0  0  1  0  0  0  0  0  0  0  0  0
    5.4248   -2.4514    2.7114 O   0  0  0  0  0  0  0  0  0  0  0  0
    4.6280   -4.6432    2.9872 C   0  0  0  0  0  0  0  0  0  0  0  0
    4.2528   -6.0067    2.3654 C   0  0  0  0  0  0  0  0  0  0  0  0
    5.1066   -6.3642    1.1355 C   0  0  1  0  0  0  0  0  0  0  0  0
    4.5581   -7.4963    0.4953 O   0  0  0  0  0  0  0  0  0  0  0  0
    5.1946   -5.2033    0.1236 C   0  0  0  0  0  0  0  0  0  0  0  0
    5.7278   -3.8869    0.7533 C   0  0  1  0  0  0  0  0  0  0  0  0
    7.1755   -4.1719    1.2544 C   0  0  0  0  0  0  0  0  0  0  0  0
    2.6738   -0.4942   -2.1417 H   0  0  0  0  0  0  0  0  0  0  0  0
    2.7800   -1.2478   -3.7029 H   0  0  0  0  0  0  0  0  0  0  0  0
    4.1978   -0.4391   -3.0466 H   0  0  0  0  0  0  0  0  0  0  0  0
    1.8174   -2.7822   -1.1997 H   0  0  0  0  0  0  0  0  0  0  0  0
    2.7424   -4.2442   -1.5266 H   0  0  0  0  0  0  0  0  0  0  0  0
    1.9617   -3.3772   -2.8257 H   0  0  0  0  0  0  0  0  0  0  0  0
    6.6363   -3.8301   -3.4676 H   0  0  0  0  0  0  0  0  0  0  0  0
    6.3675   -1.9237    0.2444 H   0  0  0  0  0  0  0  0  0  0  0  0
    4.8799   -0.9988   -0.9436 H   0  0  0  0  0  0  0  0  0  0  0  0
    4.0549   -0.8628    1.0549 H   0  0  0  0  0  0  0  0  0  0  0  0
    2.6347   -1.3098    0.2167 H   0  0  0  0  0  0  0  0  0  0  0  0
    2.9646   -2.4376    2.4263 H   0  0  0  0  0  0  0  0  0  0  0  0
    2.8516   -4.1450    0.2459 H   0  0  0  0  0  0  0  0  0  0  0  0
    5.4821   -1.6869    2.1604 H   0  0  0  0  0  0  0  0  0  0  0  0
    5.5467   -4.7704    3.5545 H   0  0  0  0  0  0  0  0  0  0  0  0
    3.8748   -4.3679    3.7290 H   0  0  0  0  0  0  0  0  0  0  0  0
    4.3681   -6.7850    3.1187 H   0  0  0  0  0  0  0  0  0  0  0  0
    3.1948   -6.0151    2.1022 H   0  0  0  0  0  0  0  0  0  0  0  0
    6.1067   -6.6503    1.4617 H   0  0  0  0  0  0  0  0  0  0  0  0
    3.7002   -7.2670    0.1716 H   0  0  0  0  0  0  0  0  0  0  0  0
    5.8153   -5.5129   -0.7136 H   0  0  0  0  0  0  0  0  0  0  0  0
    4.2230   -5.0441   -0.3194 H   0  0  0  0  0  0  0  0  0  0  0  0
    7.2177   -4.8183    2.1308 H   0  0  0  0  0  0  0  0  0  0  0  0
    7.6863   -3.2480    1.5211 H   0  0  0  0  0  0  0  0  0  0  0  0
    7.7869   -4.6558    0.4917 H   0  0  0  0  0  0  0  0  0  0  0  0
  1  2  1  0
  1 23  1  0
  1 24  1  0
  1 25  1  0
  2 10  1  0
  2  3  1  0
  2  4  1  0
  3 26  1  0
  3 27  1  0
  3 28  1  0
  4  5  1  0
  4  6  2  0
  6  7  1  0
  6 29  1  0
  7  8  2  0
  7  9  1  0
  9 21  1  0
  9 10  1  0
  9 30  1  1
 10 11  1  0
 10 31  1  6
 11 12  1  0
 11 32  1  0
 11 33  1  0
 12 13  1  0
 12 14  1  0
 12 34  1  1
 13 35  1  0
 14 21  1  0
 14 15  1  1
 14 16  1  0
 15 36  1  0
 16 17  1  0
 16 37  1  0
 16 38  1  0
 17 18  1  0
 17 39  1  0
 17 40  1  0
 18 19  1  0
 18 20  1  0
 18 41  1  1
 19 42  1  0
 20 21  1  0
 20 43  1  0
 20 44  1  0
 21 22  1  1
 22 45  1  0
 22 46  1  0
 22 47  1  0
M  CHG  1   5  -1
M  END
>  <i_m_ct_stereo_status>  (158) 
1

>  <s_m_source_file>  (158) 
/var/tmp/pbs.5076255.sched01/tmp7rtc4ovb/41r77q45k8.sdf

>  <i_m_source_file_index>  (158) 
33

>  <i_lp_mmshare_version>  (158) 
48012

>  <i_f3d_flags>  (158) 
0

>  <s_epik_input>  (158) 
Tz1DMVtDSDJdQyg9TylDKFtDSDNdKShbQ0gzXSlbQ0BASF0oW0NIMl1bQ0BIXTJbT0hdKVtDQEhdMVtDQEBdKFtDSDNdKShbQ0BAXTIzW09IXSlbQ0gyXVtDQEhdKFtPSF0pW0NIMl1bQ0gyXTM=

>  <s_epik_cmdline>  (158) 
J2VwaWtfcHl0aG9uJywgJy1waHQnLCAnMi4wJywgJy1waCcsICc3LjAnLCAnLXRuJywgJzgnLCAnLW1hJywgJzIwMCcsICctaW1hZScsICc8aW5maWxlLm1hZT4nLCAnLW9tYWUnLCAnPG91dGZpbGUubWFlPic=

>  <r_epik_Ionization_Penalty>  (158) 
0.0175598

>  <r_epik_Ionization_Penalty_Charging>  (158) 
0.0068092

>  <r_epik_Ionization_Penalty_Neutral>  (158) 
0.0107506

>  <r_epik_State_Penalty>  (158) 
0.0132233

>  <r_epik_Charging_Adjusted_Penalty>  (158) 
0.0200325

>  <i_epik_Tot_Q>  (158) 
-1

>  <i_epik_Tot_abs_Q>  (158) 
1

>  <s_lp_Force_Field>  (158) 
OPLS3e

>  <r_lp_Energy>  (158) 
44.1328

>  <b_lp_Chiralities_Consistent>  (158) 
1

>  <s_lp_Variant>  (158) 
46:0-1

>  <s_i_glide_gridfile>  (158) 
pfpi4k_grid

>  <i_i_glide_lignum>  (158) 
33

>  <i_i_glide_rotatable_bonds>  (158) 
3

>  <r_i_docking_score>  (158) 
-3.64836

>  <r_i_glide_ligand_efficiency>  (158) 
-0.165835

>  <r_i_glide_ligand_efficiency_sa>  (158) 
-0.464675

>  <r_i_glide_ligand_efficiency_ln>  (158) 
-0.891793

>  <r_i_glide_gscore>  (158) 
-3.64836

>  <r_i_glide_lipo>  (158) 
-0.915478

>  <r_i_glide_hbond>  (158) 
-0.128095

>  <r_i_glide_metal>  (158) 
-0

>  <r_i_glide_rewards>  (158) 
-1.3081

>  <r_i_glide_evdw>  (158) 
-23.0068

>  <r_i_glide_ecoul>  (158) 
-0.975651

>  <r_i_glide_erotb>  (158) 
0

>  <r_i_glide_esite>  (158) 
0

>  <r_i_glide_emodel>  (158) 
-31.0615

>  <r_i_glide_energy>  (158) 
-23.9824

>  <r_i_glide_einternal>  (158) 
0.0301862

>  <r_i_glide_intrahb_reward>  (158) 
-0

>  <i_i_glide_confnum>  (158) 
2

>  <i_i_glide_posenum>  (158) 
1

>  <r_i_glide_eff_state_penalty>  (158) 
0

>  <ligand_id>  (158) 
46

>  <original_smiles>  (158) 
CC1(C)C(=O)CC(=O)C2C1CC(O)C1(O)CCC(O)CC21C

>  <smiles>  (158) 
[H]OC1([H])C([H])([H])C([H])([H])C2(O[H])C([H])(O[H])C([H])([H])C3([H])C([H])(C(=O)C([H])=C([O-])C3(C([H])([H])[H])C([H])([H])[H])C2(C([H])([H])[H])C1([H])[H]

$$$$
46:0:1
     RDKit          3D

 47 49  0  0  1  0  0  0  0  0999 V2000
    3.7316   -5.2904    4.3716 C   0  0  0  0  0  0  0  0  0  0  0  0
    3.4444   -4.5581    3.0283 C   0  0  0  0  0  0  0  0  0  0  0  0
    2.9166   -5.6281    2.0333 C   0  0  0  0  0  0  0  0  0  0  0  0
    2.3124   -3.5154    3.2969 C   0  0  0  0  0  0  0  0  0  0  0  0
    1.2504   -4.0747    3.6592 O   0  0  0  0  0  0  0  0  0  0  0  0
    2.5440   -2.1690    3.1577 C   0  0  0  0  0  0  0  0  0  0  0  0
    3.7945   -1.5547    2.7420 C   0  0  0  0  0  0  0  0  0  0  0  0
    4.0507   -0.3721    2.9569 O   0  0  0  0  0  0  0  0  0  0  0  0
    4.8108   -2.4314    1.9974 C   0  0  1  0  0  0  0  0  0  0  0  0
    4.8095   -3.8839    2.5589 C   0  0  2  0  0  0  0  0  0  0  0  0
    5.8439   -4.7716    1.8197 C   0  0  0  0  0  0  0  0  0  0  0  0
    5.8762   -4.6390    0.2819 C   0  0  1  0  0  0  0  0  0  0  0  0
    4.8326   -5.3957   -0.2933 O   0  0  0  0  0  0  0  0  0  0  0  0
    5.9360   -3.1609   -0.2165 C   0  0  1  0  0  0  0  0  0  0  0  0
    7.2219   -2.7096    0.1725 O   0  0  0  0  0  0  0  0  0  0  0  0
    5.9596   -3.0643   -1.7721 C   0  0  0  0  0  0  0  0  0  0  0  0
    4.5804   -3.1797   -2.4547 C   0  0  0  0  0  0  0  0  0  0  0  0
    3.5002   -2.3174   -1.7776 C   0  0  1  0  0  0  0  0  0  0  0  0
    2.2407   -2.6532   -2.3097 O   0  0  0  0  0  0  0  0  0  0  0  0
    3.4764   -2.4977   -0.2427 C   0  0  0  0  0  0  0  0  0  0  0  0
    4.8491   -2.2241    0.4334 C   0  0  1  0  0  0  0  0  0  0  0  0
    5.2137   -0.7307    0.1587 C   0  0  0  0  0  0  0  0  0  0  0  0
    4.5484   -6.0078    4.2774 H   0  0  0  0  0  0  0  0  0  0  0  0
    2.8598   -5.8414    4.7297 H   0  0  0  0  0  0  0  0  0  0  0  0
    3.9963   -4.5802    5.1597 H   0  0  0  0  0  0  0  0  0  0  0  0
    3.6592   -6.3920    1.8108 H   0  0  0  0  0  0  0  0  0  0  0  0
    2.5788   -5.1839    1.1009 H   0  0  0  0  0  0  0  0  0  0  0  0
    2.0608   -6.1678    2.4432 H   0  0  0  0  0  0  0  0  0  0  0  0
    1.7354   -1.4800    3.3658 H   0  0  0  0  0  0  0  0  0  0  0  0
    5.7644   -2.0194    2.3343 H   0  0  0  0  0  0  0  0  0  0  0  0
    5.3097   -3.7068    3.5120 H   0  0  0  0  0  0  0  0  0  0  0  0
    6.8343   -4.4804    2.1723 H   0  0  0  0  0  0  0  0  0  0  0  0
    5.7624   -5.8123    2.1258 H   0  0  0  0  0  0  0  0  0  0  0  0
    6.7781   -5.1534   -0.0500 H   0  0  0  0  0  0  0  0  0  0  0  0
    4.8673   -5.3163   -1.2343 H   0  0  0  0  0  0  0  0  0  0  0  0
    7.3030   -2.8391    1.1036 H   0  0  0  0  0  0  0  0  0  0  0  0
    6.4017   -2.1155   -2.0716 H   0  0  0  0  0  0  0  0  0  0  0  0
    6.6225   -3.8220   -2.1843 H   0  0  0  0  0  0  0  0  0  0  0  0
    4.6697   -2.8840   -3.4997 H   0  0  0  0  0  0  0  0  0  0  0  0
    4.2579   -4.2191   -2.4778 H   0  0  0  0  0  0  0  0  0  0  0  0
    3.6660   -1.2649   -2.0172 H   0  0  0  0  0  0  0  0  0  0  0  0
    1.5985   -2.0963   -1.8632 H   0  0  0  0  0  0  0  0  0  0  0  0
    2.7100   -1.8417    0.1767 H   0  0  0  0  0  0  0  0  0  0  0  0
    3.1437   -3.5024   -0.0150 H   0  0  0  0  0  0  0  0  0  0  0  0
    5.4603   -0.5312   -0.8829 H   0  0  0  0  0  0  0  0  0  0  0  0
    6.0696   -0.4025    0.7521 H   0  0  0  0  0  0  0  0  0  0  0  0
    4.3852   -0.0645    0.4003 H   0  0  0  0  0  0  0  0  0  0  0  0
  1  2  1  0
  1 23  1  0
  1 24  1  0
  1 25  1  0
  2 10  1  0
  2  3  1  0
  2  4  1  0
  3 26  1  0
  3 27  1  0
  3 28  1  0
  4  5  1  0
  4  6  2  0
  6  7  1  0
  6 29  1  0
  7  8  2  0
  7  9  1  0
  9 21  1  0
  9 10  1  0
  9 30  1  1
 10 11  1  0
 10 31  1  1
 11 12  1  0
 11 32  1  0
 11 33  1  0
 12 13  1  0
 12 14  1  0
 12 34  1  6
 13 35  1  0
 14 21  1  0
 14 15  1  1
 14 16  1  0
 15 36  1  0
 16 17  1  0
 16 37  1  0
 16 38  1  0
 17 18  1  0
 17 39  1  0
 17 40  1  0
 18 19  1  0
 18 20  1  0
 18 41  1  1
 19 42  1  0
 20 21  1  0
 20 43  1  0
 20 44  1  0
 21 22  1  1
 22 45  1  0
 22 46  1  0
 22 47  1  0
M  CHG  1   5  -1
M  END
>  <i_m_ct_stereo_status>  (159) 
1

>  <s_m_source_file>  (159) 
/var/tmp/pbs.5076255.sched01/tmp7rtc4ovb/41r77q45k8.sdf

>  <i_m_source_file_index>  (159) 
33

>  <i_lp_mmshare_version>  (159) 
48012

>  <i_f3d_flags>  (159) 
0

>  <s_epik_input>  (159) 
Tz1DMVtDSDJdQyg9TylDKFtDSDNdKShbQ0gzXSlbQ0BASF0oW0NIMl1bQ0BIXTJbT0hdKVtDQEhdMVtDQEBdKFtDSDNdKShbQ0BAXTIzW09IXSlbQ0gyXVtDQEhdKFtPSF0pW0NIMl1bQ0gyXTM=

>  <s_epik_cmdline>  (159) 
J2VwaWtfcHl0aG9uJywgJy1waHQnLCAnMi4wJywgJy1waCcsICc3LjAnLCAnLXRuJywgJzgnLCAnLW1hJywgJzIwMCcsICctaW1hZScsICc8aW5maWxlLm1hZT4nLCAnLW9tYWUnLCAnPG91dGZpbGUubWFlPic=

>  <r_epik_Ionization_Penalty>  (159) 
0.0175598

>  <r_epik_Ionization_Penalty_Charging>  (159) 
0.0068092

>  <r_epik_Ionization_Penalty_Neutral>  (159) 
0.0107506

>  <r_epik_State_Penalty>  (159) 
0.0132233

>  <r_epik_Charging_Adjusted_Penalty>  (159) 
0.0200325

>  <i_epik_Tot_Q>  (159) 
-1

>  <i_epik_Tot_abs_Q>  (159) 
1

>  <s_lp_Force_Field>  (159) 
OPLS3e

>  <r_lp_Energy>  (159) 
44.1328

>  <b_lp_Chiralities_Consistent>  (159) 
1

>  <s_lp_Variant>  (159) 
46:0-1

>  <s_i_glide_gridfile>  (159) 
pfpi4k_grid

>  <i_i_glide_lignum>  (159) 
33

>  <i_i_glide_rotatable_bonds>  (159) 
3

>  <r_i_docking_score>  (159) 
-3.26519

>  <r_i_glide_ligand_efficiency>  (159) 
-0.148418

>  <r_i_glide_ligand_efficiency_sa>  (159) 
-0.415873

>  <r_i_glide_ligand_efficiency_ln>  (159) 
-0.798133

>  <r_i_glide_gscore>  (159) 
-3.26519

>  <r_i_glide_lipo>  (159) 
-0.484308

>  <r_i_glide_hbond>  (159) 
-0.16

>  <r_i_glide_metal>  (159) 
-0

>  <r_i_glide_rewards>  (159) 
-1.2997

>  <r_i_glide_evdw>  (159) 
-23.2546

>  <r_i_glide_ecoul>  (159) 
-1.05423

>  <r_i_glide_erotb>  (159) 
0

>  <r_i_glide_esite>  (159) 
-0.000319882

>  <r_i_glide_emodel>  (159) 
-30.337

>  <r_i_glide_energy>  (159) 
-24.3089

>  <r_i_glide_einternal>  (159) 
0.673007

>  <r_i_glide_intrahb_reward>  (159) 
-0

>  <i_i_glide_confnum>  (159) 
1

>  <i_i_glide_posenum>  (159) 
34

>  <r_i_glide_eff_state_penalty>  (159) 
0

>  <ligand_id>  (159) 
46

>  <original_smiles>  (159) 
CC1(C)C(=O)CC(=O)C2C1CC(O)C1(O)CCC(O)CC21C

>  <smiles>  (159) 
[H]OC1([H])C([H])([H])C([H])([H])C2(O[H])C([H])(O[H])C([H])([H])C3([H])C([H])(C(=O)C([H])=C([O-])C3(C([H])([H])[H])C([H])([H])[H])C2(C([H])([H])[H])C1([H])[H]

$$$$
46:0:2
     RDKit          3D

 47 49  0  0  1  0  0  0  0  0999 V2000
    3.6712   -5.5557    4.1651 C   0  0  0  0  0  0  0  0  0  0  0  0
    3.4836   -4.6890    2.8862 C   0  0  0  0  0  0  0  0  0  0  0  0
    2.9809   -5.6381    1.7630 C   0  0  0  0  0  0  0  0  0  0  0  0
    2.3713   -3.6396    3.1933 C   0  0  0  0  0  0  0  0  0  0  0  0
    1.2730   -4.1962    3.4402 O   0  0  0  0  0  0  0  0  0  0  0  0
    2.6440   -2.2932    3.1997 C   0  0  0  0  0  0  0  0  0  0  0  0
    3.9332   -1.6828    2.9143 C   0  0  0  0  0  0  0  0  0  0  0  0
    4.2054   -0.5335    3.2576 O   0  0  0  0  0  0  0  0  0  0  0  0
    4.9658   -2.5159    2.1440 C   0  0  1  0  0  0  0  0  0  0  0  0
    4.8919   -4.0173    2.5622 C   0  0  2  0  0  0  0  0  0  0  0  0
    5.9420   -4.8642    1.8013 C   0  0  0  0  0  0  0  0  0  0  0  0
    6.0602   -4.5869    0.2902 C   0  0  1  0  0  0  0  0  0  0  0  0
    5.0125   -5.2283   -0.4006 O   0  0  0  0  0  0  0  0  0  0  0  0
    6.1925   -3.0706   -0.0651 C   0  0  1  0  0  0  0  0  0  0  0  0
    7.4718   -2.7075    0.4266 O   0  0  0  0  0  0  0  0  0  0  0  0
    6.3054   -2.8261   -1.6020 C   0  0  0  0  0  0  0  0  0  0  0  0
    4.9630   -2.8296   -2.3641 C   0  0  0  0  0  0  0  0  0  0  0  0
    3.8702   -1.9994   -1.6656 C   0  0  1  0  0  0  0  0  0  0  0  0
    2.6377   -2.2538   -2.2942 O   0  0  0  0  0  0  0  0  0  0  0  0
    3.7584   -2.3202   -0.1600 C   0  0  0  0  0  0  0  0  0  0  0  0
    5.0998   -2.1612    0.6115 C   0  0  1  0  0  0  0  0  0  0  0  0
    5.5178   -0.6635    0.5034 C   0  0  0  0  0  0  0  0  0  0  0  0
    4.4705   -6.2878    4.0481 H   0  0  0  0  0  0  0  0  0  0  0  0
    2.7649   -6.1079    4.4199 H   0  0  0  0  0  0  0  0  0  0  0  0
    3.9093   -4.9339    5.0321 H   0  0  0  0  0  0  0  0  0  0  0  0
    3.7099   -6.4037    1.5083 H   0  0  0  0  0  0  0  0  0  0  0  0
    2.7077   -5.0945    0.8620 H   0  0  0  0  0  0  0  0  0  0  0  0
    2.0873   -6.1839    2.0699 H   0  0  0  0  0  0  0  0  0  0  0  0
    1.8431   -1.6035    3.4303 H   0  0  0  0  0  0  0  0  0  0  0  0
    5.9126   -2.1741    2.5665 H   0  0  0  0  0  0  0  0  0  0  0  0
    5.3417   -3.9479    3.5536 H   0  0  0  0  0  0  0  0  0  0  0  0
    6.9189   -4.6368    2.2308 H   0  0  0  0  0  0  0  0  0  0  0  0
    5.8168   -5.9258    2.0024 H   0  0  0  0  0  0  0  0  0  0  0  0
    6.9589   -5.1016   -0.0481 H   0  0  0  0  0  0  0  0  0  0  0  0
    5.0793   -6.1647   -0.2847 H   0  0  0  0  0  0  0  0  0  0  0  0
    8.1092   -3.2884    0.0392 H   0  0  0  0  0  0  0  0  0  0  0  0
    6.7837   -1.8678   -1.7862 H   0  0  0  0  0  0  0  0  0  0  0  0
    6.9692   -3.5611   -2.0609 H   0  0  0  0  0  0  0  0  0  0  0  0
    5.1193   -2.4378   -3.3689 H   0  0  0  0  0  0  0  0  0  0  0  0
    4.6179   -3.8538   -2.5000 H   0  0  0  0  0  0  0  0  0  0  0  0
    4.0751   -0.9349   -1.7951 H   0  0  0  0  0  0  0  0  0  0  0  0
    1.9540   -1.7873   -1.8080 H   0  0  0  0  0  0  0  0  0  0  0  0
    2.9913   -1.6803    0.2797 H   0  0  0  0  0  0  0  0  0  0  0  0
    3.3848   -3.3309   -0.0483 H   0  0  0  0  0  0  0  0  0  0  0  0
    5.8274   -0.3671   -0.4970 H   0  0  0  0  0  0  0  0  0  0  0  0
    6.3454   -0.4275    1.1737 H   0  0  0  0  0  0  0  0  0  0  0  0
    4.6955    0.0045    0.7663 H   0  0  0  0  0  0  0  0  0  0  0  0
  1  2  1  0
  1 23  1  0
  1 24  1  0
  1 25  1  0
  2 10  1  0
  2  3  1  0
  2  4  1  0
  3 26  1  0
  3 27  1  0
  3 28  1  0
  4  5  1  0
  4  6  2  0
  6  7  1  0
  6 29  1  0
  7  8  2  0
  7  9  1  0
  9 21  1  0
  9 10  1  0
  9 30  1  1
 10 11  1  0
 10 31  1  1
 11 12  1  0
 11 32  1  0
 11 33  1  0
 12 13  1  0
 12 14  1  0
 12 34  1  6
 13 35  1  0
 14 21  1  0
 14 15  1  1
 14 16  1  0
 15 36  1  0
 16 17  1  0
 16 37  1  0
 16 38  1  0
 17 18  1  0
 17 39  1  0
 17 40  1  0
 18 19  1  0
 18 20  1  0
 18 41  1  1
 19 42  1  0
 20 21  1  0
 20 43  1  0
 20 44  1  0
 21 22  1  1
 22 45  1  0
 22 46  1  0
 22 47  1  0
M  CHG  1   5  -1
M  END
>  <i_m_ct_stereo_status>  (160) 
1

>  <s_m_source_file>  (160) 
/var/tmp/pbs.5076255.sched01/tmp7rtc4ovb/41r77q45k8.sdf

>  <i_m_source_file_index>  (160) 
33

>  <i_lp_mmshare_version>  (160) 
48012

>  <i_f3d_flags>  (160) 
0

>  <s_epik_input>  (160) 
Tz1DMVtDSDJdQyg9TylDKFtDSDNdKShbQ0gzXSlbQ0BASF0oW0NIMl1bQ0BIXTJbT0hdKVtDQEhdMVtDQEBdKFtDSDNdKShbQ0BAXTIzW09IXSlbQ0gyXVtDQEhdKFtPSF0pW0NIMl1bQ0gyXTM=

>  <s_epik_cmdline>  (160) 
J2VwaWtfcHl0aG9uJywgJy1waHQnLCAnMi4wJywgJy1waCcsICc3LjAnLCAnLXRuJywgJzgnLCAnLW1hJywgJzIwMCcsICctaW1hZScsICc8aW5maWxlLm1hZT4nLCAnLW9tYWUnLCAnPG91dGZpbGUubWFlPic=

>  <r_epik_Ionization_Penalty>  (160) 
0.0175598

>  <r_epik_Ionization_Penalty_Charging>  (160) 
0.0068092

>  <r_epik_Ionization_Penalty_Neutral>  (160) 
0.0107506

>  <r_epik_State_Penalty>  (160) 
0.0132233

>  <r_epik_Charging_Adjusted_Penalty>  (160) 
0.0200325

>  <i_epik_Tot_Q>  (160) 
-1

>  <i_epik_Tot_abs_Q>  (160) 
1

>  <s_lp_Force_Field>  (160) 
OPLS3e

>  <r_lp_Energy>  (160) 
44.1328

>  <b_lp_Chiralities_Consistent>  (160) 
1

>  <s_lp_Variant>  (160) 
46:0-1

>  <s_i_glide_gridfile>  (160) 
pfpi4k_grid

>  <i_i_glide_lignum>  (160) 
33

>  <i_i_glide_rotatable_bonds>  (160) 
3

>  <r_i_docking_score>  (160) 
-3.08

>  <r_i_glide_ligand_efficiency>  (160) 
-0.14

>  <r_i_glide_ligand_efficiency_sa>  (160) 
-0.392285

>  <r_i_glide_ligand_efficiency_ln>  (160) 
-0.752864

>  <r_i_glide_gscore>  (160) 
-3.08

>  <r_i_glide_lipo>  (160) 
-0.578839

>  <r_i_glide_hbond>  (160) 
-0.16

>  <r_i_glide_metal>  (160) 
-0

>  <r_i_glide_rewards>  (160) 
-1.29993

>  <r_i_glide_evdw>  (160) 
-23.5766

>  <r_i_glide_ecoul>  (160) 
0.917353

>  <r_i_glide_erotb>  (160) 
0

>  <r_i_glide_esite>  (160) 
0

>  <r_i_glide_emodel>  (160) 
-28.2988

>  <r_i_glide_energy>  (160) 
-22.6593

>  <r_i_glide_einternal>  (160) 
0.714446

>  <r_i_glide_intrahb_reward>  (160) 
-0

>  <i_i_glide_confnum>  (160) 
1

>  <i_i_glide_posenum>  (160) 
2

>  <r_i_glide_eff_state_penalty>  (160) 
0

>  <ligand_id>  (160) 
46

>  <original_smiles>  (160) 
CC1(C)C(=O)CC(=O)C2C1CC(O)C1(O)CCC(O)CC21C

>  <smiles>  (160) 
[H]OC1([H])C([H])([H])C([H])([H])C2(O[H])C([H])(O[H])C([H])([H])C3([H])C([H])(C(=O)C([H])=C([O-])C3(C([H])([H])[H])C([H])([H])[H])C2(C([H])([H])[H])C1([H])[H]

$$$$
46:1:0
     RDKit          3D

 48 50  0  0  1  0  0  0  0  0999 V2000
    5.6953   -3.2985   -1.7712 C   0  0  0  0  0  0  0  0  0  0  0  0
    5.9770   -3.0366   -0.2752 C   0  0  0  0  0  0  0  0  0  0  0  0
    7.4776   -2.6414   -0.1408 C   0  0  0  0  0  0  0  0  0  0  0  0
    5.0725   -1.8804    0.1844 C   0  0  0  0  0  0  0  0  0  0  0  0
    5.5199   -0.7657    0.4592 O   0  0  0  0  0  0  0  0  0  0  0  0
    3.5698   -2.1569    0.1814 C   0  0  0  0  0  0  0  0  0  0  0  0
    3.2703   -3.4777    0.8937 C   0  0  0  0  0  0  0  0  0  0  0  0
    2.2910   -3.5394    1.6328 O   0  0  0  0  0  0  0  0  0  0  0  0
    4.1447   -4.7217    0.5512 C   0  0  1  0  0  0  0  0  0  0  0  0
    5.6606   -4.3186    0.5683 C   0  0  2  0  0  0  0  0  0  0  0  0
    6.1675   -4.2613    2.0313 C   0  0  0  0  0  0  0  0  0  0  0  0
    5.9642   -5.5917    2.7586 C   0  0  1  0  0  0  0  0  0  0  0  0
    6.4806   -5.4887    4.0675 O   0  0  0  0  0  0  0  0  0  0  0  0
    4.4823   -6.0573    2.7890 C   0  0  1  0  0  0  0  0  0  0  0  0
    4.5414   -7.3751    3.3120 O   0  0  0  0  0  0  0  0  0  0  0  0
    3.6299   -5.2279    3.7831 C   0  0  0  0  0  0  0  0  0  0  0  0
    2.1338   -5.5794    3.8320 C   0  0  0  0  0  0  0  0  0  0  0  0
    1.6302   -6.5234    2.7188 C   0  0  1  0  0  0  0  0  0  0  0  0
    0.2443   -6.3204    2.5005 O   0  0  0  0  0  0  0  0  0  0  0  0
    2.3572   -6.4787    1.3521 C   0  0  0  0  0  0  0  0  0  0  0  0
    3.8733   -6.0804    1.3337 C   0  0  1  0  0  0  0  0  0  0  0  0
    4.5709   -7.1878    0.4970 C   0  0  0  0  0  0  0  0  0  0  0  0
    6.2498   -4.1534   -2.1469 H   0  0  0  0  0  0  0  0  0  0  0  0
    5.9697   -2.4344   -2.3747 H   0  0  0  0  0  0  0  0  0  0  0  0
    4.6454   -3.5155   -1.9646 H   0  0  0  0  0  0  0  0  0  0  0  0
    8.1369   -3.4987   -0.3035 H   0  0  0  0  0  0  0  0  0  0  0  0
    7.7141   -2.2240    0.8417 H   0  0  0  0  0  0  0  0  0  0  0  0
    7.7466   -1.8784   -0.8728 H   0  0  0  0  0  0  0  0  0  0  0  0
    3.0594   -1.3430    0.6946 H   0  0  0  0  0  0  0  0  0  0  0  0
    3.1784   -2.1657   -0.8380 H   0  0  0  0  0  0  0  0  0  0  0  0
    3.8972   -4.9331   -0.4899 H   0  0  0  0  0  0  0  0  0  0  0  0
    6.2398   -5.1096    0.0884 H   0  0  0  0  0  0  0  0  0  0  0  0
    7.2346   -4.0605    2.0647 H   0  0  0  0  0  0  0  0  0  0  0  0
    5.6835   -3.4590    2.5911 H   0  0  0  0  0  0  0  0  0  0  0  0
    6.5811   -6.3430    2.2648 H   0  0  0  0  0  0  0  0  0  0  0  0
    6.4536   -6.3613    4.4333 H   0  0  0  0  0  0  0  0  0  0  0  0
    3.6694   -7.7382    3.2799 H   0  0  0  0  0  0  0  0  0  0  0  0
    4.0354   -5.3085    4.7897 H   0  0  0  0  0  0  0  0  0  0  0  0
    3.7321   -4.1699    3.5546 H   0  0  0  0  0  0  0  0  0  0  0  0
    1.9365   -6.0708    4.7844 H   0  0  0  0  0  0  0  0  0  0  0  0
    1.5591   -4.6578    3.8716 H   0  0  0  0  0  0  0  0  0  0  0  0
    1.7250   -7.5340    3.1151 H   0  0  0  0  0  0  0  0  0  0  0  0
   -0.1226   -7.1389    2.1973 H   0  0  0  0  0  0  0  0  0  0  0  0
    2.2325   -7.4843    0.9471 H   0  0  0  0  0  0  0  0  0  0  0  0
    1.8117   -5.8614    0.6458 H   0  0  0  0  0  0  0  0  0  0  0  0
    4.3374   -8.1928    0.8653 H   0  0  0  0  0  0  0  0  0  0  0  0
    5.6550   -7.1183    0.4934 H   0  0  0  0  0  0  0  0  0  0  0  0
    4.2454   -7.1317   -0.5394 H   0  0  0  0  0  0  0  0  0  0  0  0
  1  2  1  0
  1 23  1  0
  1 24  1  0
  1 25  1  0
  2 10  1  0
  2  3  1  0
  2  4  1  0
  3 26  1  0
  3 27  1  0
  3 28  1  0
  4  5  2  0
  4  6  1  0
  6  7  1  0
  6 29  1  0
  6 30  1  0
  7  8  2  0
  7  9  1  0
  9 21  1  0
  9 10  1  0
  9 31  1  6
 10 11  1  0
 10 32  1  6
 11 12  1  0
 11 33  1  0
 11 34  1  0
 12 13  1  0
 12 14  1  0
 12 35  1  6
 13 36  1  0
 14 21  1  0
 14 15  1  1
 14 16  1  0
 15 37  1  0
 16 17  1  0
 16 38  1  0
 16 39  1  0
 17 18  1  0
 17 40  1  0
 17 41  1  0
 18 19  1  0
 18 20  1  0
 18 42  1  1
 19 43  1  0
 20 21  1  0
 20 44  1  0
 20 45  1  0
 21 22  1  6
 22 46  1  0
 22 47  1  0
 22 48  1  0
M  END
>  <i_m_ct_stereo_status>  (161) 
1

>  <s_m_source_file>  (161) 
/var/tmp/pbs.5076255.sched01/tmp7rtc4ovb/41r77q45k8.sdf

>  <i_m_source_file_index>  (161) 
34

>  <i_lp_mmshare_version>  (161) 
48012

>  <i_f3d_flags>  (161) 
0

>  <s_epik_input>  (161) 
Tz1DMVtDSDJdQyg9TylDKFtDSDNdKShbQ0gzXSlbQ0BASF0oW0NIMl1bQ0BIXTJbT0hdKVtDQEhdMVtDQEBdKFtDSDNdKShbQ0BAXTIzW09IXSlbQ0gyXVtDQEhdKFtPSF0pW0NIMl1bQ0gyXTM=

>  <s_epik_cmdline>  (161) 
J2VwaWtfcHl0aG9uJywgJy1waHQnLCAnMi4wJywgJy1waCcsICc3LjAnLCAnLXRuJywgJzgnLCAnLW1hJywgJzIwMCcsICctaW1hZScsICc8aW5maWxlLm1hZT4nLCAnLW9tYWUnLCAnPG91dGZpbGUubWFlPic=

>  <r_lp_tautomer_probability>  (161) 
1

>  <r_epik_Ionization_Penalty>  (161) 
2.38093

>  <r_epik_Ionization_Penalty_Charging>  (161) 
0

>  <r_epik_Ionization_Penalty_Neutral>  (161) 
2.38093

>  <r_epik_State_Penalty>  (161) 
2.54239

>  <r_epik_Charging_Adjusted_Penalty>  (161) 
2.54239

>  <i_epik_Tot_Q>  (161) 
0

>  <i_epik_Tot_abs_Q>  (161) 
0

>  <s_lp_Force_Field>  (161) 
OPLS3e

>  <r_lp_Energy>  (161) 
38.1033

>  <b_lp_Chiralities_Consistent>  (161) 
1

>  <s_lp_Variant>  (161) 
46:0-2

>  <s_i_glide_gridfile>  (161) 
pfpi4k_grid

>  <i_i_glide_lignum>  (161) 
34

>  <i_i_glide_rotatable_bonds>  (161) 
3

>  <r_i_docking_score>  (161) 
-3.25914

>  <r_i_glide_ligand_efficiency>  (161) 
-0.148143

>  <r_i_glide_ligand_efficiency_sa>  (161) 
-0.415102

>  <r_i_glide_ligand_efficiency_ln>  (161) 
-0.796653

>  <r_i_glide_gscore>  (161) 
-3.25914

>  <r_i_glide_lipo>  (161) 
-0.570244

>  <r_i_glide_hbond>  (161) 
-0.137745

>  <r_i_glide_metal>  (161) 
-0

>  <r_i_glide_rewards>  (161) 
-1.31706

>  <r_i_glide_evdw>  (161) 
-20.492

>  <r_i_glide_ecoul>  (161) 
-1.37239

>  <r_i_glide_erotb>  (161) 
0

>  <r_i_glide_esite>  (161) 
-0.00362766

>  <r_i_glide_emodel>  (161) 
-25.3633

>  <r_i_glide_energy>  (161) 
-21.8644

>  <r_i_glide_einternal>  (161) 
0.990666

>  <r_i_glide_intrahb_reward>  (161) 
-0

>  <i_i_glide_confnum>  (161) 
2

>  <i_i_glide_posenum>  (161) 
32

>  <r_i_glide_eff_state_penalty>  (161) 
0

>  <ligand_id>  (161) 
46

>  <original_smiles>  (161) 
CC1(C)C(=O)CC(=O)C2C1CC(O)C1(O)CCC(O)CC21C

>  <smiles>  (161) 
[H]OC1([H])C([H])([H])C([H])([H])C2(O[H])C([H])(O[H])C([H])([H])C3([H])C([H])(C(=O)C([H])([H])C(=O)C3(C([H])([H])[H])C([H])([H])[H])C2(C([H])([H])[H])C1([H])[H]

$$$$
46:1:1
     RDKit          3D

 48 50  0  0  1  0  0  0  0  0999 V2000
    5.6956   -3.3490   -1.7846 C   0  0  0  0  0  0  0  0  0  0  0  0
    5.9806   -3.0666   -0.2924 C   0  0  0  0  0  0  0  0  0  0  0  0
    7.4785   -2.6680   -0.1611 C   0  0  0  0  0  0  0  0  0  0  0  0
    5.0740   -1.9016    0.1453 C   0  0  0  0  0  0  0  0  0  0  0  0
    5.5219   -0.7860    0.4134 O   0  0  0  0  0  0  0  0  0  0  0  0
    3.5724   -2.1796    0.1392 C   0  0  0  0  0  0  0  0  0  0  0  0
    3.2701   -3.4911    0.8716 C   0  0  0  0  0  0  0  0  0  0  0  0
    2.2981   -3.5365    1.6192 O   0  0  0  0  0  0  0  0  0  0  0  0
    4.1471   -4.7369    0.5484 C   0  0  1  0  0  0  0  0  0  0  0  0
    5.6618   -4.3389    0.5736 C   0  0  2  0  0  0  0  0  0  0  0  0
    6.1608   -4.2647    2.0414 C   0  0  0  0  0  0  0  0  0  0  0  0
    5.9525   -5.5964    2.7879 C   0  0  1  0  0  0  0  0  0  0  0  0
    6.4582   -5.5042    4.1105 O   0  0  0  0  0  0  0  0  0  0  0  0
    4.4677   -6.0433    2.8061 C   0  0  1  0  0  0  0  0  0  0  0  0
    4.4793   -7.3566    3.3424 O   0  0  0  0  0  0  0  0  0  0  0  0
    3.6181   -5.1971    3.7880 C   0  0  0  0  0  0  0  0  0  0  0  0
    2.1242   -5.5438    3.8361 C   0  0  0  0  0  0  0  0  0  0  0  0
    1.6354   -6.5110    2.7372 C   0  0  1  0  0  0  0  0  0  0  0  0
    0.2520   -6.3080    2.5116 O   0  0  0  0  0  0  0  0  0  0  0  0
    2.3606   -6.4814    1.3675 C   0  0  0  0  0  0  0  0  0  0  0  0
    3.8729   -6.0862    1.3481 C   0  0  1  0  0  0  0  0  0  0  0  0
    4.5727   -7.2043    0.5257 C   0  0  0  0  0  0  0  0  0  0  0  0
    6.2338   -4.2195   -2.1486 H   0  0  0  0  0  0  0  0  0  0  0  0
    5.9810   -2.4951   -2.3993 H   0  0  0  0  0  0  0  0  0  0  0  0
    4.6419   -3.5558   -1.9759 H   0  0  0  0  0  0  0  0  0  0  0  0
    8.1408   -3.5273   -0.3196 H   0  0  0  0  0  0  0  0  0  0  0  0
    7.7144   -2.2404    0.8204 H   0  0  0  0  0  0  0  0  0  0  0  0
    7.7435   -1.9138   -0.9027 H   0  0  0  0  0  0  0  0  0  0  0  0
    3.0592   -1.3581    0.6395 H   0  0  0  0  0  0  0  0  0  0  0  0
    3.1804   -2.1995   -0.8785 H   0  0  0  0  0  0  0  0  0  0  0  0
    3.9068   -4.9651   -0.4892 H   0  0  0  0  0  0  0  0  0  0  0  0
    6.2463   -5.1333    0.1056 H   0  0  0  0  0  0  0  0  0  0  0  0
    7.2253   -4.0573    2.0621 H   0  0  0  0  0  0  0  0  0  0  0  0
    5.6758   -3.4491    2.5780 H   0  0  0  0  0  0  0  0  0  0  0  0
    6.5621   -6.3450    2.2862 H   0  0  0  0  0  0  0  0  0  0  0  0
    5.9948   -4.8162    4.5588 H   0  0  0  0  0  0  0  0  0  0  0  0
    4.9183   -7.3076    4.1796 H   0  0  0  0  0  0  0  0  0  0  0  0
    4.0122   -5.2650    4.8006 H   0  0  0  0  0  0  0  0  0  0  0  0
    3.7233   -4.1416    3.5471 H   0  0  0  0  0  0  0  0  0  0  0  0
    1.9234   -6.0234    4.7933 H   0  0  0  0  0  0  0  0  0  0  0  0
    1.5491   -4.6234    3.8563 H   0  0  0  0  0  0  0  0  0  0  0  0
    1.7432   -7.5153    3.1502 H   0  0  0  0  0  0  0  0  0  0  0  0
   -0.1099   -7.1314    2.2057 H   0  0  0  0  0  0  0  0  0  0  0  0
    2.2356   -7.4913    0.9744 H   0  0  0  0  0  0  0  0  0  0  0  0
    1.8148   -5.8670    0.6608 H   0  0  0  0  0  0  0  0  0  0  0  0
    4.3362   -8.2029    0.9094 H   0  0  0  0  0  0  0  0  0  0  0  0
    5.6577   -7.1345    0.5082 H   0  0  0  0  0  0  0  0  0  0  0  0
    4.2346   -7.1638   -0.5093 H   0  0  0  0  0  0  0  0  0  0  0  0
  1  2  1  0
  1 23  1  0
  1 24  1  0
  1 25  1  0
  2 10  1  0
  2  3  1  0
  2  4  1  0
  3 26  1  0
  3 27  1  0
  3 28  1  0
  4  5  2  0
  4  6  1  0
  6  7  1  0
  6 29  1  0
  6 30  1  0
  7  8  2  0
  7  9  1  0
  9 21  1  0
  9 10  1  0
  9 31  1  6
 10 11  1  0
 10 32  1  6
 11 12  1  0
 11 33  1  0
 11 34  1  0
 12 13  1  0
 12 14  1  0
 12 35  1  6
 13 36  1  0
 14 21  1  0
 14 15  1  1
 14 16  1  0
 15 37  1  0
 16 17  1  0
 16 38  1  0
 16 39  1  0
 17 18  1  0
 17 40  1  0
 17 41  1  0
 18 19  1  0
 18 20  1  0
 18 42  1  1
 19 43  1  0
 20 21  1  0
 20 44  1  0
 20 45  1  0
 21 22  1  6
 22 46  1  0
 22 47  1  0
 22 48  1  0
M  END
>  <i_m_ct_stereo_status>  (162) 
1

>  <s_m_source_file>  (162) 
/var/tmp/pbs.5076255.sched01/tmp7rtc4ovb/41r77q45k8.sdf

>  <i_m_source_file_index>  (162) 
34

>  <i_lp_mmshare_version>  (162) 
48012

>  <i_f3d_flags>  (162) 
0

>  <s_epik_input>  (162) 
Tz1DMVtDSDJdQyg9TylDKFtDSDNdKShbQ0gzXSlbQ0BASF0oW0NIMl1bQ0BIXTJbT0hdKVtDQEhdMVtDQEBdKFtDSDNdKShbQ0BAXTIzW09IXSlbQ0gyXVtDQEhdKFtPSF0pW0NIMl1bQ0gyXTM=

>  <s_epik_cmdline>  (162) 
J2VwaWtfcHl0aG9uJywgJy1waHQnLCAnMi4wJywgJy1waCcsICc3LjAnLCAnLXRuJywgJzgnLCAnLW1hJywgJzIwMCcsICctaW1hZScsICc8aW5maWxlLm1hZT4nLCAnLW9tYWUnLCAnPG91dGZpbGUubWFlPic=

>  <r_lp_tautomer_probability>  (162) 
1

>  <r_epik_Ionization_Penalty>  (162) 
2.38093

>  <r_epik_Ionization_Penalty_Charging>  (162) 
0

>  <r_epik_Ionization_Penalty_Neutral>  (162) 
2.38093

>  <r_epik_State_Penalty>  (162) 
2.54239

>  <r_epik_Charging_Adjusted_Penalty>  (162) 
2.54239

>  <i_epik_Tot_Q>  (162) 
0

>  <i_epik_Tot_abs_Q>  (162) 
0

>  <s_lp_Force_Field>  (162) 
OPLS3e

>  <r_lp_Energy>  (162) 
38.1033

>  <b_lp_Chiralities_Consistent>  (162) 
1

>  <s_lp_Variant>  (162) 
46:0-2

>  <s_i_glide_gridfile>  (162) 
pfpi4k_grid

>  <i_i_glide_lignum>  (162) 
34

>  <i_i_glide_rotatable_bonds>  (162) 
3

>  <r_i_docking_score>  (162) 
-3.20513

>  <r_i_glide_ligand_efficiency>  (162) 
-0.145688

>  <r_i_glide_ligand_efficiency_sa>  (162) 
-0.408223

>  <r_i_glide_ligand_efficiency_ln>  (162) 
-0.783451

>  <r_i_glide_gscore>  (162) 
-3.20513

>  <r_i_glide_lipo>  (162) 
-0.58618

>  <r_i_glide_hbond>  (162) 
-0.136381

>  <r_i_glide_metal>  (162) 
-0

>  <r_i_glide_rewards>  (162) 
-1.31089

>  <r_i_glide_evdw>  (162) 
-20.4365

>  <r_i_glide_ecoul>  (162) 
-0.97344

>  <r_i_glide_erotb>  (162) 
0

>  <r_i_glide_esite>  (162) 
-0.00383804

>  <r_i_glide_emodel>  (162) 
-25.1221

>  <r_i_glide_energy>  (162) 
-21.4099

>  <r_i_glide_einternal>  (162) 
0.629203

>  <r_i_glide_intrahb_reward>  (162) 
-0

>  <i_i_glide_confnum>  (162) 
2

>  <i_i_glide_posenum>  (162) 
40

>  <r_i_glide_eff_state_penalty>  (162) 
0

>  <ligand_id>  (162) 
46

>  <original_smiles>  (162) 
CC1(C)C(=O)CC(=O)C2C1CC(O)C1(O)CCC(O)CC21C

>  <smiles>  (162) 
[H]OC1([H])C([H])([H])C([H])([H])C2(O[H])C([H])(O[H])C([H])([H])C3([H])C([H])(C(=O)C([H])([H])C(=O)C3(C([H])([H])[H])C([H])([H])[H])C2(C([H])([H])[H])C1([H])[H]

$$$$
46:1:2
     RDKit          3D

 48 50  0  0  1  0  0  0  0  0999 V2000
    6.7144   -3.1290   -1.4219 C   0  0  0  0  0  0  0  0  0  0  0  0
    6.2628   -2.5649   -0.0709 C   0  0  0  0  0  0  0  0  0  0  0  0
    7.4859   -1.7874    0.4815 C   0  0  0  0  0  0  0  0  0  0  0  0
    5.0528   -1.6264   -0.2544 C   0  0  0  0  0  0  0  0  0  0  0  0
    5.1118   -0.4475    0.0587 O   0  0  0  0  0  0  0  0  0  0  0  0
    3.7865   -2.2720   -0.7988 C   0  0  0  0  0  0  0  0  0  0  0  0
    3.4227   -3.4805    0.0582 C   0  0  0  0  0  0  0  0  0  0  0  0
    2.2409   -3.6885    0.3321 O   0  0  0  0  0  0  0  0  0  0  0  0
    4.5493   -4.4872    0.4179 C   0  0  1  0  0  0  0  0  0  0  0  0
    5.8209   -3.7127    0.9014 C   0  0  2  0  0  0  0  0  0  0  0  0
    5.6010   -3.2446    2.3516 C   0  0  0  0  0  0  0  0  0  0  0  0
    5.3840   -4.4421    3.2973 C   0  0  1  0  0  0  0  0  0  0  0  0
    5.2891   -3.9627    4.6225 O   0  0  0  0  0  0  0  0  0  0  0  0
    4.1421   -5.2747    2.9084 C   0  0  1  0  0  0  0  0  0  0  0  0
    4.1890   -6.4447    3.7119 O   0  0  0  0  0  0  0  0  0  0  0  0
    2.8385   -4.5366    3.2804 C   0  0  0  0  0  0  0  0  0  0  0  0
    1.5459   -5.2430    2.8833 C   0  0  0  0  0  0  0  0  0  0  0  0
    1.7046   -6.4579    1.9512 C   0  0  1  0  0  0  0  0  0  0  0  0
    0.5069   -6.6015    1.2145 O   0  0  0  0  0  0  0  0  0  0  0  0
    2.9054   -6.4510    0.9710 C   0  0  0  0  0  0  0  0  0  0  0  0
    4.2008   -5.7007    1.3914 C   0  0  1  0  0  0  0  0  0  0  0  0
    5.3398   -6.7287    1.1726 C   0  0  0  0  0  0  0  0  0  0  0  0
    7.5556   -3.8219   -1.2851 H   0  0  0  0  0  0  0  0  0  0  0  0
    7.0524   -2.3316   -2.0818 H   0  0  0  0  0  0  0  0  0  0  0  0
    5.9124   -3.6683   -1.9328 H   0  0  0  0  0  0  0  0  0  0  0  0
    8.2745   -2.4740    0.8139 H   0  0  0  0  0  0  0  0  0  0  0  0
    7.2181   -1.1460    1.3256 H   0  0  0  0  0  0  0  0  0  0  0  0
    7.9194   -1.1241   -0.2649 H   0  0  0  0  0  0  0  0  0  0  0  0
    3.0061   -1.5170   -0.7152 H   0  0  0  0  0  0  0  0  0  0  0  0
    3.8565   -2.5278   -1.8564 H   0  0  0  0  0  0  0  0  0  0  0  0
    4.8110   -4.9423   -0.5325 H   0  0  0  0  0  0  0  0  0  0  0  0
    6.6779   -4.3921    0.9265 H   0  0  0  0  0  0  0  0  0  0  0  0
    6.4568   -2.6727    2.6795 H   0  0  0  0  0  0  0  0  0  0  0  0
    4.7576   -2.5563    2.4470 H   0  0  0  0  0  0  0  0  0  0  0  0
    6.2761   -5.0738    3.2644 H   0  0  0  0  0  0  0  0  0  0  0  0
    5.3750   -4.7011    5.2093 H   0  0  0  0  0  0  0  0  0  0  0  0
    4.0578   -6.1904    4.6178 H   0  0  0  0  0  0  0  0  0  0  0  0
    2.7850   -4.3256    4.3442 H   0  0  0  0  0  0  0  0  0  0  0  0
    2.8350   -3.5514    2.8211 H   0  0  0  0  0  0  0  0  0  0  0  0
    1.0463   -5.5993    3.7869 H   0  0  0  0  0  0  0  0  0  0  0  0
    0.8836   -4.4878    2.4956 H   0  0  0  0  0  0  0  0  0  0  0  0
    1.8121   -7.3327    2.5893 H   0  0  0  0  0  0  0  0  0  0  0  0
    0.4630   -7.4860    0.8708 H   0  0  0  0  0  0  0  0  0  0  0  0
    3.1345   -7.5036    0.8181 H   0  0  0  0  0  0  0  0  0  0  0  0
    2.5933   -6.0928    0.0007 H   0  0  0  0  0  0  0  0  0  0  0  0
    5.1572   -7.6687    1.7061 H   0  0  0  0  0  0  0  0  0  0  0  0
    6.3254   -6.3966    1.4855 H   0  0  0  0  0  0  0  0  0  0  0  0
    5.3848   -6.9570    0.0999 H   0  0  0  0  0  0  0  0  0  0  0  0
  1  2  1  0
  1 23  1  0
  1 24  1  0
  1 25  1  0
  2 10  1  0
  2  3  1  0
  2  4  1  0
  3 26  1  0
  3 27  1  0
  3 28  1  0
  4  5  2  0
  4  6  1  0
  6  7  1  0
  6 29  1  0
  6 30  1  0
  7  8  2  0
  7  9  1  0
  9 21  1  0
  9 10  1  0
  9 31  1  6
 10 11  1  0
 10 32  1  1
 11 12  1  0
 11 33  1  0
 11 34  1  0
 12 13  1  0
 12 14  1  0
 12 35  1  1
 13 36  1  0
 14 21  1  0
 14 15  1  1
 14 16  1  0
 15 37  1  0
 16 17  1  0
 16 38  1  0
 16 39  1  0
 17 18  1  0
 17 40  1  0
 17 41  1  0
 18 19  1  0
 18 20  1  0
 18 42  1  1
 19 43  1  0
 20 21  1  0
 20 44  1  0
 20 45  1  0
 21 22  1  1
 22 46  1  0
 22 47  1  0
 22 48  1  0
M  END
>  <i_m_ct_stereo_status>  (163) 
1

>  <s_m_source_file>  (163) 
/var/tmp/pbs.5076255.sched01/tmp7rtc4ovb/41r77q45k8.sdf

>  <i_m_source_file_index>  (163) 
34

>  <i_lp_mmshare_version>  (163) 
48012

>  <i_f3d_flags>  (163) 
0

>  <s_epik_input>  (163) 
Tz1DMVtDSDJdQyg9TylDKFtDSDNdKShbQ0gzXSlbQ0BASF0oW0NIMl1bQ0BIXTJbT0hdKVtDQEhdMVtDQEBdKFtDSDNdKShbQ0BAXTIzW09IXSlbQ0gyXVtDQEhdKFtPSF0pW0NIMl1bQ0gyXTM=

>  <s_epik_cmdline>  (163) 
J2VwaWtfcHl0aG9uJywgJy1waHQnLCAnMi4wJywgJy1waCcsICc3LjAnLCAnLXRuJywgJzgnLCAnLW1hJywgJzIwMCcsICctaW1hZScsICc8aW5maWxlLm1hZT4nLCAnLW9tYWUnLCAnPG91dGZpbGUubWFlPic=

>  <r_lp_tautomer_probability>  (163) 
1

>  <r_epik_Ionization_Penalty>  (163) 
2.38093

>  <r_epik_Ionization_Penalty_Charging>  (163) 
0

>  <r_epik_Ionization_Penalty_Neutral>  (163) 
2.38093

>  <r_epik_State_Penalty>  (163) 
2.54239

>  <r_epik_Charging_Adjusted_Penalty>  (163) 
2.54239

>  <i_epik_Tot_Q>  (163) 
0

>  <i_epik_Tot_abs_Q>  (163) 
0

>  <s_lp_Force_Field>  (163) 
OPLS3e

>  <r_lp_Energy>  (163) 
38.1033

>  <b_lp_Chiralities_Consistent>  (163) 
1

>  <s_lp_Variant>  (163) 
46:0-2

>  <s_i_glide_gridfile>  (163) 
pfpi4k_grid

>  <i_i_glide_lignum>  (163) 
34

>  <i_i_glide_rotatable_bonds>  (163) 
3

>  <r_i_docking_score>  (163) 
-3.20276

>  <r_i_glide_ligand_efficiency>  (163) 
-0.14558

>  <r_i_glide_ligand_efficiency_sa>  (163) 
-0.40792

>  <r_i_glide_ligand_efficiency_ln>  (163) 
-0.78287

>  <r_i_glide_gscore>  (163) 
-3.20276

>  <r_i_glide_lipo>  (163) 
-0.364031

>  <r_i_glide_hbond>  (163) 
-0.136015

>  <r_i_glide_metal>  (163) 
-0

>  <r_i_glide_rewards>  (163) 
-1.29538

>  <r_i_glide_evdw>  (163) 
-18.2588

>  <r_i_glide_ecoul>  (163) 
-3.21555

>  <r_i_glide_erotb>  (163) 
0

>  <r_i_glide_esite>  (163) 
-0.0120556

>  <r_i_glide_emodel>  (163) 
-24.9835

>  <r_i_glide_energy>  (163) 
-21.4744

>  <r_i_glide_einternal>  (163) 
0.805218

>  <r_i_glide_intrahb_reward>  (163) 
-0

>  <i_i_glide_confnum>  (163) 
2

>  <i_i_glide_posenum>  (163) 
1

>  <r_i_glide_eff_state_penalty>  (163) 
0

>  <ligand_id>  (163) 
46

>  <original_smiles>  (163) 
CC1(C)C(=O)CC(=O)C2C1CC(O)C1(O)CCC(O)CC21C

>  <smiles>  (163) 
[H]OC1([H])C([H])([H])C([H])([H])C2(O[H])C([H])(O[H])C([H])([H])C3([H])C([H])(C(=O)C([H])([H])C(=O)C3(C([H])([H])[H])C([H])([H])[H])C2(C([H])([H])[H])C1([H])[H]

$$$$
47:0:0
     RDKit          3D

 24 26  0  0  1  0  0  0  0  0999 V2000
    2.1380    0.3484   -5.1212 C   0  0  0  0  0  0  0  0  0  0  0  0
    3.3595   -0.5298   -4.8150 C   0  0  0  0  0  0  0  0  0  0  0  0
    3.1286   -1.5334   -3.7156 C   0  0  0  0  0  0  0  0  0  0  0  0
    2.2079   -2.5656   -3.6652 C   0  0  0  0  0  0  0  0  0  0  0  0
    2.2473   -3.2481   -2.4846 O   0  0  0  0  0  0  0  0  0  0  0  0
    3.2433   -2.6770   -1.7306 C   0  0  0  0  0  0  0  0  0  0  0  0
    3.6445   -3.0523   -0.4373 C   0  0  0  0  0  0  0  0  0  0  0  0
    4.6555   -2.2826    0.1588 C   0  0  0  0  0  0  0  0  0  0  0  0
    5.2357   -1.2307   -0.5162 C   0  0  0  0  0  0  0  0  0  0  0  0
    4.8399   -0.8717   -1.8145 C   0  0  0  0  0  0  0  0  0  0  0  0
    3.8117   -1.5986   -2.4584 C   0  0  0  0  0  0  0  0  0  0  0  0
    6.1568   -0.6350    0.2819 O   0  0  0  0  0  0  0  0  0  0  0  0
    6.0355   -1.2678    1.5257 C   0  0  0  0  0  0  0  0  0  0  0  0
    5.1811   -2.3739    1.4026 O   0  0  0  0  0  0  0  0  0  0  0  0
    2.3710    1.0548   -5.9173 H   0  0  0  0  0  0  0  0  0  0  0  0
    1.8126    0.9450   -4.2807 H   0  0  0  0  0  0  0  0  0  0  0  0
    1.2895   -0.2531   -5.4470 H   0  0  0  0  0  0  0  0  0  0  0  0
    3.6483   -1.0478   -5.7270 H   0  0  0  0  0  0  0  0  0  0  0  0
    4.2003    0.1239   -4.5628 H   0  0  0  0  0  0  0  0  0  0  0  0
    1.4292   -2.9160   -4.3221 H   0  0  0  0  0  0  0  0  0  0  0  0
    3.1786   -3.8673    0.0779 H   0  0  0  0  0  0  0  0  0  0  0  0
    5.2444   -0.0204   -2.3199 H   0  0  0  0  0  0  0  0  0  0  0  0
    7.0116   -1.5848    1.8841 H   0  0  0  0  0  0  0  0  0  0  0  0
    5.5948   -0.5723    2.2411 H   0  0  0  0  0  0  0  0  0  0  0  0
  1  2  1  0
  1 15  1  0
  1 16  1  0
  1 17  1  0
  2  3  1  0
  2 18  1  0
  2 19  1  0
  3 11  1  0
  3  4  2  0
  4  5  1  0
  4 20  1  0
  5  6  1  0
  6 11  2  0
  6  7  1  0
  7  8  2  0
  7 21  1  0
  8 14  1  0
  8  9  1  0
  9 10  2  0
  9 12  1  0
 10 11  1  0
 10 22  1  0
 12 13  1  0
 13 14  1  0
 13 23  1  0
 13 24  1  0
M  END
>  <i_m_ct_stereo_status>  (164) 
1

>  <s_m_source_file>  (164) 
/var/tmp/pbs.5076255.sched01/tmp7rtc4ovb/41r77q45k8.sdf

>  <i_m_source_file_index>  (164) 
35

>  <i_lp_mmshare_version>  (164) 
48012

>  <i_f3d_flags>  (164) 
0

>  <s_epik_input>  (164) 
W0NIM11bQ0gyXWMoW2NIXW8xKWMoYzEyKVtjSF1jM2MoW2NIXTIpT1tDSDJdTzM=

>  <s_epik_cmdline>  (164) 
J2VwaWtfcHl0aG9uJywgJy1waHQnLCAnMi4wJywgJy1waCcsICc3LjAnLCAnLXRuJywgJzgnLCAnLW1hJywgJzIwMCcsICctaW1hZScsICc8aW5maWxlLm1hZT4nLCAnLW9tYWUnLCAnPG91dGZpbGUubWFlPic=

>  <r_lp_tautomer_probability>  (164) 
1

>  <r_epik_Ionization_Penalty>  (164) 
0

>  <r_epik_Ionization_Penalty_Charging>  (164) 
0

>  <r_epik_Ionization_Penalty_Neutral>  (164) 
0

>  <r_epik_State_Penalty>  (164) 
-0

>  <r_epik_Charging_Adjusted_Penalty>  (164) 
0

>  <i_epik_Tot_Q>  (164) 
0

>  <i_epik_Tot_abs_Q>  (164) 
0

>  <s_epik_Chemistry_Notes>  (164) 
This compound contains an acetal/aminal-like group ( X-CH(R)-Y where X, Y are N, S, or O) that may be acid/base labile, releasing an aldehyde.

>  <s_lp_Force_Field>  (164) 
OPLS3e

>  <r_lp_Energy>  (164) 
19.4945

>  <b_lp_Chiralities_Consistent>  (164) 
1

>  <s_lp_Variant>  (164) 
47:0-1

>  <s_i_glide_gridfile>  (164) 
pfpi4k_grid

>  <i_i_glide_lignum>  (164) 
35

>  <i_i_glide_rotatable_bonds>  (164) 
1

>  <r_i_docking_score>  (164) 
-3.94668

>  <r_i_glide_ligand_efficiency>  (164) 
-0.281905

>  <r_i_glide_ligand_efficiency_sa>  (164) 
-0.679432

>  <r_i_glide_ligand_efficiency_ln>  (164) 
-1.08453

>  <r_i_glide_gscore>  (164) 
-3.94668

>  <r_i_glide_lipo>  (164) 
-0.681933

>  <r_i_glide_hbond>  (164) 
0

>  <r_i_glide_metal>  (164) 
-0

>  <r_i_glide_rewards>  (164) 
-2.36152

>  <r_i_glide_evdw>  (164) 
-18.6671

>  <r_i_glide_ecoul>  (164) 
0.200874

>  <r_i_glide_erotb>  (164) 
0

>  <r_i_glide_esite>  (164) 
0

>  <r_i_glide_emodel>  (164) 
-23.0535

>  <r_i_glide_energy>  (164) 
-18.4662

>  <r_i_glide_einternal>  (164) 
0.0922108

>  <r_i_glide_intrahb_reward>  (164) 
-0

>  <i_i_glide_confnum>  (164) 
1

>  <i_i_glide_posenum>  (164) 
2

>  <r_i_glide_eff_state_penalty>  (164) 
0

>  <ligand_id>  (164) 
47

>  <original_smiles>  (164) 
CCc1coc2cc3c(cc12)OCO3

>  <smiles>  (164) 
[H]c1oc2c([H])c3c(c([H])c2c1C([H])([H])C([H])([H])[H])OC([H])([H])O3

$$$$
47:0:1
     RDKit          3D

 24 26  0  0  1  0  0  0  0  0999 V2000
    3.2586    0.3314   -5.1650 C   0  0  0  0  0  0  0  0  0  0  0  0
    3.2368    0.1348   -3.6532 C   0  0  0  0  0  0  0  0  0  0  0  0
    3.4188   -1.2768   -3.2576 C   0  0  0  0  0  0  0  0  0  0  0  0
    2.6365   -2.3230   -3.6585 C   0  0  0  0  0  0  0  0  0  0  0  0
    3.0518   -3.4797   -3.0922 O   0  0  0  0  0  0  0  0  0  0  0  0
    4.1212   -3.2044   -2.2699 C   0  0  0  0  0  0  0  0  0  0  0  0
    4.8649   -4.0996   -1.4695 C   0  0  0  0  0  0  0  0  0  0  0  0
    5.9003   -3.5565   -0.7009 C   0  0  0  0  0  0  0  0  0  0  0  0
    6.1668   -2.2030   -0.7253 C   0  0  0  0  0  0  0  0  0  0  0  0
    5.4120   -1.3156   -1.5177 C   0  0  0  0  0  0  0  0  0  0  0  0
    4.3708   -1.8120   -2.3317 C   0  0  0  0  0  0  0  0  0  0  0  0
    7.1903   -1.9372    0.1251 O   0  0  0  0  0  0  0  0  0  0  0  0
    7.4600   -3.1496    0.7772 C   0  0  0  0  0  0  0  0  0  0  0  0
    6.7405   -4.1804    0.1610 O   0  0  0  0  0  0  0  0  0  0  0  0
    3.1172    1.3811   -5.4160 H   0  0  0  0  0  0  0  0  0  0  0  0
    2.4575   -0.2434   -5.6376 H   0  0  0  0  0  0  0  0  0  0  0  0
    4.2130   -0.0061   -5.5356 H   0  0  0  0  0  0  0  0  0  0  0  0
    4.0027    0.7611   -3.1850 H   0  0  0  0  0  0  0  0  0  0  0  0
    2.2569    0.4405   -3.2993 H   0  0  0  0  0  0  0  0  0  0  0  0
    1.7851   -2.4300   -4.3099 H   0  0  0  0  0  0  0  0  0  0  0  0
    4.6575   -5.1480   -1.4149 H   0  0  0  0  0  0  0  0  0  0  0  0
    5.5756   -0.2600   -1.4976 H   0  0  0  0  0  0  0  0  0  0  0  0
    8.5394   -3.3589    0.7910 H   0  0  0  0  0  0  0  0  0  0  0  0
    7.0583   -3.0641    1.7865 H   0  0  0  0  0  0  0  0  0  0  0  0
  1  2  1  0
  1 15  1  0
  1 16  1  0
  1 17  1  0
  2  3  1  0
  2 18  1  0
  2 19  1  0
  3 11  1  0
  3  4  2  0
  4  5  1  0
  4 20  1  0
  5  6  1  0
  6 11  2  0
  6  7  1  0
  7  8  2  0
  7 21  1  0
  8 14  1  0
  8  9  1  0
  9 10  2  0
  9 12  1  0
 10 11  1  0
 10 22  1  0
 12 13  1  0
 13 14  1  0
 13 23  1  0
 13 24  1  0
M  END
>  <i_m_ct_stereo_status>  (165) 
1

>  <s_m_source_file>  (165) 
/var/tmp/pbs.5076255.sched01/tmp7rtc4ovb/41r77q45k8.sdf

>  <i_m_source_file_index>  (165) 
35

>  <i_lp_mmshare_version>  (165) 
48012

>  <i_f3d_flags>  (165) 
0

>  <s_epik_input>  (165) 
W0NIM11bQ0gyXWMoW2NIXW8xKWMoYzEyKVtjSF1jM2MoW2NIXTIpT1tDSDJdTzM=

>  <s_epik_cmdline>  (165) 
J2VwaWtfcHl0aG9uJywgJy1waHQnLCAnMi4wJywgJy1waCcsICc3LjAnLCAnLXRuJywgJzgnLCAnLW1hJywgJzIwMCcsICctaW1hZScsICc8aW5maWxlLm1hZT4nLCAnLW9tYWUnLCAnPG91dGZpbGUubWFlPic=

>  <r_lp_tautomer_probability>  (165) 
1

>  <r_epik_Ionization_Penalty>  (165) 
0

>  <r_epik_Ionization_Penalty_Charging>  (165) 
0

>  <r_epik_Ionization_Penalty_Neutral>  (165) 
0

>  <r_epik_State_Penalty>  (165) 
-0

>  <r_epik_Charging_Adjusted_Penalty>  (165) 
0

>  <i_epik_Tot_Q>  (165) 
0

>  <i_epik_Tot_abs_Q>  (165) 
0

>  <s_epik_Chemistry_Notes>  (165) 
This compound contains an acetal/aminal-like group ( X-CH(R)-Y where X, Y are N, S, or O) that may be acid/base labile, releasing an aldehyde.

>  <s_lp_Force_Field>  (165) 
OPLS3e

>  <r_lp_Energy>  (165) 
19.4945

>  <b_lp_Chiralities_Consistent>  (165) 
1

>  <s_lp_Variant>  (165) 
47:0-1

>  <s_i_glide_gridfile>  (165) 
pfpi4k_grid

>  <i_i_glide_lignum>  (165) 
35

>  <i_i_glide_rotatable_bonds>  (165) 
1

>  <r_i_docking_score>  (165) 
-3.9358

>  <r_i_glide_ligand_efficiency>  (165) 
-0.281129

>  <r_i_glide_ligand_efficiency_sa>  (165) 
-0.67756

>  <r_i_glide_ligand_efficiency_ln>  (165) 
-1.08154

>  <r_i_glide_gscore>  (165) 
-3.9358

>  <r_i_glide_lipo>  (165) 
-0.567983

>  <r_i_glide_hbond>  (165) 
-0.0417308

>  <r_i_glide_metal>  (165) 
-0

>  <r_i_glide_rewards>  (165) 
-2.26368

>  <r_i_glide_evdw>  (165) 
-15.432

>  <r_i_glide_ecoul>  (165) 
-1.93872

>  <r_i_glide_erotb>  (165) 
0

>  <r_i_glide_esite>  (165) 
0

>  <r_i_glide_emodel>  (165) 
-21.9543

>  <r_i_glide_energy>  (165) 
-17.3707

>  <r_i_glide_einternal>  (165) 
0.146283

>  <r_i_glide_intrahb_reward>  (165) 
-0

>  <i_i_glide_confnum>  (165) 
2

>  <i_i_glide_posenum>  (165) 
22

>  <r_i_glide_eff_state_penalty>  (165) 
0

>  <ligand_id>  (165) 
47

>  <original_smiles>  (165) 
CCc1coc2cc3c(cc12)OCO3

>  <smiles>  (165) 
[H]c1oc2c([H])c3c(c([H])c2c1C([H])([H])C([H])([H])[H])OC([H])([H])O3

$$$$
47:0:2
     RDKit          3D

 24 26  0  0  1  0  0  0  0  0999 V2000
    3.4722    0.5310   -4.3727 C   0  0  0  0  0  0  0  0  0  0  0  0
    3.8472   -0.9383   -4.5783 C   0  0  0  0  0  0  0  0  0  0  0  0
    3.3732   -1.8257   -3.4712 C   0  0  0  0  0  0  0  0  0  0  0  0
    2.4272   -2.8184   -3.5391 C   0  0  0  0  0  0  0  0  0  0  0  0
    2.2200   -3.4382   -2.3375 O   0  0  0  0  0  0  0  0  0  0  0  0
    3.0868   -2.8531   -1.4444 C   0  0  0  0  0  0  0  0  0  0  0  0
    3.2496   -3.1633   -0.0841 C   0  0  0  0  0  0  0  0  0  0  0  0
    4.1754   -2.3868    0.6311 C   0  0  0  0  0  0  0  0  0  0  0  0
    4.9037   -1.3854    0.0202 C   0  0  0  0  0  0  0  0  0  0  0  0
    4.7570   -1.0917   -1.3480 C   0  0  0  0  0  0  0  0  0  0  0  0
    3.8190   -1.8291   -2.1104 C   0  0  0  0  0  0  0  0  0  0  0  0
    5.6910   -0.7717    0.9436 O   0  0  0  0  0  0  0  0  0  0  0  0
    5.3427   -1.3483    2.1763 C   0  0  0  0  0  0  0  0  0  0  0  0
    4.4830   -2.4339    1.9520 O   0  0  0  0  0  0  0  0  0  0  0  0
    3.8290    1.1499   -5.1961 H   0  0  0  0  0  0  0  0  0  0  0  0
    3.8940    0.9292   -3.4477 H   0  0  0  0  0  0  0  0  0  0  0  0
    2.3848    0.6432   -4.3218 H   0  0  0  0  0  0  0  0  0  0  0  0
    3.4178   -1.2520   -5.5228 H   0  0  0  0  0  0  0  0  0  0  0  0
    4.9248   -1.0356   -4.6862 H   0  0  0  0  0  0  0  0  0  0  0  0
    1.8139   -3.1987   -4.3331 H   0  0  0  0  0  0  0  0  0  0  0  0
    2.6700   -3.9386    0.3909 H   0  0  0  0  0  0  0  0  0  0  0  0
    5.3030   -0.2904   -1.8089 H   0  0  0  0  0  0  0  0  0  0  0  0
    6.2283   -1.6682    2.7295 H   0  0  0  0  0  0  0  0  0  0  0  0
    4.7977   -0.6002    2.7561 H   0  0  0  0  0  0  0  0  0  0  0  0
  1  2  1  0
  1 15  1  0
  1 16  1  0
  1 17  1  0
  2  3  1  0
  2 18  1  0
  2 19  1  0
  3 11  1  0
  3  4  2  0
  4  5  1  0
  4 20  1  0
  5  6  1  0
  6 11  2  0
  6  7  1  0
  7  8  2  0
  7 21  1  0
  8 14  1  0
  8  9  1  0
  9 10  2  0
  9 12  1  0
 10 11  1  0
 10 22  1  0
 12 13  1  0
 13 14  1  0
 13 23  1  0
 13 24  1  0
M  END
>  <i_m_ct_stereo_status>  (166) 
1

>  <s_m_source_file>  (166) 
/var/tmp/pbs.5076255.sched01/tmp7rtc4ovb/41r77q45k8.sdf

>  <i_m_source_file_index>  (166) 
35

>  <i_lp_mmshare_version>  (166) 
48012

>  <i_f3d_flags>  (166) 
0

>  <s_epik_input>  (166) 
W0NIM11bQ0gyXWMoW2NIXW8xKWMoYzEyKVtjSF1jM2MoW2NIXTIpT1tDSDJdTzM=

>  <s_epik_cmdline>  (166) 
J2VwaWtfcHl0aG9uJywgJy1waHQnLCAnMi4wJywgJy1waCcsICc3LjAnLCAnLXRuJywgJzgnLCAnLW1hJywgJzIwMCcsICctaW1hZScsICc8aW5maWxlLm1hZT4nLCAnLW9tYWUnLCAnPG91dGZpbGUubWFlPic=

>  <r_lp_tautomer_probability>  (166) 
1

>  <r_epik_Ionization_Penalty>  (166) 
0

>  <r_epik_Ionization_Penalty_Charging>  (166) 
0

>  <r_epik_Ionization_Penalty_Neutral>  (166) 
0

>  <r_epik_State_Penalty>  (166) 
-0

>  <r_epik_Charging_Adjusted_Penalty>  (166) 
0

>  <i_epik_Tot_Q>  (166) 
0

>  <i_epik_Tot_abs_Q>  (166) 
0

>  <s_epik_Chemistry_Notes>  (166) 
This compound contains an acetal/aminal-like group ( X-CH(R)-Y where X, Y are N, S, or O) that may be acid/base labile, releasing an aldehyde.

>  <s_lp_Force_Field>  (166) 
OPLS3e

>  <r_lp_Energy>  (166) 
19.4945

>  <b_lp_Chiralities_Consistent>  (166) 
1

>  <s_lp_Variant>  (166) 
47:0-1

>  <s_i_glide_gridfile>  (166) 
pfpi4k_grid

>  <i_i_glide_lignum>  (166) 
35

>  <i_i_glide_rotatable_bonds>  (166) 
1

>  <r_i_docking_score>  (166) 
-3.66088

>  <r_i_glide_ligand_efficiency>  (166) 
-0.261491

>  <r_i_glide_ligand_efficiency_sa>  (166) 
-0.630231

>  <r_i_glide_ligand_efficiency_ln>  (166) 
-1.006

>  <r_i_glide_gscore>  (166) 
-3.66088

>  <r_i_glide_lipo>  (166) 
-0.432289

>  <r_i_glide_hbond>  (166) 
0

>  <r_i_glide_metal>  (166) 
-0

>  <r_i_glide_rewards>  (166) 
-2.26862

>  <r_i_glide_evdw>  (166) 
-21.6407

>  <r_i_glide_ecoul>  (166) 
0.813779

>  <r_i_glide_erotb>  (166) 
0

>  <r_i_glide_esite>  (166) 
0

>  <r_i_glide_emodel>  (166) 
-25.1719

>  <r_i_glide_energy>  (166) 
-20.827

>  <r_i_glide_einternal>  (166) 
0.0648938

>  <r_i_glide_intrahb_reward>  (166) 
-0

>  <i_i_glide_confnum>  (166) 
2

>  <i_i_glide_posenum>  (166) 
9

>  <r_i_glide_eff_state_penalty>  (166) 
0

>  <ligand_id>  (166) 
47

>  <original_smiles>  (166) 
CCc1coc2cc3c(cc12)OCO3

>  <smiles>  (166) 
[H]c1oc2c([H])c3c(c([H])c2c1C([H])([H])C([H])([H])[H])OC([H])([H])O3

$$$$
49:0:0
     RDKit          3D

 46 49  0  0  1  0  0  0  0  0999 V2000
    3.0854   -1.7956    0.0947 C   0  0  0  0  0  0  0  0  0  0  0  0
    3.8289   -2.8023   -0.8032 C   0  0  1  0  0  0  0  0  0  0  0  0
    2.7991   -3.2287   -1.8617 C   0  0  0  0  0  0  0  0  0  0  0  0
    2.6825   -2.7250   -3.1016 C   0  0  0  0  0  0  0  0  0  0  0  0
    3.5358   -1.5968   -3.5292 C   0  0  0  0  0  0  0  0  0  0  0  0
    3.4934   -1.0750   -4.6375 O   0  0  0  0  0  0  0  0  0  0  0  0
    4.5207   -1.0125   -2.5242 C   0  0  0  0  0  0  0  0  0  0  0  0
    4.9580   -2.0530   -1.5116 C   0  0  0  0  0  0  0  0  0  0  0  0
    6.2407   -2.3714   -1.3494 C   0  0  0  0  0  0  0  0  0  0  0  0
    6.7831   -3.3734   -0.3732 C   0  0  0  0  0  0  0  0  0  0  0  0
    5.7382   -3.9674    0.5812 C   0  0  2  0  0  0  0  0  0  0  0  0
    4.3206   -4.0536   -0.0056 C   0  0  1  0  0  0  0  0  0  0  0  0
    3.3555   -4.6389    1.0640 C   0  0  0  0  0  0  0  0  0  0  0  0
    3.4295   -3.9469    2.4474 C   0  0  0  0  0  0  0  0  0  0  0  0
    4.8463   -3.9098    3.0480 C   0  0  2  0  0  0  0  0  0  0  0  0
    5.2433   -5.2989    3.6098 C   0  0  0  0  0  0  0  0  0  0  0  0
    4.9397   -2.8435    4.1586 C   0  0  2  0  0  0  0  0  0  0  0  0
    3.9018   -2.8340    4.9986 F   0  0  0  0  0  0  0  0  0  0  0  0
    5.1423   -1.5035    3.4312 C   0  0  0  0  0  0  0  0  0  0  0  0
    5.9187   -1.8466    2.1468 C   0  0  0  0  0  0  0  0  0  0  0  0
    5.8429   -3.3814    1.9944 C   0  0  2  0  0  0  0  0  0  0  0  0
    2.7933   -0.9309   -0.4806 H   0  0  0  0  0  0  0  0  0  0  0  0
    3.6562   -1.3572    0.9153 H   0  0  0  0  0  0  0  0  0  0  0  0
    2.1944   -2.2211    0.5075 H   0  0  0  0  0  0  0  0  0  0  0  0
    2.1768   -4.0683   -1.5985 H   0  0  0  0  0  0  0  0  0  0  0  0
    1.9663   -3.1013   -3.8176 H   0  0  0  0  0  0  0  0  0  0  0  0
    5.3910   -0.6663   -3.0776 H   0  0  0  0  0  0  0  0  0  0  0  0
    4.0977   -0.1481   -2.0281 H   0  0  0  0  0  0  0  0  0  0  0  0
    6.9953   -1.8970   -1.9602 H   0  0  0  0  0  0  0  0  0  0  0  0
    7.1844   -4.1614   -1.0058 H   0  0  0  0  0  0  0  0  0  0  0  0
    7.6455   -2.9677    0.1589 H   0  0  0  0  0  0  0  0  0  0  0  0
    6.0413   -5.0041    0.7145 H   0  0  0  0  0  0  0  0  0  0  0  0
    4.3952   -4.8244   -0.7718 H   0  0  0  0  0  0  0  0  0  0  0  0
    2.3262   -4.6110    0.7088 H   0  0  0  0  0  0  0  0  0  0  0  0
    3.5942   -5.6925    1.2012 H   0  0  0  0  0  0  0  0  0  0  0  0
    3.0381   -2.9354    2.3978 H   0  0  0  0  0  0  0  0  0  0  0  0
    2.7597   -4.4597    3.1385 H   0  0  0  0  0  0  0  0  0  0  0  0
    6.2330   -5.2914    4.0627 H   0  0  0  0  0  0  0  0  0  0  0  0
    5.2577   -6.0641    2.8328 H   0  0  0  0  0  0  0  0  0  0  0  0
    4.5418   -5.6310    4.3810 H   0  0  0  0  0  0  0  0  0  0  0  0
    5.8127   -3.0384    4.7826 H   0  0  0  0  0  0  0  0  0  0  0  0
    4.1713   -1.0736    3.1689 H   0  0  0  0  0  0  0  0  0  0  0  0
    5.6599   -0.7750    4.0631 H   0  0  0  0  0  0  0  0  0  0  0  0
    5.5964   -1.2883    1.2804 H   0  0  0  0  0  0  0  0  0  0  0  0
    6.9452   -1.4988    2.2396 H   0  0  0  0  0  0  0  0  0  0  0  0
    6.8005   -3.7736    2.3066 H   0  0  0  0  0  0  0  0  0  0  0  0
  2  1  1  1
  1 22  1  0
  1 23  1  0
  1 24  1  0
  2  8  1  0
  2 12  1  0
  2  3  1  0
  3  4  2  0
  3 25  1  0
  4  5  1  0
  4 26  1  0
  5  6  2  0
  5  7  1  0
  7  8  1  0
  7 27  1  0
  7 28  1  0
  8  9  2  0
  9 10  1  0
  9 29  1  0
 10 11  1  0
 10 30  1  0
 10 31  1  0
 11 21  1  0
 11 12  1  0
 11 32  1  1
 12 13  1  0
 12 33  1  6
 13 14  1  0
 13 34  1  0
 13 35  1  0
 14 15  1  0
 14 36  1  0
 14 37  1  0
 15 21  1  0
 15 16  1  1
 15 17  1  0
 16 38  1  0
 16 39  1  0
 16 40  1  0
 17 18  1  0
 17 19  1  0
 17 41  1  1
 19 20  1  0
 19 42  1  0
 19 43  1  0
 20 21  1  0
 20 44  1  0
 20 45  1  0
 21 46  1  1
M  END
>  <i_m_ct_stereo_status>  (167) 
1

>  <s_m_source_file>  (167) 
/var/tmp/pbs.5076255.sched01/tmp7rtc4ovb/41r77q45k8.sdf

>  <i_m_source_file_index>  (167) 
37

>  <i_lp_mmshare_version>  (167) 
48012

>  <i_f3d_flags>  (167) 
0

>  <s_epik_input>  (167) 
W0NIXTE9W0NIXUMoPU8pW0NIMl1DKFtDQEBdMTJbQ0gzXSk9W0NIXVtDSDJdW0NAQEhdM1tDQEhdMltDSDJdW0NIMl1bQ0BAXTQoW0NIM10pW0NAQEhdM1tDSDJdW0NIMl1bQ0BIXTRG

>  <s_epik_cmdline>  (167) 
J2VwaWtfcHl0aG9uJywgJy1waHQnLCAnMi4wJywgJy1waCcsICc3LjAnLCAnLXRuJywgJzgnLCAnLW1hJywgJzIwMCcsICctaW1hZScsICc8aW5maWxlLm1hZT4nLCAnLW9tYWUnLCAnPG91dGZpbGUubWFlPic=

>  <r_lp_tautomer_probability>  (167) 
1

>  <r_epik_Ionization_Penalty>  (167) 
0

>  <r_epik_Ionization_Penalty_Charging>  (167) 
0

>  <r_epik_Ionization_Penalty_Neutral>  (167) 
0

>  <r_epik_State_Penalty>  (167) 
-0

>  <r_epik_Charging_Adjusted_Penalty>  (167) 
0

>  <i_epik_Tot_Q>  (167) 
0

>  <i_epik_Tot_abs_Q>  (167) 
0

>  <s_lp_Force_Field>  (167) 
OPLS3e

>  <r_lp_Energy>  (167) 
53.249

>  <b_lp_Chiralities_Consistent>  (167) 
1

>  <s_lp_Variant>  (167) 
49:0-1

>  <s_i_glide_gridfile>  (167) 
pfpi4k_grid

>  <i_i_glide_lignum>  (167) 
37

>  <i_i_glide_rotatable_bonds>  (167) 
0

>  <r_i_docking_score>  (167) 
-3.64483

>  <r_i_glide_ligand_efficiency>  (167) 
-0.173563

>  <r_i_glide_ligand_efficiency_sa>  (167) 
-0.478848

>  <r_i_glide_ligand_efficiency_ln>  (167) 
-0.901176

>  <r_i_glide_gscore>  (167) 
-3.64483

>  <r_i_glide_lipo>  (167) 
-0.637667

>  <r_i_glide_hbond>  (167) 
-0.242916

>  <r_i_glide_metal>  (167) 
-0

>  <r_i_glide_rewards>  (167) 
-1.7191

>  <r_i_glide_evdw>  (167) 
-17.6984

>  <r_i_glide_ecoul>  (167) 
-1.06814

>  <r_i_glide_erotb>  (167) 
0

>  <r_i_glide_esite>  (167) 
0

>  <r_i_glide_emodel>  (167) 
-22.6282

>  <r_i_glide_energy>  (167) 
-18.7665

>  <r_i_glide_einternal>  (167) 
0

>  <r_i_glide_intrahb_reward>  (167) 
-0

>  <i_i_glide_confnum>  (167) 
2

>  <i_i_glide_posenum>  (167) 
7

>  <r_i_glide_eff_state_penalty>  (167) 
0

>  <ligand_id>  (167) 
49

>  <original_smiles>  (167) 
CC12C=CC(=O)CC1=CCC1C2CCC2(C)C(F)CCC12

>  <smiles>  (167) 
[H]C1=C([H])C2(C([H])([H])[H])C(=C([H])C([H])([H])C3([H])C2([H])C([H])([H])C([H])([H])C2(C([H])([H])[H])C([H])(F)C([H])([H])C([H])([H])C32[H])C([H])([H])C1=O

$$$$
49:0:1
     RDKit          3D

 46 49  0  0  1  0  0  0  0  0999 V2000
    4.7469   -4.2660    2.4210 C   0  0  0  0  0  0  0  0  0  0  0  0
    3.6009   -3.2764    2.7331 C   0  0  1  0  0  0  0  0  0  0  0  0
    2.5338   -4.1112    3.4516 C   0  0  0  0  0  0  0  0  0  0  0  0
    2.4153   -4.2505    4.7875 C   0  0  0  0  0  0  0  0  0  0  0  0
    3.3619   -3.6029    5.7054 C   0  0  0  0  0  0  0  0  0  0  0  0
    3.3104   -3.7530    6.9253 O   0  0  0  0  0  0  0  0  0  0  0  0
    4.4818   -2.7435    5.1191 C   0  0  0  0  0  0  0  0  0  0  0  0
    4.1026   -2.2208    3.7356 C   0  0  0  0  0  0  0  0  0  0  0  0
    4.1298   -0.9003    3.4781 C   0  0  0  0  0  0  0  0  0  0  0  0
    3.7219   -0.2440    2.1785 C   0  0  0  0  0  0  0  0  0  0  0  0
    3.5326   -1.2289    1.0140 C   0  0  2  0  0  0  0  0  0  0  0  0
    2.9668   -2.6030    1.4573 C   0  0  1  0  0  0  0  0  0  0  0  0
    2.7660   -3.5045    0.2159 C   0  0  0  0  0  0  0  0  0  0  0  0
    4.0032   -3.6017   -0.6952 C   0  0  0  0  0  0  0  0  0  0  0  0
    4.5378   -2.2343   -1.1811 C   0  0  2  0  0  0  0  0  0  0  0  0
    3.6394   -1.6590   -2.3007 C   0  0  0  0  0  0  0  0  0  0  0  0
    5.9841   -2.3756   -1.6782 C   0  0  2  0  0  0  0  0  0  0  0  0
    6.1947   -3.4463   -2.4443 F   0  0  0  0  0  0  0  0  0  0  0  0
    6.8702   -2.3492   -0.4279 C   0  0  0  0  0  0  0  0  0  0  0  0
    6.1370   -1.4207    0.5514 C   0  0  0  0  0  0  0  0  0  0  0  0
    4.7077   -1.2455   -0.0017 C   0  0  2  0  0  0  0  0  0  0  0  0
    5.1495   -4.7173    3.3297 H   0  0  0  0  0  0  0  0  0  0  0  0
    5.5850   -3.8016    1.9139 H   0  0  0  0  0  0  0  0  0  0  0  0
    4.4007   -5.0988    1.8095 H   0  0  0  0  0  0  0  0  0  0  0  0
    1.8246   -4.6242    2.8161 H   0  0  0  0  0  0  0  0  0  0  0  0
    1.6386   -4.8647    5.2196 H   0  0  0  0  0  0  0  0  0  0  0  0
    4.6761   -1.9087    5.7923 H   0  0  0  0  0  0  0  0  0  0  0  0
    5.3998   -3.3258    5.0625 H   0  0  0  0  0  0  0  0  0  0  0  0
    4.4400   -0.2151    4.2564 H   0  0  0  0  0  0  0  0  0  0  0  0
    2.7856    0.2848    2.3662 H   0  0  0  0  0  0  0  0  0  0  0  0
    4.4550    0.5184    1.9171 H   0  0  0  0  0  0  0  0  0  0  0  0
    2.7230   -0.7849    0.4326 H   0  0  0  0  0  0  0  0  0  0  0  0
    1.9531   -2.3551    1.7828 H   0  0  0  0  0  0  0  0  0  0  0  0
    2.4423   -4.5022    0.5082 H   0  0  0  0  0  0  0  0  0  0  0  0
    1.9475   -3.0948   -0.3775 H   0  0  0  0  0  0  0  0  0  0  0  0
    4.7904   -4.1494   -0.1881 H   0  0  0  0  0  0  0  0  0  0  0  0
    3.7581   -4.2202   -1.5584 H   0  0  0  0  0  0  0  0  0  0  0  0
    4.0124   -0.7043   -2.6716 H   0  0  0  0  0  0  0  0  0  0  0  0
    2.6215   -1.4856   -1.9550 H   0  0  0  0  0  0  0  0  0  0  0  0
    3.5829   -2.3366   -3.1525 H   0  0  0  0  0  0  0  0  0  0  0  0
    6.2131   -1.5147   -2.3018 H   0  0  0  0  0  0  0  0  0  0  0  0
    6.9463   -3.3506   -0.0022 H   0  0  0  0  0  0  0  0  0  0  0  0
    7.8881   -2.0177   -0.6385 H   0  0  0  0  0  0  0  0  0  0  0  0
    6.1594   -1.8038    1.5677 H   0  0  0  0  0  0  0  0  0  0  0  0
    6.6274   -0.4481    0.5916 H   0  0  0  0  0  0  0  0  0  0  0  0
    4.7182   -0.2515   -0.4485 H   0  0  0  0  0  0  0  0  0  0  0  0
  2  1  1  6
  1 22  1  0
  1 23  1  0
  1 24  1  0
  2  8  1  0
  2 12  1  0
  2  3  1  0
  3  4  2  0
  3 25  1  0
  4  5  1  0
  4 26  1  0
  5  6  2  0
  5  7  1  0
  7  8  1  0
  7 27  1  0
  7 28  1  0
  8  9  2  0
  9 10  1  0
  9 29  1  0
 10 11  1  0
 10 30  1  0
 10 31  1  0
 11 21  1  0
 11 12  1  0
 11 32  1  6
 12 13  1  0
 12 33  1  1
 13 14  1  0
 13 34  1  0
 13 35  1  0
 14 15  1  0
 14 36  1  0
 14 37  1  0
 15 21  1  0
 15 16  1  6
 15 17  1  0
 16 38  1  0
 16 39  1  0
 16 40  1  0
 17 18  1  0
 17 19  1  0
 17 41  1  6
 19 20  1  0
 19 42  1  0
 19 43  1  0
 20 21  1  0
 20 44  1  0
 20 45  1  0
 21 46  1  6
M  END
>  <i_m_ct_stereo_status>  (168) 
1

>  <s_m_source_file>  (168) 
/var/tmp/pbs.5076255.sched01/tmp7rtc4ovb/41r77q45k8.sdf

>  <i_m_source_file_index>  (168) 
37

>  <i_lp_mmshare_version>  (168) 
48012

>  <i_f3d_flags>  (168) 
0

>  <s_epik_input>  (168) 
W0NIXTE9W0NIXUMoPU8pW0NIMl1DKFtDQEBdMTJbQ0gzXSk9W0NIXVtDSDJdW0NAQEhdM1tDQEhdMltDSDJdW0NIMl1bQ0BAXTQoW0NIM10pW0NAQEhdM1tDSDJdW0NIMl1bQ0BIXTRG

>  <s_epik_cmdline>  (168) 
J2VwaWtfcHl0aG9uJywgJy1waHQnLCAnMi4wJywgJy1waCcsICc3LjAnLCAnLXRuJywgJzgnLCAnLW1hJywgJzIwMCcsICctaW1hZScsICc8aW5maWxlLm1hZT4nLCAnLW9tYWUnLCAnPG91dGZpbGUubWFlPic=

>  <r_lp_tautomer_probability>  (168) 
1

>  <r_epik_Ionization_Penalty>  (168) 
0

>  <r_epik_Ionization_Penalty_Charging>  (168) 
0

>  <r_epik_Ionization_Penalty_Neutral>  (168) 
0

>  <r_epik_State_Penalty>  (168) 
-0

>  <r_epik_Charging_Adjusted_Penalty>  (168) 
0

>  <i_epik_Tot_Q>  (168) 
0

>  <i_epik_Tot_abs_Q>  (168) 
0

>  <s_lp_Force_Field>  (168) 
OPLS3e

>  <r_lp_Energy>  (168) 
53.249

>  <b_lp_Chiralities_Consistent>  (168) 
1

>  <s_lp_Variant>  (168) 
49:0-1

>  <s_i_glide_gridfile>  (168) 
pfpi4k_grid

>  <i_i_glide_lignum>  (168) 
37

>  <i_i_glide_rotatable_bonds>  (168) 
0

>  <r_i_docking_score>  (168) 
-3.06053

>  <r_i_glide_ligand_efficiency>  (168) 
-0.14574

>  <r_i_glide_ligand_efficiency_sa>  (168) 
-0.402084

>  <r_i_glide_ligand_efficiency_ln>  (168) 
-0.75671

>  <r_i_glide_gscore>  (168) 
-3.06053

>  <r_i_glide_lipo>  (168) 
-0.190116

>  <r_i_glide_hbond>  (168) 
0

>  <r_i_glide_metal>  (168) 
-0

>  <r_i_glide_rewards>  (168) 
-1.79477

>  <r_i_glide_evdw>  (168) 
-21.6688

>  <r_i_glide_ecoul>  (168) 
0.0519667

>  <r_i_glide_erotb>  (168) 
0

>  <r_i_glide_esite>  (168) 
0

>  <r_i_glide_emodel>  (168) 
-25.2274

>  <r_i_glide_energy>  (168) 
-21.6169

>  <r_i_glide_einternal>  (168) 
0

>  <r_i_glide_intrahb_reward>  (168) 
-0

>  <i_i_glide_confnum>  (168) 
1

>  <i_i_glide_posenum>  (168) 
9

>  <r_i_glide_eff_state_penalty>  (168) 
0

>  <ligand_id>  (168) 
49

>  <original_smiles>  (168) 
CC12C=CC(=O)CC1=CCC1C2CCC2(C)C(F)CCC12

>  <smiles>  (168) 
[H]C1=C([H])C2(C([H])([H])[H])C(=C([H])C([H])([H])C3([H])C2([H])C([H])([H])C([H])([H])C2(C([H])([H])[H])C([H])(F)C([H])([H])C([H])([H])C32[H])C([H])([H])C1=O

$$$$
49:0:2
     RDKit          3D

 46 49  0  0  1  0  0  0  0  0999 V2000
    3.8732   -6.0952    0.4938 C   0  0  0  0  0  0  0  0  0  0  0  0
    2.6833   -5.1862    0.8719 C   0  0  1  0  0  0  0  0  0  0  0  0
    1.4516   -5.8508    0.2444 C   0  0  0  0  0  0  0  0  0  0  0  0
    0.6216   -6.7173    0.8651 C   0  0  0  0  0  0  0  0  0  0  0  0
    0.8724   -7.1558    2.2465 C   0  0  0  0  0  0  0  0  0  0  0  0
    0.1522   -7.9718    2.8139 O   0  0  0  0  0  0  0  0  0  0  0  0
    2.0804   -6.5798    2.9813 C   0  0  0  0  0  0  0  0  0  0  0  0
    2.4835   -5.2273    2.4023 C   0  0  0  0  0  0  0  0  0  0  0  0
    2.5534   -4.1478    3.1949 C   0  0  0  0  0  0  0  0  0  0  0  0
    2.8813   -2.7420    2.7445 C   0  0  0  0  0  0  0  0  0  0  0  0
    3.4273   -2.6479    1.3094 C   0  0  2  0  0  0  0  0  0  0  0  0
    2.8252   -3.7016    0.3559 C   0  0  1  0  0  0  0  0  0  0  0  0
    3.3704   -3.4800   -1.0648 C   0  0  0  0  0  0  0  0  0  0  0  0
    4.9064   -3.4414   -1.1402 C   0  0  0  0  0  0  0  0  0  0  0  0
    5.5293   -2.3710   -0.2189 C   0  0  2  0  0  0  0  0  0  0  0  0
    5.3360   -0.9789   -0.8322 C   0  0  0  0  0  0  0  0  0  0  0  0
    7.0202   -2.6582    0.0162 C   0  0  2  0  0  0  0  0  0  0  0  0
    7.6855   -2.9947   -1.0911 F   0  0  0  0  0  0  0  0  0  0  0  0
    7.0517   -3.7322    1.1049 C   0  0  0  0  0  0  0  0  0  0  0  0
    5.8439   -3.4235    2.0059 C   0  0  0  0  0  0  0  0  0  0  0  0
    4.9613   -2.4440    1.2199 C   0  0  2  0  0  0  0  0  0  0  0  0
    3.7315   -7.1170    0.8575 H   0  0  0  0  0  0  0  0  0  0  0  0
    4.8187   -5.7432    0.8927 H   0  0  0  0  0  0  0  0  0  0  0  0
    3.9782   -6.1766   -0.5867 H   0  0  0  0  0  0  0  0  0  0  0  0
    1.2612   -5.5655   -0.7842 H   0  0  0  0  0  0  0  0  0  0  0  0
   -0.2272   -7.1620    0.3590 H   0  0  0  0  0  0  0  0  0  0  0  0
    1.8143   -6.4798    4.0331 H   0  0  0  0  0  0  0  0  0  0  0  0
    2.9062   -7.2865    2.9267 H   0  0  0  0  0  0  0  0  0  0  0  0
    2.3357   -4.2516    4.2527 H   0  0  0  0  0  0  0  0  0  0  0  0
    1.9624   -2.1631    2.8201 H   0  0  0  0  0  0  0  0  0  0  0  0
    3.5833   -2.3088    3.4515 H   0  0  0  0  0  0  0  0  0  0  0  0
    3.0357   -1.6973    0.9411 H   0  0  0  0  0  0  0  0  0  0  0  0
    1.8142   -3.3533    0.2674 H   0  0  0  0  0  0  0  0  0  0  0  0
    2.9867   -4.2498   -1.7220 H   0  0  0  0  0  0  0  0  0  0  0  0
    2.9686   -2.5434   -1.4625 H   0  0  0  0  0  0  0  0  0  0  0  0
    5.3164   -4.4197   -0.9055 H   0  0  0  0  0  0  0  0  0  0  0  0
    5.2040   -3.2536   -2.1732 H   0  0  0  0  0  0  0  0  0  0  0  0
    5.7963   -0.2219   -0.1966 H   0  0  0  0  0  0  0  0  0  0  0  0
    4.2847   -0.7072   -0.9329 H   0  0  0  0  0  0  0  0  0  0  0  0
    5.7931   -0.9089   -1.8198 H   0  0  0  0  0  0  0  0  0  0  0  0
    7.5142   -1.7664    0.3993 H   0  0  0  0  0  0  0  0  0  0  0  0
    6.9483   -4.7230    0.6679 H   0  0  0  0  0  0  0  0  0  0  0  0
    7.9885   -3.7242    1.6607 H   0  0  0  0  0  0  0  0  0  0  0  0
    5.3213   -4.3223    2.3259 H   0  0  0  0  0  0  0  0  0  0  0  0
    6.1667   -2.9185    2.9143 H   0  0  0  0  0  0  0  0  0  0  0  0
    5.1530   -1.4717    1.6768 H   0  0  0  0  0  0  0  0  0  0  0  0
  2  1  1  1
  1 22  1  0
  1 23  1  0
  1 24  1  0
  2  8  1  0
  2 12  1  0
  2  3  1  0
  3  4  2  0
  3 25  1  0
  4  5  1  0
  4 26  1  0
  5  6  2  0
  5  7  1  0
  7  8  1  0
  7 27  1  0
  7 28  1  0
  8  9  2  0
  9 10  1  0
  9 29  1  0
 10 11  1  0
 10 30  1  0
 10 31  1  0
 11 21  1  0
 11 12  1  0
 11 32  1  6
 12 13  1  0
 12 33  1  6
 13 14  1  0
 13 34  1  0
 13 35  1  0
 14 15  1  0
 14 36  1  0
 14 37  1  0
 15 21  1  0
 15 16  1  6
 15 17  1  0
 16 38  1  0
 16 39  1  0
 16 40  1  0
 17 18  1  0
 17 19  1  0
 17 41  1  1
 19 20  1  0
 19 42  1  0
 19 43  1  0
 20 21  1  0
 20 44  1  0
 20 45  1  0
 21 46  1  1
M  END
>  <i_m_ct_stereo_status>  (169) 
1

>  <s_m_source_file>  (169) 
/var/tmp/pbs.5076255.sched01/tmp7rtc4ovb/41r77q45k8.sdf

>  <i_m_source_file_index>  (169) 
37

>  <i_lp_mmshare_version>  (169) 
48012

>  <i_f3d_flags>  (169) 
0

>  <s_epik_input>  (169) 
W0NIXTE9W0NIXUMoPU8pW0NIMl1DKFtDQEBdMTJbQ0gzXSk9W0NIXVtDSDJdW0NAQEhdM1tDQEhdMltDSDJdW0NIMl1bQ0BAXTQoW0NIM10pW0NAQEhdM1tDSDJdW0NIMl1bQ0BIXTRG

>  <s_epik_cmdline>  (169) 
J2VwaWtfcHl0aG9uJywgJy1waHQnLCAnMi4wJywgJy1waCcsICc3LjAnLCAnLXRuJywgJzgnLCAnLW1hJywgJzIwMCcsICctaW1hZScsICc8aW5maWxlLm1hZT4nLCAnLW9tYWUnLCAnPG91dGZpbGUubWFlPic=

>  <r_lp_tautomer_probability>  (169) 
1

>  <r_epik_Ionization_Penalty>  (169) 
0

>  <r_epik_Ionization_Penalty_Charging>  (169) 
0

>  <r_epik_Ionization_Penalty_Neutral>  (169) 
0

>  <r_epik_State_Penalty>  (169) 
-0

>  <r_epik_Charging_Adjusted_Penalty>  (169) 
0

>  <i_epik_Tot_Q>  (169) 
0

>  <i_epik_Tot_abs_Q>  (169) 
0

>  <s_lp_Force_Field>  (169) 
OPLS3e

>  <r_lp_Energy>  (169) 
53.249

>  <b_lp_Chiralities_Consistent>  (169) 
1

>  <s_lp_Variant>  (169) 
49:0-1

>  <s_i_glide_gridfile>  (169) 
pfpi4k_grid

>  <i_i_glide_lignum>  (169) 
37

>  <i_i_glide_rotatable_bonds>  (169) 
0

>  <r_i_docking_score>  (169) 
-2.96875

>  <r_i_glide_ligand_efficiency>  (169) 
-0.141369

>  <r_i_glide_ligand_efficiency_sa>  (169) 
-0.390027

>  <r_i_glide_ligand_efficiency_ln>  (169) 
-0.734018

>  <r_i_glide_gscore>  (169) 
-2.96875

>  <r_i_glide_lipo>  (169) 
-0.379378

>  <r_i_glide_hbond>  (169) 
0

>  <r_i_glide_metal>  (169) 
-0

>  <r_i_glide_rewards>  (169) 
-1.44273

>  <r_i_glide_evdw>  (169) 
-20.9178

>  <r_i_glide_ecoul>  (169) 
-0.238633

>  <r_i_glide_erotb>  (169) 
0

>  <r_i_glide_esite>  (169) 
-0.0649611

>  <r_i_glide_emodel>  (169) 
-24.5888

>  <r_i_glide_energy>  (169) 
-21.1564

>  <r_i_glide_einternal>  (169) 
0

>  <r_i_glide_intrahb_reward>  (169) 
-0

>  <i_i_glide_confnum>  (169) 
2

>  <i_i_glide_posenum>  (169) 
21

>  <r_i_glide_eff_state_penalty>  (169) 
0

>  <ligand_id>  (169) 
49

>  <original_smiles>  (169) 
CC12C=CC(=O)CC1=CCC1C2CCC2(C)C(F)CCC12

>  <smiles>  (169) 
[H]C1=C([H])C2(C([H])([H])[H])C(=C([H])C([H])([H])C3([H])C2([H])C([H])([H])C([H])([H])C2(C([H])([H])[H])C([H])(F)C([H])([H])C([H])([H])C32[H])C([H])([H])C1=O

$$$$
51:0:0
     RDKit          3D

 23 23  0  0  1  0  0  0  0  0999 V2000
    4.1903   -0.6290   -2.6356 C   0  0  0  0  0  0  0  0  0  0  0  0
    3.4367   -1.4355   -1.6346 N   0  0  2  0  0  0  0  0  0  0  0  0
    4.0062   -1.3556   -0.2787 C   0  0  0  0  0  0  0  0  0  0  0  0
    3.3332   -2.4941    0.5053 C   0  0  1  0  0  0  0  0  0  0  0  0
    2.2299   -1.9791    1.2369 O   0  0  0  0  0  0  0  0  0  0  0  0
    2.8859   -3.4965   -0.5796 C   0  0  0  0  0  0  0  0  0  0  0  0
    3.3306   -2.8831   -1.9279 C   0  0  1  0  0  0  0  0  0  0  0  0
    2.3657   -3.1975   -3.0900 C   0  0  0  0  0  0  0  0  0  0  0  0
    2.9992   -2.9007   -4.3156 O   0  0  0  0  0  0  0  0  0  0  0  0
    5.1870   -1.0353   -2.7938 H   0  0  0  0  0  0  0  0  0  0  0  0
    4.3172    0.4020   -2.3175 H   0  0  0  0  0  0  0  0  0  0  0  0
    3.7014   -0.5810   -3.6105 H   0  0  0  0  0  0  0  0  0  0  0  0
    5.0794   -1.5663   -0.3325 H   0  0  0  0  0  0  0  0  0  0  0  0
    3.8884   -0.3746    0.1808 H   0  0  0  0  0  0  0  0  0  0  0  0
    4.0368   -2.9528    1.2052 H   0  0  0  0  0  0  0  0  0  0  0  0
    1.6688   -1.4883    0.6339 H   0  0  0  0  0  0  0  0  0  0  0  0
    3.3223   -4.4903   -0.4387 H   0  0  0  0  0  0  0  0  0  0  0  0
    1.8050   -3.6269   -0.5700 H   0  0  0  0  0  0  0  0  0  0  0  0
    4.3246   -3.2885   -2.1445 H   0  0  0  0  0  0  0  0  0  0  0  0
    2.1067   -4.2463   -3.1186 H   0  0  0  0  0  0  0  0  0  0  0  0
    1.4258   -2.6620   -2.9938 H   0  0  0  0  0  0  0  0  0  0  0  0
    2.3325   -2.7034   -4.9584 H   0  0  0  0  0  0  0  0  0  0  0  0
    2.4818   -1.1083   -1.5407 H   0  0  0  0  0  0  0  0  0  0  0  0
  1  2  1  0
  1 10  1  0
  1 11  1  0
  1 12  1  0
  2  7  1  0
  2  3  1  0
  2 23  1  1
  3  4  1  0
  3 13  1  0
  3 14  1  0
  4  5  1  0
  4  6  1  0
  4 15  1  1
  5 16  1  0
  6  7  1  0
  6 17  1  0
  6 18  1  0
  7  8  1  0
  7 19  1  6
  8  9  1  0
  8 20  1  0
  8 21  1  0
  9 22  1  0
M  CHG  1   2   1
M  END
>  <i_m_ct_stereo_status>  (170) 
1

>  <s_m_source_file>  (170) 
/var/tmp/pbs.5076255.sched01/tmp7rtc4ovb/41r77q45k8.sdf

>  <i_m_source_file_index>  (170) 
39

>  <i_lp_mmshare_version>  (170) 
48012

>  <i_f3d_flags>  (170) 
0

>  <s_epik_input>  (170) 
W0NIM11OMVtDSDJdW0NAQEhdKFtPSF0pW0NIMl1bQ0BIXTFbQ0gyXVtPSF0=

>  <s_epik_cmdline>  (170) 
J2VwaWtfcHl0aG9uJywgJy1waHQnLCAnMi4wJywgJy1waCcsICc3LjAnLCAnLXRuJywgJzgnLCAnLW1hJywgJzIwMCcsICctaW1hZScsICc8aW5maWxlLm1hZT4nLCAnLW9tYWUnLCAnPG91dGZpbGUubWFlPic=

>  <r_epik_Ionization_Penalty>  (170) 
0.0161719

>  <r_epik_Ionization_Penalty_Charging>  (170) 
0.016171

>  <r_epik_Ionization_Penalty_Neutral>  (170) 
9.14374e-07

>  <r_epik_State_Penalty>  (170) 
0.0127493

>  <r_epik_Charging_Adjusted_Penalty>  (170) 
0.0289203

>  <i_epik_Tot_Q>  (170) 
1

>  <i_epik_Tot_abs_Q>  (170) 
1

>  <s_lp_Force_Field>  (170) 
OPLS3e

>  <r_lp_Energy>  (170) 
7.79447

>  <b_lp_Chiralities_Consistent>  (170) 
1

>  <s_lp_Variant>  (170) 
51:0-1

>  <s_i_glide_gridfile>  (170) 
pfpi4k_grid

>  <i_i_glide_lignum>  (170) 
39

>  <i_i_glide_rotatable_bonds>  (170) 
3

>  <r_i_docking_score>  (170) 
-4.87848

>  <r_i_glide_ligand_efficiency>  (170) 
-0.542053

>  <r_i_glide_ligand_efficiency_sa>  (170) 
-1.12752

>  <r_i_glide_ligand_efficiency_ln>  (170) 
-1.52585

>  <r_i_glide_gscore>  (170) 
-4.87848

>  <r_i_glide_lipo>  (170) 
-0.289079

>  <r_i_glide_hbond>  (170) 
-0.773742

>  <r_i_glide_metal>  (170) 
-0

>  <r_i_glide_rewards>  (170) 
-2.25

>  <r_i_glide_evdw>  (170) 
-9.13877

>  <r_i_glide_ecoul>  (170) 
-12.0471

>  <r_i_glide_erotb>  (170) 
0.798309

>  <r_i_glide_esite>  (170) 
-0.0999556

>  <r_i_glide_emodel>  (170) 
-28.6691

>  <r_i_glide_energy>  (170) 
-21.1859

>  <r_i_glide_einternal>  (170) 
1.72842

>  <r_i_glide_intrahb_reward>  (170) 
-0

>  <i_i_glide_confnum>  (170) 
6

>  <i_i_glide_posenum>  (170) 
39

>  <r_i_glide_eff_state_penalty>  (170) 
0

>  <ligand_id>  (170) 
51

>  <original_smiles>  (170) 
CN1CC(O)CC1CO

>  <smiles>  (170) 
[H]OC([H])([H])C1([H])C([H])([H])C([H])(O[H])C([H])([H])[N+]1([H])C([H])([H])[H]

$$$$
51:0:1
     RDKit          3D

 23 23  0  0  1  0  0  0  0  0999 V2000
    4.7543   -4.2362   -1.1369 C   0  0  0  0  0  0  0  0  0  0  0  0
    4.1285   -3.3198   -2.1425 N   0  0  2  0  0  0  0  0  0  0  0  0
    5.0135   -2.2168   -2.5400 C   0  0  0  0  0  0  0  0  0  0  0  0
    4.1179   -1.2130   -3.2673 C   0  0  1  0  0  0  0  0  0  0  0  0
    4.1912   -1.3722   -4.6739 O   0  0  0  0  0  0  0  0  0  0  0  0
    2.6952   -1.5382   -2.7965 C   0  0  0  0  0  0  0  0  0  0  0  0
    2.8527   -2.6685   -1.7612 C   0  0  1  0  0  0  0  0  0  0  0  0
    1.6637   -3.6460   -1.7511 C   0  0  0  0  0  0  0  0  0  0  0  0
    1.8193   -4.5772   -0.6845 O   0  0  0  0  0  0  0  0  0  0  0  0
    4.8869   -3.7476   -0.1723 H   0  0  0  0  0  0  0  0  0  0  0  0
    5.7426   -4.5624   -1.4616 H   0  0  0  0  0  0  0  0  0  0  0  0
    4.1695   -5.1404   -0.9455 H   0  0  0  0  0  0  0  0  0  0  0  0
    5.3915   -1.7395   -1.6383 H   0  0  0  0  0  0  0  0  0  0  0  0
    5.8553   -2.5604   -3.1305 H   0  0  0  0  0  0  0  0  0  0  0  0
    4.3839   -0.1822   -3.0274 H   0  0  0  0  0  0  0  0  0  0  0  0
    3.4714   -0.8957   -5.0636 H   0  0  0  0  0  0  0  0  0  0  0  0
    2.2387   -0.6404   -2.3982 H   0  0  0  0  0  0  0  0  0  0  0  0
    2.0745   -1.8648   -3.6350 H   0  0  0  0  0  0  0  0  0  0  0  0
    2.9543   -2.2209   -0.7731 H   0  0  0  0  0  0  0  0  0  0  0  0
    0.7178   -3.1111   -1.6294 H   0  0  0  0  0  0  0  0  0  0  0  0
    1.5803   -4.1616   -2.7038 H   0  0  0  0  0  0  0  0  0  0  0  0
    2.3772   -5.2926   -0.9912 H   0  0  0  0  0  0  0  0  0  0  0  0
    3.9266   -3.8433   -2.9871 H   0  0  0  0  0  0  0  0  0  0  0  0
  1  2  1  0
  1 10  1  0
  1 11  1  0
  1 12  1  0
  2  7  1  0
  2  3  1  0
  2 23  1  6
  3  4  1  0
  3 13  1  0
  3 14  1  0
  4  5  1  0
  4  6  1  0
  4 15  1  6
  5 16  1  0
  6  7  1  0
  6 17  1  0
  6 18  1  0
  7  8  1  0
  7 19  1  1
  8  9  1  0
  8 20  1  0
  8 21  1  0
  9 22  1  0
M  CHG  1   2   1
M  END
>  <i_m_ct_stereo_status>  (171) 
1

>  <s_m_source_file>  (171) 
/var/tmp/pbs.5076255.sched01/tmp7rtc4ovb/41r77q45k8.sdf

>  <i_m_source_file_index>  (171) 
39

>  <i_lp_mmshare_version>  (171) 
48012

>  <i_f3d_flags>  (171) 
0

>  <s_epik_input>  (171) 
W0NIM11OMVtDSDJdW0NAQEhdKFtPSF0pW0NIMl1bQ0BIXTFbQ0gyXVtPSF0=

>  <s_epik_cmdline>  (171) 
J2VwaWtfcHl0aG9uJywgJy1waHQnLCAnMi4wJywgJy1waCcsICc3LjAnLCAnLXRuJywgJzgnLCAnLW1hJywgJzIwMCcsICctaW1hZScsICc8aW5maWxlLm1hZT4nLCAnLW9tYWUnLCAnPG91dGZpbGUubWFlPic=

>  <r_epik_Ionization_Penalty>  (171) 
0.0161719

>  <r_epik_Ionization_Penalty_Charging>  (171) 
0.016171

>  <r_epik_Ionization_Penalty_Neutral>  (171) 
9.14374e-07

>  <r_epik_State_Penalty>  (171) 
0.0127493

>  <r_epik_Charging_Adjusted_Penalty>  (171) 
0.0289203

>  <i_epik_Tot_Q>  (171) 
1

>  <i_epik_Tot_abs_Q>  (171) 
1

>  <s_lp_Force_Field>  (171) 
OPLS3e

>  <r_lp_Energy>  (171) 
7.79447

>  <b_lp_Chiralities_Consistent>  (171) 
1

>  <s_lp_Variant>  (171) 
51:0-1

>  <s_i_glide_gridfile>  (171) 
pfpi4k_grid

>  <i_i_glide_lignum>  (171) 
39

>  <i_i_glide_rotatable_bonds>  (171) 
3

>  <r_i_docking_score>  (171) 
-4.3871

>  <r_i_glide_ligand_efficiency>  (171) 
-0.487455

>  <r_i_glide_ligand_efficiency_sa>  (171) 
-1.01395

>  <r_i_glide_ligand_efficiency_ln>  (171) 
-1.37216

>  <r_i_glide_gscore>  (171) 
-4.3871

>  <r_i_glide_lipo>  (171) 
-0.239425

>  <r_i_glide_hbond>  (171) 
-0.562387

>  <r_i_glide_metal>  (171) 
-0

>  <r_i_glide_rewards>  (171) 
-2.25

>  <r_i_glide_evdw>  (171) 
-6.50241

>  <r_i_glide_ecoul>  (171) 
-11.862

>  <r_i_glide_erotb>  (171) 
0.798309

>  <r_i_glide_esite>  (171) 
-0.0291748

>  <r_i_glide_emodel>  (171) 
-24.924

>  <r_i_glide_energy>  (171) 
-18.3644

>  <r_i_glide_einternal>  (171) 
1.73989

>  <r_i_glide_intrahb_reward>  (171) 
-0

>  <i_i_glide_confnum>  (171) 
6

>  <i_i_glide_posenum>  (171) 
38

>  <r_i_glide_eff_state_penalty>  (171) 
0

>  <ligand_id>  (171) 
51

>  <original_smiles>  (171) 
CN1CC(O)CC1CO

>  <smiles>  (171) 
[H]OC([H])([H])C1([H])C([H])([H])C([H])(O[H])C([H])([H])[N+]1([H])C([H])([H])[H]

$$$$
51:0:2
     RDKit          3D

 23 23  0  0  1  0  0  0  0  0999 V2000
    4.3557   -0.4591    0.2061 C   0  0  0  0  0  0  0  0  0  0  0  0
    3.6366   -1.4443   -0.6351 N   0  0  2  0  0  0  0  0  0  0  0  0
    3.6543   -2.8054   -0.0722 C   0  0  0  0  0  0  0  0  0  0  0  0
    3.2009   -3.7098   -1.2184 C   0  0  1  0  0  0  0  0  0  0  0  0
    1.8070   -3.9317   -1.1203 O   0  0  0  0  0  0  0  0  0  0  0  0
    3.5055   -2.9158   -2.5012 C   0  0  0  0  0  0  0  0  0  0  0  0
    4.1409   -1.5960   -2.0191 C   0  0  1  0  0  0  0  0  0  0  0  0
    3.8062   -0.3975   -2.9261 C   0  0  0  0  0  0  0  0  0  0  0  0
    4.1866   -0.6613   -4.2621 O   0  0  0  0  0  0  0  0  0  0  0  0
    5.4288   -0.6558    0.2433 H   0  0  0  0  0  0  0  0  0  0  0  0
    3.9876   -0.4698    1.2346 H   0  0  0  0  0  0  0  0  0  0  0  0
    4.2200    0.5532   -0.1663 H   0  0  0  0  0  0  0  0  0  0  0  0
    4.6844   -3.0768    0.2061 H   0  0  0  0  0  0  0  0  0  0  0  0
    3.0287   -2.9019    0.8181 H   0  0  0  0  0  0  0  0  0  0  0  0
    3.7398   -4.6558   -1.1601 H   0  0  0  0  0  0  0  0  0  0  0  0
    1.5496   -4.3976   -1.9037 H   0  0  0  0  0  0  0  0  0  0  0  0
    4.1683   -3.4573   -3.1813 H   0  0  0  0  0  0  0  0  0  0  0  0
    2.5910   -2.7208   -3.0707 H   0  0  0  0  0  0  0  0  0  0  0  0
    5.2254   -1.7489   -1.9944 H   0  0  0  0  0  0  0  0  0  0  0  0
    2.7423   -0.1626   -2.9032 H   0  0  0  0  0  0  0  0  0  0  0  0
    4.3346    0.4935   -2.5980 H   0  0  0  0  0  0  0  0  0  0  0  0
    3.8510    0.0392   -4.8037 H   0  0  0  0  0  0  0  0  0  0  0  0
    2.6494   -1.1914   -0.7129 H   0  0  0  0  0  0  0  0  0  0  0  0
  1  2  1  0
  1 10  1  0
  1 11  1  0
  1 12  1  0
  2  7  1  0
  2  3  1  0
  2 23  1  6
  3  4  1  0
  3 13  1  0
  3 14  1  0
  4  5  1  0
  4  6  1  0
  4 15  1  6
  5 16  1  0
  6  7  1  0
  6 17  1  0
  6 18  1  0
  7  8  1  0
  7 19  1  1
  8  9  1  0
  8 20  1  0
  8 21  1  0
  9 22  1  0
M  CHG  1   2   1
M  END
>  <i_m_ct_stereo_status>  (172) 
1

>  <s_m_source_file>  (172) 
/var/tmp/pbs.5076255.sched01/tmp7rtc4ovb/41r77q45k8.sdf

>  <i_m_source_file_index>  (172) 
39

>  <i_lp_mmshare_version>  (172) 
48012

>  <i_f3d_flags>  (172) 
0

>  <s_epik_input>  (172) 
W0NIM11OMVtDSDJdW0NAQEhdKFtPSF0pW0NIMl1bQ0BIXTFbQ0gyXVtPSF0=

>  <s_epik_cmdline>  (172) 
J2VwaWtfcHl0aG9uJywgJy1waHQnLCAnMi4wJywgJy1waCcsICc3LjAnLCAnLXRuJywgJzgnLCAnLW1hJywgJzIwMCcsICctaW1hZScsICc8aW5maWxlLm1hZT4nLCAnLW9tYWUnLCAnPG91dGZpbGUubWFlPic=

>  <r_epik_Ionization_Penalty>  (172) 
0.0161719

>  <r_epik_Ionization_Penalty_Charging>  (172) 
0.016171

>  <r_epik_Ionization_Penalty_Neutral>  (172) 
9.14374e-07

>  <r_epik_State_Penalty>  (172) 
0.0127493

>  <r_epik_Charging_Adjusted_Penalty>  (172) 
0.0289203

>  <i_epik_Tot_Q>  (172) 
1

>  <i_epik_Tot_abs_Q>  (172) 
1

>  <s_lp_Force_Field>  (172) 
OPLS3e

>  <r_lp_Energy>  (172) 
7.79447

>  <b_lp_Chiralities_Consistent>  (172) 
1

>  <s_lp_Variant>  (172) 
51:0-1

>  <s_i_glide_gridfile>  (172) 
pfpi4k_grid

>  <i_i_glide_lignum>  (172) 
39

>  <i_i_glide_rotatable_bonds>  (172) 
3

>  <r_i_docking_score>  (172) 
-3.82096

>  <r_i_glide_ligand_efficiency>  (172) 
-0.424551

>  <r_i_glide_ligand_efficiency_sa>  (172) 
-0.883102

>  <r_i_glide_ligand_efficiency_ln>  (172) 
-1.19509

>  <r_i_glide_gscore>  (172) 
-3.82096

>  <r_i_glide_lipo>  (172) 
-0.256391

>  <r_i_glide_hbond>  (172) 
-0.242282

>  <r_i_glide_metal>  (172) 
-0

>  <r_i_glide_rewards>  (172) 
-2.25

>  <r_i_glide_evdw>  (172) 
-10.0384

>  <r_i_glide_ecoul>  (172) 
-8.48277

>  <r_i_glide_erotb>  (172) 
0.798309

>  <r_i_glide_esite>  (172) 
-0.0962637

>  <r_i_glide_emodel>  (172) 
-24.5839

>  <r_i_glide_energy>  (172) 
-18.5211

>  <r_i_glide_einternal>  (172) 
1.15127

>  <r_i_glide_intrahb_reward>  (172) 
-0

>  <i_i_glide_confnum>  (172) 
3

>  <i_i_glide_posenum>  (172) 
3

>  <r_i_glide_eff_state_penalty>  (172) 
0

>  <ligand_id>  (172) 
51

>  <original_smiles>  (172) 
CN1CC(O)CC1CO

>  <smiles>  (172) 
[H]OC([H])([H])C1([H])C([H])([H])C([H])(O[H])C([H])([H])[N+]1([H])C([H])([H])[H]

$$$$
51:1:0
     RDKit          3D

 22 22  0  0  1  0  0  0  0  0999 V2000
    3.8087    0.2267   -3.5964 C   0  0  0  0  0  0  0  0  0  0  0  0
    4.0102   -1.1823   -3.2867 N   0  0  0  0  0  0  0  0  0  0  0  0
    3.1782   -2.0343   -4.0961 C   0  0  0  0  0  0  0  0  0  0  0  0
    3.1848   -3.4016   -3.4075 C   0  0  1  0  0  0  0  0  0  0  0  0
    4.1958   -4.2069   -3.9617 O   0  0  0  0  0  0  0  0  0  0  0  0
    3.4879   -3.0861   -1.9327 C   0  0  0  0  0  0  0  0  0  0  0  0
    3.6613   -1.5567   -1.9184 C   0  0  1  0  0  0  0  0  0  0  0  0
    4.6151   -1.0380   -0.8178 C   0  0  0  0  0  0  0  0  0  0  0  0
    5.9287   -1.5008   -1.0275 O   0  0  0  0  0  0  0  0  0  0  0  0
    4.0724    0.4331   -4.6336 H   0  0  0  0  0  0  0  0  0  0  0  0
    4.4444    0.8527   -2.9749 H   0  0  0  0  0  0  0  0  0  0  0  0
    2.7787    0.5314   -3.4594 H   0  0  0  0  0  0  0  0  0  0  0  0
    2.1544   -1.6721   -4.1091 H   0  0  0  0  0  0  0  0  0  0  0  0
    3.5232   -2.0595   -5.1196 H   0  0  0  0  0  0  0  0  0  0  0  0
    2.2097   -3.8930   -3.5269 H   0  0  0  0  0  0  0  0  0  0  0  0
    4.1200   -5.0480   -3.5204 H   0  0  0  0  0  0  0  0  0  0  0  0
    2.6738   -3.3889   -1.2734 H   0  0  0  0  0  0  0  0  0  0  0  0
    4.3781   -3.6149   -1.5951 H   0  0  0  0  0  0  0  0  0  0  0  0
    2.6721   -1.1504   -1.7139 H   0  0  0  0  0  0  0  0  0  0  0  0
    4.6138    0.0506   -0.7749 H   0  0  0  0  0  0  0  0  0  0  0  0
    4.2694   -1.3739    0.1598 H   0  0  0  0  0  0  0  0  0  0  0  0
    5.8892   -2.4422   -1.1541 H   0  0  0  0  0  0  0  0  0  0  0  0
  1  2  1  0
  1 10  1  0
  1 11  1  0
  1 12  1  0
  2  7  1  0
  2  3  1  0
  3  4  1  0
  3 13  1  0
  3 14  1  0
  4  5  1  0
  4  6  1  0
  4 15  1  1
  5 16  1  0
  6  7  1  0
  6 17  1  0
  6 18  1  0
  7  8  1  0
  7 19  1  1
  8  9  1  0
  8 20  1  0
  8 21  1  0
  9 22  1  0
M  END
>  <i_m_ct_stereo_status>  (173) 
1

>  <s_m_source_file>  (173) 
/var/tmp/pbs.5076255.sched01/tmp7rtc4ovb/41r77q45k8.sdf

>  <i_m_source_file_index>  (173) 
40

>  <i_lp_mmshare_version>  (173) 
48012

>  <i_f3d_flags>  (173) 
0

>  <s_epik_input>  (173) 
W0NIM11OMVtDSDJdW0NAQEhdKFtPSF0pW0NIMl1bQ0BIXTFbQ0gyXVtPSF0=

>  <s_epik_cmdline>  (173) 
J2VwaWtfcHl0aG9uJywgJy1waHQnLCAnMi4wJywgJy1waCcsICc3LjAnLCAnLXRuJywgJzgnLCAnLW1hJywgJzIwMCcsICctaW1hZScsICc8aW5maWxlLm1hZT4nLCAnLW9tYWUnLCAnPG91dGZpbGUubWFlPic=

>  <r_epik_Ionization_Penalty>  (173) 
2.14167

>  <r_epik_Ionization_Penalty_Charging>  (173) 
0

>  <r_epik_Ionization_Penalty_Neutral>  (173) 
2.14167

>  <r_epik_State_Penalty>  (173) 
2.28083

>  <r_epik_Charging_Adjusted_Penalty>  (173) 
2.28083

>  <i_epik_Tot_Q>  (173) 
0

>  <i_epik_Tot_abs_Q>  (173) 
0

>  <s_lp_Force_Field>  (173) 
OPLS3e

>  <r_lp_Energy>  (173) 
-1.3092

>  <b_lp_Chiralities_Consistent>  (173) 
1

>  <s_lp_Variant>  (173) 
51:0-2

>  <s_i_glide_gridfile>  (173) 
pfpi4k_grid

>  <i_i_glide_lignum>  (173) 
40

>  <i_i_glide_rotatable_bonds>  (173) 
3

>  <r_i_docking_score>  (173) 
-3.96123

>  <r_i_glide_ligand_efficiency>  (173) 
-0.440137

>  <r_i_glide_ligand_efficiency_sa>  (173) 
-0.915522

>  <r_i_glide_ligand_efficiency_ln>  (173) 
-1.23896

>  <r_i_glide_gscore>  (173) 
-3.96123

>  <r_i_glide_lipo>  (173) 
-0.158297

>  <r_i_glide_hbond>  (173) 
-0.361275

>  <r_i_glide_metal>  (173) 
-0

>  <r_i_glide_rewards>  (173) 
-2.25

>  <r_i_glide_evdw>  (173) 
-12.0162

>  <r_i_glide_ecoul>  (173) 
-9.32534

>  <r_i_glide_erotb>  (173) 
0.807951

>  <r_i_glide_esite>  (173) 
0

>  <r_i_glide_emodel>  (173) 
-23.6773

>  <r_i_glide_energy>  (173) 
-21.3416

>  <r_i_glide_einternal>  (173) 
6.24003

>  <r_i_glide_intrahb_reward>  (173) 
-0

>  <i_i_glide_confnum>  (173) 
2

>  <i_i_glide_posenum>  (173) 
40

>  <r_i_glide_eff_state_penalty>  (173) 
0

>  <ligand_id>  (173) 
51

>  <original_smiles>  (173) 
CN1CC(O)CC1CO

>  <smiles>  (173) 
[H]OC([H])([H])C1([H])N(C([H])([H])[H])C([H])([H])C([H])(O[H])C1([H])[H]

$$$$
51:1:1
     RDKit          3D

 22 22  0  0  1  0  0  0  0  0999 V2000
    5.2236   -2.4515   -0.4585 C   0  0  0  0  0  0  0  0  0  0  0  0
    4.1434   -2.0196   -1.3431 N   0  0  0  0  0  0  0  0  0  0  0  0
    4.4017   -0.7765   -2.0402 C   0  0  0  0  0  0  0  0  0  0  0  0
    3.2941   -0.6938   -3.0986 C   0  0  1  0  0  0  0  0  0  0  0  0
    3.7752   -0.0975   -4.2899 O   0  0  0  0  0  0  0  0  0  0  0  0
    2.8617   -2.1516   -3.3105 C   0  0  0  0  0  0  0  0  0  0  0  0
    3.7803   -2.9681   -2.3904 C   0  0  1  0  0  0  0  0  0  0  0  0
    4.9961   -3.5276   -3.1635 C   0  0  0  0  0  0  0  0  0  0  0  0
    4.6100   -4.4062   -4.1990 O   0  0  0  0  0  0  0  0  0  0  0  0
    6.1468   -2.6458   -1.0148 H   0  0  0  0  0  0  0  0  0  0  0  0
    4.9548   -3.3746    0.0593 H   0  0  0  0  0  0  0  0  0  0  0  0
    5.4148   -1.7033    0.3169 H   0  0  0  0  0  0  0  0  0  0  0  0
    4.3975    0.0698   -1.3538 H   0  0  0  0  0  0  0  0  0  0  0  0
    5.3780   -0.8178   -2.5199 H   0  0  0  0  0  0  0  0  0  0  0  0
    2.4369   -0.1190   -2.7407 H   0  0  0  0  0  0  0  0  0  0  0  0
    3.6491    0.8426   -4.2050 H   0  0  0  0  0  0  0  0  0  0  0  0
    1.8234   -2.2621   -2.9902 H   0  0  0  0  0  0  0  0  0  0  0  0
    2.8930   -2.4591   -4.3542 H   0  0  0  0  0  0  0  0  0  0  0  0
    3.2222   -3.7936   -1.9504 H   0  0  0  0  0  0  0  0  0  0  0  0
    5.5912   -2.7263   -3.5948 H   0  0  0  0  0  0  0  0  0  0  0  0
    5.6493   -4.0897   -2.4980 H   0  0  0  0  0  0  0  0  0  0  0  0
    4.0727   -5.0832   -3.8009 H   0  0  0  0  0  0  0  0  0  0  0  0
  1  2  1  0
  1 10  1  0
  1 11  1  0
  1 12  1  0
  2  7  1  0
  2  3  1  0
  3  4  1  0
  3 13  1  0
  3 14  1  0
  4  5  1  0
  4  6  1  0
  4 15  1  1
  5 16  1  0
  6  7  1  0
  6 17  1  0
  6 18  1  0
  7  8  1  0
  7 19  1  1
  8  9  1  0
  8 20  1  0
  8 21  1  0
  9 22  1  0
M  END
>  <i_m_ct_stereo_status>  (174) 
1

>  <s_m_source_file>  (174) 
/var/tmp/pbs.5076255.sched01/tmp7rtc4ovb/41r77q45k8.sdf

>  <i_m_source_file_index>  (174) 
40

>  <i_lp_mmshare_version>  (174) 
48012

>  <i_f3d_flags>  (174) 
0

>  <s_epik_input>  (174) 
W0NIM11OMVtDSDJdW0NAQEhdKFtPSF0pW0NIMl1bQ0BIXTFbQ0gyXVtPSF0=

>  <s_epik_cmdline>  (174) 
J2VwaWtfcHl0aG9uJywgJy1waHQnLCAnMi4wJywgJy1waCcsICc3LjAnLCAnLXRuJywgJzgnLCAnLW1hJywgJzIwMCcsICctaW1hZScsICc8aW5maWxlLm1hZT4nLCAnLW9tYWUnLCAnPG91dGZpbGUubWFlPic=

>  <r_epik_Ionization_Penalty>  (174) 
2.14167

>  <r_epik_Ionization_Penalty_Charging>  (174) 
0

>  <r_epik_Ionization_Penalty_Neutral>  (174) 
2.14167

>  <r_epik_State_Penalty>  (174) 
2.28083

>  <r_epik_Charging_Adjusted_Penalty>  (174) 
2.28083

>  <i_epik_Tot_Q>  (174) 
0

>  <i_epik_Tot_abs_Q>  (174) 
0

>  <s_lp_Force_Field>  (174) 
OPLS3e

>  <r_lp_Energy>  (174) 
-1.3092

>  <b_lp_Chiralities_Consistent>  (174) 
1

>  <s_lp_Variant>  (174) 
51:0-2

>  <s_i_glide_gridfile>  (174) 
pfpi4k_grid

>  <i_i_glide_lignum>  (174) 
40

>  <i_i_glide_rotatable_bonds>  (174) 
3

>  <r_i_docking_score>  (174) 
-3.77313

>  <r_i_glide_ligand_efficiency>  (174) 
-0.419236

>  <r_i_glide_ligand_efficiency_sa>  (174) 
-0.872046

>  <r_i_glide_ligand_efficiency_ln>  (174) 
-1.18013

>  <r_i_glide_gscore>  (174) 
-3.77313

>  <r_i_glide_lipo>  (174) 
-0.331355

>  <r_i_glide_hbond>  (174) 
-0.32

>  <r_i_glide_metal>  (174) 
-0

>  <r_i_glide_rewards>  (174) 
-2.25

>  <r_i_glide_evdw>  (174) 
-14.4557

>  <r_i_glide_ecoul>  (174) 
-6.37957

>  <r_i_glide_erotb>  (174) 
0.807951

>  <r_i_glide_esite>  (174) 
0

>  <r_i_glide_emodel>  (174) 
-25.5588

>  <r_i_glide_energy>  (174) 
-20.8353

>  <r_i_glide_einternal>  (174) 
1.00188

>  <r_i_glide_intrahb_reward>  (174) 
-0

>  <i_i_glide_confnum>  (174) 
4

>  <i_i_glide_posenum>  (174) 
16

>  <r_i_glide_eff_state_penalty>  (174) 
0

>  <ligand_id>  (174) 
51

>  <original_smiles>  (174) 
CN1CC(O)CC1CO

>  <smiles>  (174) 
[H]OC([H])([H])C1([H])N(C([H])([H])[H])C([H])([H])C([H])(O[H])C1([H])[H]

$$$$
51:1:2
     RDKit          3D

 22 22  0  0  1  0  0  0  0  0999 V2000
    3.9639    0.3318   -3.6870 C   0  0  0  0  0  0  0  0  0  0  0  0
    4.0936   -1.0883   -3.4205 N   0  0  0  0  0  0  0  0  0  0  0  0
    3.2530   -1.8390   -4.3121 C   0  0  0  0  0  0  0  0  0  0  0  0
    3.1912   -3.2478   -3.7282 C   0  0  1  0  0  0  0  0  0  0  0  0
    4.2122   -4.0594   -4.2758 O   0  0  0  0  0  0  0  0  0  0  0  0
    3.4314   -3.0209   -2.2284 C   0  0  0  0  0  0  0  0  0  0  0  0
    3.6203   -1.4975   -2.1075 C   0  0  1  0  0  0  0  0  0  0  0  0
    4.5407   -1.0883   -0.9506 C   0  0  0  0  0  0  0  0  0  0  0  0
    3.9693   -1.4802    0.2759 O   0  0  0  0  0  0  0  0  0  0  0  0
    4.2662    0.5680   -4.7126 H   0  0  0  0  0  0  0  0  0  0  0  0
    4.5742    0.9367   -3.0183 H   0  0  0  0  0  0  0  0  0  0  0  0
    2.9144    0.6045   -3.5805 H   0  0  0  0  0  0  0  0  0  0  0  0
    2.2458   -1.4240   -4.3019 H   0  0  0  0  0  0  0  0  0  0  0  0
    3.6267   -1.7615   -5.3229 H   0  0  0  0  0  0  0  0  0  0  0  0
    2.2171   -3.7064   -3.9146 H   0  0  0  0  0  0  0  0  0  0  0  0
    4.1965   -4.8747   -3.7884 H   0  0  0  0  0  0  0  0  0  0  0  0
    2.5888   -3.3540   -1.6198 H   0  0  0  0  0  0  0  0  0  0  0  0
    4.3145   -3.5582   -1.8806 H   0  0  0  0  0  0  0  0  0  0  0  0
    2.6324   -1.0633   -1.9506 H   0  0  0  0  0  0  0  0  0  0  0  0
    5.5326   -1.5250   -1.0604 H   0  0  0  0  0  0  0  0  0  0  0  0
    4.6592   -0.0075   -0.9202 H   0  0  0  0  0  0  0  0  0  0  0  0
    3.0905   -1.1141    0.3151 H   0  0  0  0  0  0  0  0  0  0  0  0
  1  2  1  0
  1 10  1  0
  1 11  1  0
  1 12  1  0
  2  7  1  0
  2  3  1  0
  3  4  1  0
  3 13  1  0
  3 14  1  0
  4  5  1  0
  4  6  1  0
  4 15  1  1
  5 16  1  0
  6  7  1  0
  6 17  1  0
  6 18  1  0
  7  8  1  0
  7 19  1  1
  8  9  1  0
  8 20  1  0
  8 21  1  0
  9 22  1  0
M  END
>  <i_m_ct_stereo_status>  (175) 
1

>  <s_m_source_file>  (175) 
/var/tmp/pbs.5076255.sched01/tmp7rtc4ovb/41r77q45k8.sdf

>  <i_m_source_file_index>  (175) 
40

>  <i_lp_mmshare_version>  (175) 
48012

>  <i_f3d_flags>  (175) 
0

>  <s_epik_input>  (175) 
W0NIM11OMVtDSDJdW0NAQEhdKFtPSF0pW0NIMl1bQ0BIXTFbQ0gyXVtPSF0=

>  <s_epik_cmdline>  (175) 
J2VwaWtfcHl0aG9uJywgJy1waHQnLCAnMi4wJywgJy1waCcsICc3LjAnLCAnLXRuJywgJzgnLCAnLW1hJywgJzIwMCcsICctaW1hZScsICc8aW5maWxlLm1hZT4nLCAnLW9tYWUnLCAnPG91dGZpbGUubWFlPic=

>  <r_epik_Ionization_Penalty>  (175) 
2.14167

>  <r_epik_Ionization_Penalty_Charging>  (175) 
0

>  <r_epik_Ionization_Penalty_Neutral>  (175) 
2.14167

>  <r_epik_State_Penalty>  (175) 
2.28083

>  <r_epik_Charging_Adjusted_Penalty>  (175) 
2.28083

>  <i_epik_Tot_Q>  (175) 
0

>  <i_epik_Tot_abs_Q>  (175) 
0

>  <s_lp_Force_Field>  (175) 
OPLS3e

>  <r_lp_Energy>  (175) 
-1.3092

>  <b_lp_Chiralities_Consistent>  (175) 
1

>  <s_lp_Variant>  (175) 
51:0-2

>  <s_i_glide_gridfile>  (175) 
pfpi4k_grid

>  <i_i_glide_lignum>  (175) 
40

>  <i_i_glide_rotatable_bonds>  (175) 
3

>  <r_i_docking_score>  (175) 
-3.52752

>  <r_i_glide_ligand_efficiency>  (175) 
-0.391946

>  <r_i_glide_ligand_efficiency_sa>  (175) 
-0.815281

>  <r_i_glide_ligand_efficiency_ln>  (175) 
-1.10331

>  <r_i_glide_gscore>  (175) 
-3.52752

>  <r_i_glide_lipo>  (175) 
-0.183903

>  <r_i_glide_hbond>  (175) 
-0.257066

>  <r_i_glide_metal>  (175) 
-0

>  <r_i_glide_rewards>  (175) 
-2.25

>  <r_i_glide_evdw>  (175) 
-12.8228

>  <r_i_glide_ecoul>  (175) 
-6.68907

>  <r_i_glide_erotb>  (175) 
0.807951

>  <r_i_glide_esite>  (175) 
0

>  <r_i_glide_emodel>  (175) 
-24.0918

>  <r_i_glide_energy>  (175) 
-19.5118

>  <r_i_glide_einternal>  (175) 
0.424669

>  <r_i_glide_intrahb_reward>  (175) 
-0

>  <i_i_glide_confnum>  (175) 
5

>  <i_i_glide_posenum>  (175) 
3

>  <r_i_glide_eff_state_penalty>  (175) 
0

>  <ligand_id>  (175) 
51

>  <original_smiles>  (175) 
CN1CC(O)CC1CO

>  <smiles>  (175) 
[H]OC([H])([H])C1([H])N(C([H])([H])[H])C([H])([H])C([H])(O[H])C1([H])[H]

$$$$
53:0:0
     RDKit          3D

 44 47  0  0  1  0  0  0  0  0999 V2000
    6.8836   -2.0005    0.3174 C   0  0  0  0  0  0  0  0  0  0  0  0
    5.5669   -2.2831   -0.3760 C   0  0  0  0  0  0  0  0  0  0  0  0
    4.5097   -2.9747    0.0796 C   0  0  0  0  0  0  0  0  0  0  0  0
    3.5300   -3.0452   -0.9550 C   0  0  0  0  0  0  0  0  0  0  0  0
    2.4449   -3.8240   -0.8169 C   0  0  0  0  0  0  0  0  0  0  0  0
    2.2411   -4.6496    0.2697 O   0  0  0  0  0  0  0  0  0  0  0  0
    3.4054   -4.9448    1.0617 C   0  0  2  0  0  0  0  0  0  0  0  0
    2.9892   -5.7424    2.3076 C   0  0  0  0  0  0  0  0  0  0  0  0
    2.3794   -4.8576    3.4024 C   0  0  0  0  0  0  0  0  0  0  0  0
    3.3443   -3.7138    3.7644 C   0  0  2  0  0  0  0  0  0  0  0  0
    2.8657   -2.9460    5.0176 C   0  0  0  0  0  0  0  0  0  0  0  0
    3.8049   -1.7937    5.3741 C   0  0  0  0  0  0  0  0  0  0  0  0
    4.1166   -1.5651    6.5414 O   0  0  0  0  0  0  0  0  0  0  0  0
    4.2840   -0.9175    4.2137 C   0  0  1  0  0  0  0  0  0  0  0  0
    5.8080    0.2340    4.7923 Br  0  0  0  0  0  0  0  0  0  0  0  0
    4.7247   -1.7672    3.0093 C   0  0  0  0  0  0  0  0  0  0  0  0
    3.6659   -2.7983    2.5395 C   0  0  2  0  0  0  0  0  0  0  0  0
    2.4020   -2.0238    2.0681 C   0  0  0  0  0  0  0  0  0  0  0  0
    4.2771   -3.6946    1.3983 C   0  0  2  0  0  0  0  0  0  0  0  0
    3.9053   -2.1971   -2.1436 C   0  0  0  0  0  0  0  0  0  0  0  0
    5.3450   -1.7623   -1.7876 C   0  0  0  0  0  0  0  0  0  0  0  0
    7.7127   -2.3449   -0.3021 H   0  0  0  0  0  0  0  0  0  0  0  0
    6.9561   -2.5036    1.2820 H   0  0  0  0  0  0  0  0  0  0  0  0
    7.0009   -0.9283    0.4813 H   0  0  0  0  0  0  0  0  0  0  0  0
    1.6753   -3.9297   -1.5692 H   0  0  0  0  0  0  0  0  0  0  0  0
    4.0065   -5.6152    0.4476 H   0  0  0  0  0  0  0  0  0  0  0  0
    2.2900   -6.5306    2.0298 H   0  0  0  0  0  0  0  0  0  0  0  0
    3.8667   -6.2473    2.7164 H   0  0  0  0  0  0  0  0  0  0  0  0
    1.4139   -4.4656    3.0805 H   0  0  0  0  0  0  0  0  0  0  0  0
    2.1786   -5.4699    4.2849 H   0  0  0  0  0  0  0  0  0  0  0  0
    4.2777   -4.1957    4.0596 H   0  0  0  0  0  0  0  0  0  0  0  0
    1.8608   -2.5476    4.8748 H   0  0  0  0  0  0  0  0  0  0  0  0
    2.8138   -3.6238    5.8719 H   0  0  0  0  0  0  0  0  0  0  0  0
    3.4740   -0.2453    3.9347 H   0  0  0  0  0  0  0  0  0  0  0  0
    4.9944   -1.0974    2.1923 H   0  0  0  0  0  0  0  0  0  0  0  0
    5.6356   -2.2980    3.2923 H   0  0  0  0  0  0  0  0  0  0  0  0
    2.6393   -1.3108    1.2780 H   0  0  0  0  0  0  0  0  0  0  0  0
    1.9293   -1.4571    2.8693 H   0  0  0  0  0  0  0  0  0  0  0  0
    1.6341   -2.6852    1.6797 H   0  0  0  0  0  0  0  0  0  0  0  0
    5.2415   -4.0671    1.7440 H   0  0  0  0  0  0  0  0  0  0  0  0
    3.8662   -2.7687   -3.0700 H   0  0  0  0  0  0  0  0  0  0  0  0
    3.2324   -1.3423   -2.2195 H   0  0  0  0  0  0  0  0  0  0  0  0
    5.4527   -0.6783   -1.8221 H   0  0  0  0  0  0  0  0  0  0  0  0
    6.0735   -2.2202   -2.4576 H   0  0  0  0  0  0  0  0  0  0  0  0
  1  2  1  0
  1 22  1  0
  1 23  1  0
  1 24  1  0
  2 21  1  0
  2  3  2  0
  3 19  1  0
  3  4  1  0
  4  5  2  0
  4 20  1  0
  5  6  1  0
  5 25  1  0
  6  7  1  0
  7 19  1  0
  7  8  1  0
  7 26  1  6
  8  9  1  0
  8 27  1  0
  8 28  1  0
  9 10  1  0
  9 29  1  0
  9 30  1  0
 10 17  1  0
 10 11  1  0
 10 31  1  1
 11 12  1  0
 11 32  1  0
 11 33  1  0
 12 13  2  0
 12 14  1  0
 14 15  1  0
 14 16  1  0
 14 34  1  6
 16 17  1  0
 16 35  1  0
 16 36  1  0
 17 18  1  6
 17 19  1  0
 18 37  1  0
 18 38  1  0
 18 39  1  0
 19 40  1  1
 20 21  1  0
 20 41  1  0
 20 42  1  0
 21 43  1  0
 21 44  1  0
M  END
>  <i_m_ct_stereo_status>  (176) 
1

>  <s_m_source_file>  (176) 
/var/tmp/pbs.5076255.sched01/tmp7qb2j_xu/82up84z1qn.sdf

>  <i_m_source_file_index>  (176) 
2

>  <i_lp_mmshare_version>  (176) 
48012

>  <i_f3d_flags>  (176) 
0

>  <s_epik_input>  (176) 
W0NIM11DPTFbQ0gyXVtDSDJdQyg9W0NIXU8yKUMxW0NAQEhdM1tDQEhdMltDSDJdW0NIMl1bQ0BASF0oW0NAXTM0W0NIM10pW0NIMl1DKD1PKVtDQEBIXShCcilbQ0gyXTQ=

>  <s_epik_cmdline>  (176) 
J2VwaWtfcHl0aG9uJywgJy1waHQnLCAnMi4wJywgJy1waCcsICc3LjAnLCAnLXRuJywgJzgnLCAnLW1hJywgJzIwMCcsICctaW1hZScsICc8aW5maWxlLm1hZT4nLCAnLW9tYWUnLCAnPG91dGZpbGUubWFlPic=

>  <r_lp_tautomer_probability>  (176) 
1

>  <r_epik_Ionization_Penalty>  (176) 
3.04969e-11

>  <r_epik_Ionization_Penalty_Charging>  (176) 
0

>  <r_epik_Ionization_Penalty_Neutral>  (176) 
3.04969e-11

>  <r_epik_State_Penalty>  (176) 
-0

>  <r_epik_Charging_Adjusted_Penalty>  (176) 
0

>  <i_epik_Tot_Q>  (176) 
0

>  <i_epik_Tot_abs_Q>  (176) 
0

>  <s_lp_Force_Field>  (176) 
OPLS3e

>  <r_lp_Energy>  (176) 
10.8727

>  <b_lp_Chiralities_Consistent>  (176) 
1

>  <s_lp_Variant>  (176) 
53:0-1

>  <s_i_glide_gridfile>  (176) 
pfpi4k_grid

>  <i_i_glide_lignum>  (176) 
2

>  <i_i_glide_rotatable_bonds>  (176) 
0

>  <r_i_docking_score>  (176) 
-2.52972

>  <r_i_glide_ligand_efficiency>  (176) 
-0.120463

>  <r_i_glide_ligand_efficiency_sa>  (176) 
-0.332348

>  <r_i_glide_ligand_efficiency_ln>  (176) 
-0.625469

>  <r_i_glide_gscore>  (176) 
-2.52972

>  <r_i_glide_lipo>  (176) 
-0.217117

>  <r_i_glide_hbond>  (176) 
-0.00888091

>  <r_i_glide_metal>  (176) 
-0

>  <r_i_glide_rewards>  (176) 
-1.01401

>  <r_i_glide_evdw>  (176) 
-21.3949

>  <r_i_glide_ecoul>  (176) 
-1.46646

>  <r_i_glide_erotb>  (176) 
0

>  <r_i_glide_esite>  (176) 
0

>  <r_i_glide_emodel>  (176) 
-26.4521

>  <r_i_glide_energy>  (176) 
-22.8613

>  <r_i_glide_einternal>  (176) 
0

>  <r_i_glide_intrahb_reward>  (176) 
-0

>  <i_i_glide_confnum>  (176) 
1

>  <i_i_glide_posenum>  (176) 
20

>  <r_i_glide_eff_state_penalty>  (176) 
0

>  <ligand_id>  (176) 
53

>  <original_smiles>  (176) 
CC1=C2C(=COC3CCC4CC(=O)C(Br)CC4(C)C23)CC1

>  <smiles>  (176) 
[H]C1=C2C(=C(C([H])([H])[H])C([H])([H])C2([H])[H])C2([H])C([H])(O1)C([H])([H])C([H])([H])C1([H])C([H])([H])C(=O)C([H])(Br)C([H])([H])C21C([H])([H])[H]

$$$$
53:0:1
     RDKit          3D

 44 47  0  0  1  0  0  0  0  0999 V2000
    4.8774   -0.3615    1.3335 C   0  0  0  0  0  0  0  0  0  0  0  0
    4.7311   -1.5085    0.3598 C   0  0  0  0  0  0  0  0  0  0  0  0
    4.8862   -2.8223    0.5883 C   0  0  0  0  0  0  0  0  0  0  0  0
    4.7287   -3.5158   -0.6453 C   0  0  0  0  0  0  0  0  0  0  0  0
    5.0037   -4.8270   -0.7236 C   0  0  0  0  0  0  0  0  0  0  0  0
    5.5011   -5.5626    0.3283 O   0  0  0  0  0  0  0  0  0  0  0  0
    6.1074   -4.8092    1.3877 C   0  0  2  0  0  0  0  0  0  0  0  0
    6.4837   -5.7656    2.5291 C   0  0  0  0  0  0  0  0  0  0  0  0
    5.2806   -6.1602    3.3928 C   0  0  0  0  0  0  0  0  0  0  0  0
    4.5591   -4.9030    3.9139 C   0  0  2  0  0  0  0  0  0  0  0  0
    3.4890   -5.2616    4.9703 C   0  0  0  0  0  0  0  0  0  0  0  0
    2.7490   -4.0237    5.4775 C   0  0  0  0  0  0  0  0  0  0  0  0
    2.4845   -3.8827    6.6700 O   0  0  0  0  0  0  0  0  0  0  0  0
    2.3075   -3.0091    4.4195 C   0  0  1  0  0  0  0  0  0  0  0  0
    1.7424   -1.2956    5.2713 Br  0  0  0  0  0  0  0  0  0  0  0  0
    3.4317   -2.7258    3.4084 C   0  0  0  0  0  0  0  0  0  0  0  0
    4.0333   -3.9973    2.7533 C   0  0  2  0  0  0  0  0  0  0  0  0
    2.9134   -4.7146    1.9426 C   0  0  0  0  0  0  0  0  0  0  0  0
    5.2553   -3.5878    1.8516 C   0  0  2  0  0  0  0  0  0  0  0  0
    4.2766   -2.5988   -1.7580 C   0  0  0  0  0  0  0  0  0  0  0  0
    4.3786   -1.2091   -1.0894 C   0  0  0  0  0  0  0  0  0  0  0  0
    5.6025    0.3511    0.9408 H   0  0  0  0  0  0  0  0  0  0  0  0
    5.2187   -0.6900    2.3166 H   0  0  0  0  0  0  0  0  0  0  0  0
    3.9231    0.1544    1.4492 H   0  0  0  0  0  0  0  0  0  0  0  0
    4.9224   -5.4134   -1.6250 H   0  0  0  0  0  0  0  0  0  0  0  0
    7.0410   -4.4305    0.9719 H   0  0  0  0  0  0  0  0  0  0  0  0
    6.9694   -6.6558    2.1291 H   0  0  0  0  0  0  0  0  0  0  0  0
    7.2227   -5.2836    3.1665 H   0  0  0  0  0  0  0  0  0  0  0  0
    4.5988   -6.7946    2.8250 H   0  0  0  0  0  0  0  0  0  0  0  0
    5.6293   -6.7655    4.2327 H   0  0  0  0  0  0  0  0  0  0  0  0
    5.3158   -4.3278    4.4508 H   0  0  0  0  0  0  0  0  0  0  0  0
    2.7606   -5.9641    4.5659 H   0  0  0  0  0  0  0  0  0  0  0  0
    3.9583   -5.7575    5.8219 H   0  0  0  0  0  0  0  0  0  0  0  0
    1.4283   -3.4042    3.9133 H   0  0  0  0  0  0  0  0  0  0  0  0
    3.0502   -2.0475    2.6445 H   0  0  0  0  0  0  0  0  0  0  0  0
    4.2234   -2.1891    3.9340 H   0  0  0  0  0  0  0  0  0  0  0  0
    2.4733   -4.0476    1.2013 H   0  0  0  0  0  0  0  0  0  0  0  0
    2.0979   -5.0638    2.5746 H   0  0  0  0  0  0  0  0  0  0  0  0
    3.2763   -5.5916    1.4111 H   0  0  0  0  0  0  0  0  0  0  0  0
    5.9145   -2.9523    2.4406 H   0  0  0  0  0  0  0  0  0  0  0  0
    4.9153   -2.6836   -2.6354 H   0  0  0  0  0  0  0  0  0  0  0  0
    3.2489   -2.8279   -2.0397 H   0  0  0  0  0  0  0  0  0  0  0  0
    3.4374   -0.6649   -1.1501 H   0  0  0  0  0  0  0  0  0  0  0  0
    5.1602   -0.6016   -1.5445 H   0  0  0  0  0  0  0  0  0  0  0  0
  1  2  1  0
  1 22  1  0
  1 23  1  0
  1 24  1  0
  2 21  1  0
  2  3  2  0
  3 19  1  0
  3  4  1  0
  4  5  2  0
  4 20  1  0
  5  6  1  0
  5 25  1  0
  6  7  1  0
  7 19  1  0
  7  8  1  0
  7 26  1  6
  8  9  1  0
  8 27  1  0
  8 28  1  0
  9 10  1  0
  9 29  1  0
  9 30  1  0
 10 17  1  0
 10 11  1  0
 10 31  1  1
 11 12  1  0
 11 32  1  0
 11 33  1  0
 12 13  2  0
 12 14  1  0
 14 15  1  0
 14 16  1  0
 14 34  1  6
 16 17  1  0
 16 35  1  0
 16 36  1  0
 17 18  1  6
 17 19  1  0
 18 37  1  0
 18 38  1  0
 18 39  1  0
 19 40  1  1
 20 21  1  0
 20 41  1  0
 20 42  1  0
 21 43  1  0
 21 44  1  0
M  END
>  <i_m_ct_stereo_status>  (177) 
1

>  <s_m_source_file>  (177) 
/var/tmp/pbs.5076255.sched01/tmp7qb2j_xu/82up84z1qn.sdf

>  <i_m_source_file_index>  (177) 
2

>  <i_lp_mmshare_version>  (177) 
48012

>  <i_f3d_flags>  (177) 
0

>  <s_epik_input>  (177) 
W0NIM11DPTFbQ0gyXVtDSDJdQyg9W0NIXU8yKUMxW0NAQEhdM1tDQEhdMltDSDJdW0NIMl1bQ0BASF0oW0NAXTM0W0NIM10pW0NIMl1DKD1PKVtDQEBIXShCcilbQ0gyXTQ=

>  <s_epik_cmdline>  (177) 
J2VwaWtfcHl0aG9uJywgJy1waHQnLCAnMi4wJywgJy1waCcsICc3LjAnLCAnLXRuJywgJzgnLCAnLW1hJywgJzIwMCcsICctaW1hZScsICc8aW5maWxlLm1hZT4nLCAnLW9tYWUnLCAnPG91dGZpbGUubWFlPic=

>  <r_lp_tautomer_probability>  (177) 
1

>  <r_epik_Ionization_Penalty>  (177) 
3.04969e-11

>  <r_epik_Ionization_Penalty_Charging>  (177) 
0

>  <r_epik_Ionization_Penalty_Neutral>  (177) 
3.04969e-11

>  <r_epik_State_Penalty>  (177) 
-0

>  <r_epik_Charging_Adjusted_Penalty>  (177) 
0

>  <i_epik_Tot_Q>  (177) 
0

>  <i_epik_Tot_abs_Q>  (177) 
0

>  <s_lp_Force_Field>  (177) 
OPLS3e

>  <r_lp_Energy>  (177) 
10.8727

>  <b_lp_Chiralities_Consistent>  (177) 
1

>  <s_lp_Variant>  (177) 
53:0-1

>  <s_i_glide_gridfile>  (177) 
pfpi4k_grid

>  <i_i_glide_lignum>  (177) 
2

>  <i_i_glide_rotatable_bonds>  (177) 
0

>  <r_i_docking_score>  (177) 
-2.52451

>  <r_i_glide_ligand_efficiency>  (177) 
-0.120215

>  <r_i_glide_ligand_efficiency_sa>  (177) 
-0.331663

>  <r_i_glide_ligand_efficiency_ln>  (177) 
-0.624179

>  <r_i_glide_gscore>  (177) 
-2.52451

>  <r_i_glide_lipo>  (177) 
-0.383451

>  <r_i_glide_hbond>  (177) 
0

>  <r_i_glide_metal>  (177) 
-0

>  <r_i_glide_rewards>  (177) 
-1.01401

>  <r_i_glide_evdw>  (177) 
-17.8607

>  <r_i_glide_ecoul>  (177) 
-1.56006

>  <r_i_glide_erotb>  (177) 
0

>  <r_i_glide_esite>  (177) 
0

>  <r_i_glide_emodel>  (177) 
-22.9911

>  <r_i_glide_energy>  (177) 
-19.4207

>  <r_i_glide_einternal>  (177) 
0

>  <r_i_glide_intrahb_reward>  (177) 
-0

>  <i_i_glide_confnum>  (177) 
2

>  <i_i_glide_posenum>  (177) 
1

>  <r_i_glide_eff_state_penalty>  (177) 
0

>  <ligand_id>  (177) 
53

>  <original_smiles>  (177) 
CC1=C2C(=COC3CCC4CC(=O)C(Br)CC4(C)C23)CC1

>  <smiles>  (177) 
[H]C1=C2C(=C(C([H])([H])[H])C([H])([H])C2([H])[H])C2([H])C([H])(O1)C([H])([H])C([H])([H])C1([H])C([H])([H])C(=O)C([H])(Br)C([H])([H])C21C([H])([H])[H]

$$$$
53:0:2
     RDKit          3D

 44 47  0  0  1  0  0  0  0  0999 V2000
    3.5753    0.1401   -3.2032 C   0  0  0  0  0  0  0  0  0  0  0  0
    3.6402   -1.3020   -3.2530 C   0  0  0  0  0  0  0  0  0  0  0  0
    4.3554   -2.0692   -2.5029 C   0  0  0  0  0  0  0  0  0  0  0  0
    4.2398   -3.3555   -3.0467 C   0  0  0  0  0  0  0  0  0  0  0  0
    5.0264   -4.2901   -2.6120 C   0  0  0  0  0  0  0  0  0  0  0  0
    5.9235   -4.0994   -1.5935 O   0  0  0  0  0  0  0  0  0  0  0  0
    6.4976   -2.8071   -1.5925 C   0  0  2  0  0  0  0  0  0  0  0  0
    7.5552   -2.7972   -0.5072 C   0  0  0  0  0  0  0  0  0  0  0  0
    6.8976   -2.9120    0.8630 C   0  0  0  0  0  0  0  0  0  0  0  0
    5.8883   -1.7613    1.0633 C   0  0  2  0  0  0  0  0  0  0  0  0
    5.3995   -1.6539    2.5205 C   0  0  0  0  0  0  0  0  0  0  0  0
    4.3451   -0.5647    2.7009 C   0  0  0  0  0  0  0  0  0  0  0  0
    4.3797    0.1851    3.6630 O   0  0  0  0  0  0  0  0  0  0  0  0
    3.2328   -0.5204    1.6525 C   0  0  1  0  0  0  0  0  0  0  0  0
    2.1731    1.1503    1.8522 Br  0  0  0  0  0  0  0  0  0  0  0  0
    3.8064   -0.6580    0.2359 C   0  0  0  0  0  0  0  0  0  0  0  0
    4.7300   -1.8627    0.0335 C   0  0  2  0  0  0  0  0  0  0  0  0
    3.8809   -3.1576    0.2608 C   0  0  0  0  0  0  0  0  0  0  0  0
    5.3623   -1.7727   -1.4018 C   0  0  2  0  0  0  0  0  0  0  0  0
    3.2086   -3.4536   -4.1174 C   0  0  0  0  0  0  0  0  0  0  0  0
    2.8407   -1.9830   -4.2924 C   0  0  0  0  0  0  0  0  0  0  0  0
    3.7339    0.6039   -4.1893 H   0  0  0  0  0  0  0  0  0  0  0  0
    4.2925    0.4857   -2.4393 H   0  0  0  0  0  0  0  0  0  0  0  0
    2.5135    0.1878   -2.9337 H   0  0  0  0  0  0  0  0  0  0  0  0
    5.0159   -5.2750   -3.0217 H   0  0  0  0  0  0  0  0  0  0  0  0
    6.9870   -2.6610   -2.5640 H   0  0  0  0  0  0  0  0  0  0  0  0
    8.2361   -3.6282   -0.6512 H   0  0  0  0  0  0  0  0  0  0  0  0
    8.1541   -1.8962   -0.5765 H   0  0  0  0  0  0  0  0  0  0  0  0
    6.4278   -3.8881    1.0125 H   0  0  0  0  0  0  0  0  0  0  0  0
    7.6829   -2.8856    1.5959 H   0  0  0  0  0  0  0  0  0  0  0  0
    6.4191   -0.8265    0.8581 H   0  0  0  0  0  0  0  0  0  0  0  0
    4.9903   -2.5979    2.8743 H   0  0  0  0  0  0  0  0  0  0  0  0
    6.2191   -1.3925    3.1814 H   0  0  0  0  0  0  0  0  0  0  0  0
    2.5376   -1.3272    1.8510 H   0  0  0  0  0  0  0  0  0  0  0  0
    2.9964   -0.7084   -0.4937 H   0  0  0  0  0  0  0  0  0  0  0  0
    4.3849    0.2412    0.0208 H   0  0  0  0  0  0  0  0  0  0  0  0
    3.0200   -3.1845   -0.4068 H   0  0  0  0  0  0  0  0  0  0  0  0
    3.5020   -3.2269    1.2769 H   0  0  0  0  0  0  0  0  0  0  0  0
    4.4269   -4.0866    0.1148 H   0  0  0  0  0  0  0  0  0  0  0  0
    5.7952   -0.7709   -1.5713 H   0  0  0  0  0  0  0  0  0  0  0  0
    3.7210   -3.8220   -4.9942 H   0  0  0  0  0  0  0  0  0  0  0  0
    2.3187   -4.0297   -3.8218 H   0  0  0  0  0  0  0  0  0  0  0  0
    1.7639   -1.8549   -4.1903 H   0  0  0  0  0  0  0  0  0  0  0  0
    3.2350   -1.4732   -5.1687 H   0  0  0  0  0  0  0  0  0  0  0  0
  1  2  1  0
  1 22  1  0
  1 23  1  0
  1 24  1  0
  2 21  1  0
  2  3  2  0
  3 19  1  0
  3  4  1  0
  4  5  2  0
  4 20  1  0
  5  6  1  0
  5 25  1  0
  6  7  1  0
  7 19  1  0
  7  8  1  0
  7 26  1  6
  8  9  1  0
  8 27  1  0
  8 28  1  0
  9 10  1  0
  9 29  1  0
  9 30  1  0
 10 17  1  0
 10 11  1  0
 10 31  1  6
 11 12  1  0
 11 32  1  0
 11 33  1  0
 12 13  2  0
 12 14  1  0
 14 15  1  0
 14 16  1  0
 14 34  1  1
 16 17  1  0
 16 35  1  0
 16 36  1  0
 17 18  1  6
 17 19  1  0
 18 37  1  0
 18 38  1  0
 18 39  1  0
 19 40  1  6
 20 21  1  0
 20 41  1  0
 20 42  1  0
 21 43  1  0
 21 44  1  0
M  END
>  <i_m_ct_stereo_status>  (178) 
1

>  <s_m_source_file>  (178) 
/var/tmp/pbs.5076255.sched01/tmp7qb2j_xu/82up84z1qn.sdf

>  <i_m_source_file_index>  (178) 
2

>  <i_lp_mmshare_version>  (178) 
48012

>  <i_f3d_flags>  (178) 
0

>  <s_epik_input>  (178) 
W0NIM11DPTFbQ0gyXVtDSDJdQyg9W0NIXU8yKUMxW0NAQEhdM1tDQEhdMltDSDJdW0NIMl1bQ0BASF0oW0NAXTM0W0NIM10pW0NIMl1DKD1PKVtDQEBIXShCcilbQ0gyXTQ=

>  <s_epik_cmdline>  (178) 
J2VwaWtfcHl0aG9uJywgJy1waHQnLCAnMi4wJywgJy1waCcsICc3LjAnLCAnLXRuJywgJzgnLCAnLW1hJywgJzIwMCcsICctaW1hZScsICc8aW5maWxlLm1hZT4nLCAnLW9tYWUnLCAnPG91dGZpbGUubWFlPic=

>  <r_lp_tautomer_probability>  (178) 
1

>  <r_epik_Ionization_Penalty>  (178) 
3.04969e-11

>  <r_epik_Ionization_Penalty_Charging>  (178) 
0

>  <r_epik_Ionization_Penalty_Neutral>  (178) 
3.04969e-11

>  <r_epik_State_Penalty>  (178) 
-0

>  <r_epik_Charging_Adjusted_Penalty>  (178) 
0

>  <i_epik_Tot_Q>  (178) 
0

>  <i_epik_Tot_abs_Q>  (178) 
0

>  <s_lp_Force_Field>  (178) 
OPLS3e

>  <r_lp_Energy>  (178) 
10.8727

>  <b_lp_Chiralities_Consistent>  (178) 
1

>  <s_lp_Variant>  (178) 
53:0-1

>  <s_i_glide_gridfile>  (178) 
pfpi4k_grid

>  <i_i_glide_lignum>  (178) 
2

>  <i_i_glide_rotatable_bonds>  (178) 
0

>  <r_i_docking_score>  (178) 
-2.14512

>  <r_i_glide_ligand_efficiency>  (178) 
-0.102149

>  <r_i_glide_ligand_efficiency_sa>  (178) 
-0.281821

>  <r_i_glide_ligand_efficiency_ln>  (178) 
-0.530378

>  <r_i_glide_gscore>  (178) 
-2.14512

>  <r_i_glide_lipo>  (178) 
-0.483037

>  <r_i_glide_hbond>  (178) 
0

>  <r_i_glide_metal>  (178) 
-0

>  <r_i_glide_rewards>  (178) 
-1.09894

>  <r_i_glide_evdw>  (178) 
-8.90506

>  <r_i_glide_ecoul>  (178) 
-0.785927

>  <r_i_glide_erotb>  (178) 
0

>  <r_i_glide_esite>  (178) 
0

>  <r_i_glide_emodel>  (178) 
-10.6044

>  <r_i_glide_energy>  (178) 
-9.69099

>  <r_i_glide_einternal>  (178) 
0

>  <r_i_glide_intrahb_reward>  (178) 
-0

>  <i_i_glide_confnum>  (178) 
1

>  <i_i_glide_posenum>  (178) 
2

>  <r_i_glide_eff_state_penalty>  (178) 
0

>  <ligand_id>  (178) 
53

>  <original_smiles>  (178) 
CC1=C2C(=COC3CCC4CC(=O)C(Br)CC4(C)C23)CC1

>  <smiles>  (178) 
[H]C1=C2C(=C(C([H])([H])[H])C([H])([H])C2([H])[H])C2([H])C([H])(O1)C([H])([H])C([H])([H])C1([H])C([H])([H])C(=O)C([H])(Br)C([H])([H])C21C([H])([H])[H]

$$$$
55:0:0
     RDKit          3D

 86 93  0  0  1  0  0  0  0  0999 V2000
    3.3085   -6.0440    0.6514 C   0  0  0  0  0  0  0  0  0  0  0  0
    3.1326   -4.9379    1.7058 C   0  0  2  0  0  0  0  0  0  0  0  0
    4.3946   -4.1442    2.1778 C   0  0  0  0  0  0  0  0  0  0  0  0
    5.4197   -4.7057    3.0298 O   0  0  0  0  0  0  0  0  0  0  0  0
    6.3358   -5.6939    2.6095 C   0  0  1  0  0  0  0  0  0  0  0  0
    5.8151   -6.6758    1.7987 O   0  0  0  0  0  0  0  0  0  0  0  0
    6.9444   -7.5254    1.7320 C   0  0  1  0  0  0  0  0  0  0  0  0
    7.9937   -6.5256    1.1909 C   0  0  0  0  0  0  0  0  0  0  0  0
    7.5491   -5.1876    1.7840 C   0  0  1  0  0  0  0  0  0  0  0  0
    7.2516   -4.1347    0.7023 C   0  0  0  0  0  0  0  0  0  0  0  0
    7.1486   -7.8895    3.2271 C   0  0  1  0  0  0  0  0  0  0  0  0
    6.7857   -6.5373    3.8534 C   0  0  1  0  0  0  0  0  0  0  0  0
    7.9013   -5.9182    4.7112 C   0  0  0  0  0  0  0  0  0  0  0  0
    6.3042   -9.0756    3.7788 C   0  0  2  0  0  0  0  0  0  0  0  0
    6.6437   -9.3690    5.2293 C   0  0  0  0  0  0  0  0  0  0  0  0
    6.0924  -10.2777    2.8835 C   0  0  0  0  0  0  0  0  0  0  0  0
    4.9080   -9.3812    3.2270 C   0  0  1  0  0  0  0  0  0  0  0  0
    3.6218  -10.0328    3.8273 C   0  0  2  0  0  0  0  0  0  0  0  0
    3.9798  -11.2878    4.3959 O   0  0  0  0  0  0  0  0  0  0  0  0
    2.7922  -10.4055    2.5524 C   0  0  0  0  0  0  0  0  0  0  0  0
    1.8164   -9.3119    2.1833 C   0  0  0  0  0  0  0  0  0  0  0  0
    1.0722   -8.7455    3.1392 C   0  0  0  0  0  0  0  0  0  0  0  0
    0.1481   -7.5320    2.9990 C   0  0  1  0  0  0  0  0  0  0  0  0
    0.0525   -7.0605    1.6662 O   0  0  0  0  0  0  0  0  0  0  0  0
   -1.2547   -8.0306    3.4456 C   0  0  1  0  0  0  0  0  0  0  0  0
   -1.9014   -9.0512    2.4911 C   0  0  0  0  0  0  0  0  0  0  0  0
   -1.1348   -8.6278    4.7614 O   0  0  0  0  0  0  0  0  0  0  0  0
    0.1332   -8.4425    5.4273 C   0  0  2  0  0  0  0  0  0  0  0  0
    0.3357   -6.9352    5.4067 C   0  0  0  0  0  0  0  0  0  0  0  0
    0.1744   -6.2217    6.3996 O   0  0  0  0  0  0  0  0  0  0  0  0
    0.5759   -6.3895    3.9957 C   0  0  1  0  0  0  0  0  0  0  0  0
    1.9945   -5.7359    3.8528 C   0  0  1  0  0  0  0  0  0  0  0  0
    2.1116   -4.4996    4.7787 C   0  0  0  0  0  0  0  0  0  0  0  0
    3.2168   -6.6777    4.0806 C   0  0  0  0  0  0  0  0  0  0  0  0
    3.3222   -7.7701    5.1861 C   0  0  1  0  0  0  0  0  0  0  0  0
    3.0451   -7.2669    6.4773 O   0  0  0  0  0  0  0  0  0  0  0  0
    2.7417   -9.1981    4.9103 C   0  0  2  0  0  0  0  0  0  0  0  0
    2.9157   -9.8019    6.0969 F   0  0  0  0  0  0  0  0  0  0  0  0
    1.1838   -9.2530    4.5771 C   0  0  2  0  0  0  0  0  0  0  0  0
    0.6708  -10.7236    4.7327 C   0  0  0  0  0  0  0  0  0  0  0  0
    1.9835   -5.1146    2.5561 O   0  0  0  0  0  0  0  0  0  0  0  0
    4.1387   -5.8177   -0.0167 H   0  0  0  0  0  0  0  0  0  0  0  0
    2.4173   -6.1136    0.0256 H   0  0  0  0  0  0  0  0  0  0  0  0
    3.4719   -7.0336    1.0626 H   0  0  0  0  0  0  0  0  0  0  0  0
    2.6871   -4.1724    1.0728 H   0  0  0  0  0  0  0  0  0  0  0  0
    4.8360   -3.7337    1.2770 H   0  0  0  0  0  0  0  0  0  0  0  0
    4.0328   -3.2583    2.7010 H   0  0  0  0  0  0  0  0  0  0  0  0
    6.8265   -8.3663    1.0536 H   0  0  0  0  0  0  0  0  0  0  0  0
    9.0049   -6.7744    1.4906 H   0  0  0  0  0  0  0  0  0  0  0  0
    7.9588   -6.4907    0.0981 H   0  0  0  0  0  0  0  0  0  0  0  0
    8.3214   -4.7907    2.4303 H   0  0  0  0  0  0  0  0  0  0  0  0
    6.4778   -4.4623    0.0089 H   0  0  0  0  0  0  0  0  0  0  0  0
    8.1485   -3.9215    0.1184 H   0  0  0  0  0  0  0  0  0  0  0  0
    6.9544   -3.1937    1.1611 H   0  0  0  0  0  0  0  0  0  0  0  0
    8.1979   -8.1415    3.3977 H   0  0  0  0  0  0  0  0  0  0  0  0
    5.9356   -6.6756    4.5009 H   0  0  0  0  0  0  0  0  0  0  0  0
    8.8678   -5.8819    4.2009 H   0  0  0  0  0  0  0  0  0  0  0  0
    8.0505   -6.5013    5.6174 H   0  0  0  0  0  0  0  0  0  0  0  0
    7.6241   -4.9233    5.0401 H   0  0  0  0  0  0  0  0  0  0  0  0
    6.0300  -10.1945    5.5997 H   0  0  0  0  0  0  0  0  0  0  0  0
    6.4542   -8.5042    5.8673 H   0  0  0  0  0  0  0  0  0  0  0  0
    7.6907   -9.6535    5.3266 H   0  0  0  0  0  0  0  0  0  0  0  0
    6.4376  -10.2544    1.8602 H   0  0  0  0  0  0  0  0  0  0  0  0
    6.1977  -11.2552    3.3502 H   0  0  0  0  0  0  0  0  0  0  0  0
    4.6286   -8.7318    2.4073 H   0  0  0  0  0  0  0  0  0  0  0  0
    3.1976  -11.7148    4.7123 H   0  0  0  0  0  0  0  0  0  0  0  0
    3.4397  -10.5641    1.6920 H   0  0  0  0  0  0  0  0  0  0  0  0
    2.2427  -11.3446    2.6473 H   0  0  0  0  0  0  0  0  0  0  0  0
    1.7943   -8.9984    1.1519 H   0  0  0  0  0  0  0  0  0  0  0  0
   -0.0162   -7.8274    1.1119 H   0  0  0  0  0  0  0  0  0  0  0  0
   -1.9303   -7.1754    3.5280 H   0  0  0  0  0  0  0  0  0  0  0  0
   -2.0672   -8.6268    1.5049 H   0  0  0  0  0  0  0  0  0  0  0  0
   -2.8764   -9.3380    2.8749 H   0  0  0  0  0  0  0  0  0  0  0  0
   -1.3216   -9.9681    2.3699 H   0  0  0  0  0  0  0  0  0  0  0  0
    0.0762   -8.8048    6.4530 H   0  0  0  0  0  0  0  0  0  0  0  0
   -0.1518   -5.5906    3.8792 H   0  0  0  0  0  0  0  0  0  0  0  0
    2.2139   -4.7684    5.8277 H   0  0  0  0  0  0  0  0  0  0  0  0
    1.2425   -3.8455    4.6763 H   0  0  0  0  0  0  0  0  0  0  0  0
    2.9888   -3.9009    4.5352 H   0  0  0  0  0  0  0  0  0  0  0  0
    3.4716   -7.1480    3.1487 H   0  0  0  0  0  0  0  0  0  0  0  0
    4.0155   -5.9880    4.3126 H   0  0  0  0  0  0  0  0  0  0  0  0
    4.3821   -7.9541    5.2982 H   0  0  0  0  0  0  0  0  0  0  0  0
    3.2621   -7.9452    7.1001 H   0  0  0  0  0  0  0  0  0  0  0  0
    0.3208  -10.9139    5.7467 H   0  0  0  0  0  0  0  0  0  0  0  0
    1.4062  -11.5034    4.5627 H   0  0  0  0  0  0  0  0  0  0  0  0
   -0.1778  -10.9243    4.0811 H   0  0  0  0  0  0  0  0  0  0  0  0
  1  2  1  0
  1 42  1  0
  1 43  1  0
  1 44  1  0
  2 41  1  0
  2  3  1  0
  2 45  1  6
  3  4  1  0
  3 46  1  0
  3 47  1  0
  5  4  1  1
  5  9  1  0
  5 12  1  0
  5  6  1  0
  6  7  1  0
  7  8  1  0
  7 11  1  0
  7 48  1  6
  8  9  1  0
  8 49  1  0
  8 50  1  0
  9 10  1  0
  9 51  1  1
 10 52  1  0
 10 53  1  0
 10 54  1  0
 11 12  1  0
 11 14  1  0
 11 55  1  6
 12 13  1  0
 12 56  1  1
 13 57  1  0
 13 58  1  0
 13 59  1  0
 14 17  1  0
 14 15  1  1
 14 16  1  0
 15 60  1  0
 15 61  1  0
 15 62  1  0
 16 17  1  0
 16 63  1  0
 16 64  1  0
 17 18  1  0
 17 65  1  6
 18 37  1  0
 18 19  1  1
 18 20  1  0
 19 66  1  0
 20 21  1  0
 20 67  1  0
 20 68  1  0
 21 22  2  0
 21 69  1  0
 22 39  1  0
 22 23  1  0
 23 31  1  0
 23 24  1  6
 23 25  1  0
 24 70  1  0
 25 26  1  0
 25 27  1  0
 25 71  1  1
 26 72  1  0
 26 73  1  0
 26 74  1  0
 27 28  1  0
 28 39  1  0
 28 29  1  0
 28 75  1  1
 29 30  2  0
 29 31  1  0
 31 32  1  0
 31 76  1  6
 32 33  1  1
 32 34  1  0
 32 41  1  0
 33 77  1  0
 33 78  1  0
 33 79  1  0
 34 35  1  0
 34 80  1  0
 34 81  1  0
 35 36  1  0
 35 37  1  0
 35 82  1  1
 36 83  1  0
 37 38  1  1
 37 39  1  0
 39 40  1  6
 40 84  1  0
 40 85  1  0
 40 86  1  0
M  END
>  <i_m_ct_stereo_status>  (179) 
1

>  <s_m_source_file>  (179) 
/var/tmp/pbs.5076255.sched01/tmp7qb2j_xu/82up84z1qn.sdf

>  <i_m_source_file_index>  (179) 
4

>  <i_lp_mmshare_version>  (179) 
48012

>  <i_f3d_flags>  (179) 
0

>  <s_epik_input>  (179) 
W0NAXTEyM09bQ0gyXVtDQEBIXShbQ0gzXSlPW0NAQF00KFtDSDNdKVtDQEhdNVtDQEBdNihbT0hdKUM3W0NAXShbQ0gzXSkoW0NAQEhdKEM1PU8pT1tDQEBIXTZbQ0gzXSlbQ0BdKEYpKFtDQEBIXShbQ0gyXTQpW09IXSlbQ0BAXShbT0hdKShbQ0gyXVtDSF09NylbQ0BIXThbQ0BAXShbQ0gzXSkoW0NIMl04KVtDQEhdKFtDQEhdM1tDSDNdKVtDQEBIXShPMSlbQ0gyXVtDQEhdMltDSDNd

>  <s_epik_cmdline>  (179) 
J2VwaWtfcHl0aG9uJywgJy1waHQnLCAnMi4wJywgJy1waCcsICc3LjAnLCAnLXRuJywgJzgnLCAnLW1hJywgJzIwMCcsICctaW1hZScsICc8aW5maWxlLm1hZT4nLCAnLW9tYWUnLCAnPG91dGZpbGUubWFlPic=

>  <r_lp_tautomer_probability>  (179) 
1

>  <r_epik_Ionization_Penalty>  (179) 
2.09712e-06

>  <r_epik_Ionization_Penalty_Charging>  (179) 
0

>  <r_epik_Ionization_Penalty_Neutral>  (179) 
2.09712e-06

>  <r_epik_State_Penalty>  (179) 
-0

>  <r_epik_Charging_Adjusted_Penalty>  (179) 
0

>  <i_epik_Tot_Q>  (179) 
0

>  <i_epik_Tot_abs_Q>  (179) 
0

>  <s_lp_Force_Field>  (179) 
OPLS3e

>  <r_lp_Energy>  (179) 
120.345

>  <b_lp_Chiralities_Consistent>  (179) 
1

>  <s_lp_Variant>  (179) 
55:0-1

>  <s_i_glide_gridfile>  (179) 
pfpi4k_grid

>  <i_i_glide_lignum>  (179) 
4

>  <i_i_glide_rotatable_bonds>  (179) 
3

>  <r_i_docking_score>  (179) 
-3.09032

>  <r_i_glide_ligand_efficiency>  (179) 
-0.0753736

>  <r_i_glide_ligand_efficiency_sa>  (179) 
-0.259904

>  <r_i_glide_ligand_efficiency_ln>  (179) 
-0.655621

>  <r_i_glide_gscore>  (179) 
-3.09032

>  <r_i_glide_lipo>  (179) 
-0.656637

>  <r_i_glide_hbond>  (179) 
0

>  <r_i_glide_metal>  (179) 
-0

>  <r_i_glide_rewards>  (179) 
-0.0310345

>  <r_i_glide_evdw>  (179) 
-35.1403

>  <r_i_glide_ecoul>  (179) 
-3.88551

>  <r_i_glide_erotb>  (179) 
0

>  <r_i_glide_esite>  (179) 
-0.0628006

>  <r_i_glide_emodel>  (179) 
-46.2447

>  <r_i_glide_energy>  (179) 
-39.0259

>  <r_i_glide_einternal>  (179) 
0.525596

>  <r_i_glide_intrahb_reward>  (179) 
-0

>  <i_i_glide_confnum>  (179) 
2

>  <i_i_glide_posenum>  (179) 
36

>  <r_i_glide_eff_state_penalty>  (179) 
0

>  <ligand_id>  (179) 
55

>  <original_smiles>  (179) 
CC1COC23OC(CC2C)C(C3C)C2(C)CC2C2(O)CC=C3C4(O)C(C)OC5C(=O)C4C(C)(CC(O)C2(F)C35C)O1

>  <smiles>  (179) 
[H]OC1([H])C([H])([H])C2(C([H])([H])[H])OC([H])(C([H])([H])[H])C([H])([H])OC34OC([H])(C([H])([H])C3([H])C([H])([H])[H])C([H])(C4([H])C([H])([H])[H])C3(C([H])([H])[H])C([H])([H])C3([H])C3(O[H])C([H])([H])C([H])=C4C5(O[H])C([H])(C([H])([H])[H])OC([H])(C(=O)C52[H])C4(C([H])([H])[H])C13F

$$$$
55:0:1
     RDKit          3D

 86 93  0  0  1  0  0  0  0  0999 V2000
    3.4827   -5.6362    0.8278 C   0  0  0  0  0  0  0  0  0  0  0  0
    3.4385   -4.6296    1.9935 C   0  0  2  0  0  0  0  0  0  0  0  0
    4.7730   -3.9396    2.4332 C   0  0  0  0  0  0  0  0  0  0  0  0
    5.8172   -4.6310    3.1452 O   0  0  0  0  0  0  0  0  0  0  0  0
    6.6663   -5.5976    2.5581 C   0  0  1  0  0  0  0  0  0  0  0  0
    6.0458   -6.4838    1.7104 O   0  0  0  0  0  0  0  0  0  0  0  0
    7.1377   -7.3524    1.4867 C   0  0  1  0  0  0  0  0  0  0  0  0
    8.1666   -6.3421    0.9365 C   0  0  0  0  0  0  0  0  0  0  0  0
    7.8352   -5.0550    1.6818 C   0  0  1  0  0  0  0  0  0  0  0  0
    7.5041   -3.8906    0.7313 C   0  0  0  0  0  0  0  0  0  0  0  0
    7.4377   -7.8643    2.9122 C   0  0  1  0  0  0  0  0  0  0  0  0
    7.1810   -6.5625    3.6819 C   0  0  1  0  0  0  0  0  0  0  0  0
    8.3941   -6.0640    4.4835 C   0  0  0  0  0  0  0  0  0  0  0  0
    6.5806   -9.0704    3.4056 C   0  0  2  0  0  0  0  0  0  0  0  0
    7.0167   -9.5233    4.7879 C   0  0  0  0  0  0  0  0  0  0  0  0
    6.2434  -10.1711    2.4150 C   0  0  0  0  0  0  0  0  0  0  0  0
    5.1331   -9.2674    2.9402 C   0  0  1  0  0  0  0  0  0  0  0  0
    3.8644   -9.9156    3.5806 C   0  0  2  0  0  0  0  0  0  0  0  0
    4.1834  -11.2414    3.9810 O   0  0  0  0  0  0  0  0  0  0  0  0
    2.9229  -10.1275    2.3488 C   0  0  0  0  0  0  0  0  0  0  0  0
    1.9626   -8.9762    2.1707 C   0  0  0  0  0  0  0  0  0  0  0  0
    1.3264   -8.4791    3.2395 C   0  0  0  0  0  0  0  0  0  0  0  0
    0.4506   -7.2257    3.2898 C   0  0  1  0  0  0  0  0  0  0  0  0
    0.2649   -6.6345    2.0135 O   0  0  0  0  0  0  0  0  0  0  0  0
   -0.9322   -7.7127    3.8078 C   0  0  1  0  0  0  0  0  0  0  0  0
   -1.7188   -8.5962    2.8246 C   0  0  0  0  0  0  0  0  0  0  0  0
   -0.7353   -8.4495    5.0409 O   0  0  0  0  0  0  0  0  0  0  0  0
    0.5872   -8.3674    5.6171 C   0  0  2  0  0  0  0  0  0  0  0  0
    0.8591   -6.8726    5.7207 C   0  0  0  0  0  0  0  0  0  0  0  0
    0.8248   -6.2579    6.7873 O   0  0  0  0  0  0  0  0  0  0  0  0
    1.0108   -6.2014    4.3499 C   0  0  1  0  0  0  0  0  0  0  0  0
    2.4457   -5.5926    4.1528 C   0  0  1  0  0  0  0  0  0  0  0  0
    2.6976   -4.4563    5.1779 C   0  0  0  0  0  0  0  0  0  0  0  0
    3.6372   -6.5989    4.1864 C   0  0  0  0  0  0  0  0  0  0  0  0
    3.7814   -7.7949    5.1709 C   0  0  1  0  0  0  0  0  0  0  0  0
    3.6344   -7.4079    6.5224 O   0  0  0  0  0  0  0  0  0  0  0  0
    3.1128   -9.1632    4.8124 C   0  0  2  0  0  0  0  0  0  0  0  0
    3.3562   -9.8804    5.9207 F   0  0  0  0  0  0  0  0  0  0  0  0
    1.5318   -9.1285    4.6094 C   0  0  2  0  0  0  0  0  0  0  0  0
    0.9686  -10.5891    4.6676 C   0  0  0  0  0  0  0  0  0  0  0  0
    2.3582   -4.8531    2.9215 O   0  0  0  0  0  0  0  0  0  0  0  0
    4.2741   -5.3779    0.1249 H   0  0  0  0  0  0  0  0  0  0  0  0
    2.5483   -5.6128    0.2654 H   0  0  0  0  0  0  0  0  0  0  0  0
    3.6341   -6.6654    1.1337 H   0  0  0  0  0  0  0  0  0  0  0  0
    2.9805   -3.7855    1.4795 H   0  0  0  0  0  0  0  0  0  0  0  0
    5.1684   -3.4544    1.5474 H   0  0  0  0  0  0  0  0  0  0  0  0
    4.5004   -3.0970    3.0703 H   0  0  0  0  0  0  0  0  0  0  0  0
    6.9341   -8.1481    0.7877 H   0  0  0  0  0  0  0  0  0  0  0  0
    9.1861   -6.6572    1.1079 H   0  0  0  0  0  0  0  0  0  0  0  0
    8.0480   -6.2104   -0.1374 H   0  0  0  0  0  0  0  0  0  0  0  0
    8.6643   -4.7382    2.3066 H   0  0  0  0  0  0  0  0  0  0  0  0
    6.6649   -4.1211    0.0742 H   0  0  0  0  0  0  0  0  0  0  0  0
    8.3637   -3.6548    0.0993 H   0  0  0  0  0  0  0  0  0  0  0  0
    7.2846   -2.9821    1.2916 H   0  0  0  0  0  0  0  0  0  0  0  0
    8.4870   -8.1699    2.9600 H   0  0  0  0  0  0  0  0  0  0  0  0
    6.3819   -6.7336    4.3853 H   0  0  0  0  0  0  0  0  0  0  0  0
    9.3168   -6.0511    3.8978 H   0  0  0  0  0  0  0  0  0  0  0  0
    8.5798   -6.7236    5.3304 H   0  0  0  0  0  0  0  0  0  0  0  0
    8.2229   -5.0640    4.8802 H   0  0  0  0  0  0  0  0  0  0  0  0
    6.3964  -10.3554    5.1262 H   0  0  0  0  0  0  0  0  0  0  0  0
    6.9192   -8.7177    5.5158 H   0  0  0  0  0  0  0  0  0  0  0  0
    8.0547   -9.8543    4.7717 H   0  0  0  0  0  0  0  0  0  0  0  0
    6.5082  -10.0689    1.3711 H   0  0  0  0  0  0  0  0  0  0  0  0
    6.3446  -11.1916    2.7749 H   0  0  0  0  0  0  0  0  0  0  0  0
    4.8245   -8.5254    2.2155 H   0  0  0  0  0  0  0  0  0  0  0  0
    4.3595  -11.7514    3.2073 H   0  0  0  0  0  0  0  0  0  0  0  0
    3.4867  -10.2324    1.4220 H   0  0  0  0  0  0  0  0  0  0  0  0
    2.3433  -11.0480    2.4098 H   0  0  0  0  0  0  0  0  0  0  0  0
    1.8586   -8.5618    1.1821 H   0  0  0  0  0  0  0  0  0  0  0  0
    0.2215   -7.3450    1.3899 H   0  0  0  0  0  0  0  0  0  0  0  0
   -1.5533   -6.8435    4.0313 H   0  0  0  0  0  0  0  0  0  0  0  0
   -1.9496   -8.0655    1.9011 H   0  0  0  0  0  0  0  0  0  0  0  0
   -2.6590   -8.8782    3.2883 H   0  0  0  0  0  0  0  0  0  0  0  0
   -1.2003   -9.5201    2.5608 H   0  0  0  0  0  0  0  0  0  0  0  0
    0.5976   -8.8257    6.6056 H   0  0  0  0  0  0  0  0  0  0  0  0
    0.3158   -5.3650    4.3665 H   0  0  0  0  0  0  0  0  0  0  0  0
    2.8716   -4.8284    6.1858 H   0  0  0  0  0  0  0  0  0  0  0  0
    1.8553   -3.7621    5.2138 H   0  0  0  0  0  0  0  0  0  0  0  0
    3.5786   -3.8694    4.9205 H   0  0  0  0  0  0  0  0  0  0  0  0
    3.7991   -6.9794    3.1947 H   0  0  0  0  0  0  0  0  0  0  0  0
    4.4823   -5.9696    4.4214 H   0  0  0  0  0  0  0  0  0  0  0  0
    4.8371   -8.0297    5.1756 H   0  0  0  0  0  0  0  0  0  0  0  0
    3.8556   -8.1543    7.0593 H   0  0  0  0  0  0  0  0  0  0  0  0
    0.6961  -10.8709    5.6832 H   0  0  0  0  0  0  0  0  0  0  0  0
    1.6524  -11.3717    4.3562 H   0  0  0  0  0  0  0  0  0  0  0  0
    0.0626  -10.6969    4.0722 H   0  0  0  0  0  0  0  0  0  0  0  0
  1  2  1  0
  1 42  1  0
  1 43  1  0
  1 44  1  0
  2 41  1  0
  2  3  1  0
  2 45  1  6
  3  4  1  0
  3 46  1  0
  3 47  1  0
  5  4  1  1
  5  9  1  0
  5 12  1  0
  5  6  1  0
  6  7  1  0
  7  8  1  0
  7 11  1  0
  7 48  1  6
  8  9  1  0
  8 49  1  0
  8 50  1  0
  9 10  1  0
  9 51  1  1
 10 52  1  0
 10 53  1  0
 10 54  1  0
 11 12  1  0
 11 14  1  0
 11 55  1  6
 12 13  1  0
 12 56  1  1
 13 57  1  0
 13 58  1  0
 13 59  1  0
 14 17  1  0
 14 15  1  1
 14 16  1  0
 15 60  1  0
 15 61  1  0
 15 62  1  0
 16 17  1  0
 16 63  1  0
 16 64  1  0
 17 18  1  0
 17 65  1  6
 18 37  1  0
 18 19  1  1
 18 20  1  0
 19 66  1  0
 20 21  1  0
 20 67  1  0
 20 68  1  0
 21 22  2  0
 21 69  1  0
 22 39  1  0
 22 23  1  0
 23 31  1  0
 23 24  1  6
 23 25  1  0
 24 70  1  0
 25 26  1  0
 25 27  1  0
 25 71  1  1
 26 72  1  0
 26 73  1  0
 26 74  1  0
 27 28  1  0
 28 39  1  0
 28 29  1  0
 28 75  1  1
 29 30  2  0
 29 31  1  0
 31 32  1  0
 31 76  1  1
 32 33  1  1
 32 34  1  0
 32 41  1  0
 33 77  1  0
 33 78  1  0
 33 79  1  0
 34 35  1  0
 34 80  1  0
 34 81  1  0
 35 36  1  0
 35 37  1  0
 35 82  1  1
 36 83  1  0
 37 38  1  1
 37 39  1  0
 39 40  1  6
 40 84  1  0
 40 85  1  0
 40 86  1  0
M  END
>  <i_m_ct_stereo_status>  (180) 
1

>  <s_m_source_file>  (180) 
/var/tmp/pbs.5076255.sched01/tmp7qb2j_xu/82up84z1qn.sdf

>  <i_m_source_file_index>  (180) 
4

>  <i_lp_mmshare_version>  (180) 
48012

>  <i_f3d_flags>  (180) 
0

>  <s_epik_input>  (180) 
W0NAXTEyM09bQ0gyXVtDQEBIXShbQ0gzXSlPW0NAQF00KFtDSDNdKVtDQEhdNVtDQEBdNihbT0hdKUM3W0NAXShbQ0gzXSkoW0NAQEhdKEM1PU8pT1tDQEBIXTZbQ0gzXSlbQ0BdKEYpKFtDQEBIXShbQ0gyXTQpW09IXSlbQ0BAXShbT0hdKShbQ0gyXVtDSF09NylbQ0BIXThbQ0BAXShbQ0gzXSkoW0NIMl04KVtDQEhdKFtDQEhdM1tDSDNdKVtDQEBIXShPMSlbQ0gyXVtDQEhdMltDSDNd

>  <s_epik_cmdline>  (180) 
J2VwaWtfcHl0aG9uJywgJy1waHQnLCAnMi4wJywgJy1waCcsICc3LjAnLCAnLXRuJywgJzgnLCAnLW1hJywgJzIwMCcsICctaW1hZScsICc8aW5maWxlLm1hZT4nLCAnLW9tYWUnLCAnPG91dGZpbGUubWFlPic=

>  <r_lp_tautomer_probability>  (180) 
1

>  <r_epik_Ionization_Penalty>  (180) 
2.09712e-06

>  <r_epik_Ionization_Penalty_Charging>  (180) 
0

>  <r_epik_Ionization_Penalty_Neutral>  (180) 
2.09712e-06

>  <r_epik_State_Penalty>  (180) 
-0

>  <r_epik_Charging_Adjusted_Penalty>  (180) 
0

>  <i_epik_Tot_Q>  (180) 
0

>  <i_epik_Tot_abs_Q>  (180) 
0

>  <s_lp_Force_Field>  (180) 
OPLS3e

>  <r_lp_Energy>  (180) 
120.345

>  <b_lp_Chiralities_Consistent>  (180) 
1

>  <s_lp_Variant>  (180) 
55:0-1

>  <s_i_glide_gridfile>  (180) 
pfpi4k_grid

>  <i_i_glide_lignum>  (180) 
4

>  <i_i_glide_rotatable_bonds>  (180) 
3

>  <r_i_docking_score>  (180) 
-2.7015

>  <r_i_glide_ligand_efficiency>  (180) 
-0.0658901

>  <r_i_glide_ligand_efficiency_sa>  (180) 
-0.227204

>  <r_i_glide_ligand_efficiency_ln>  (180) 
-0.573131

>  <r_i_glide_gscore>  (180) 
-2.7015

>  <r_i_glide_lipo>  (180) 
-0.401947

>  <r_i_glide_hbond>  (180) 
0

>  <r_i_glide_metal>  (180) 
-0

>  <r_i_glide_rewards>  (180) 
-0.0346932

>  <r_i_glide_evdw>  (180) 
-34.5694

>  <r_i_glide_ecoul>  (180) 
-3.30207

>  <r_i_glide_erotb>  (180) 
0

>  <r_i_glide_esite>  (180) 
-0.0410755

>  <r_i_glide_emodel>  (180) 
-43.8958

>  <r_i_glide_energy>  (180) 
-37.8715

>  <r_i_glide_einternal>  (180) 
0.883195

>  <r_i_glide_intrahb_reward>  (180) 
-0

>  <i_i_glide_confnum>  (180) 
2

>  <i_i_glide_posenum>  (180) 
20

>  <r_i_glide_eff_state_penalty>  (180) 
0

>  <ligand_id>  (180) 
55

>  <original_smiles>  (180) 
CC1COC23OC(CC2C)C(C3C)C2(C)CC2C2(O)CC=C3C4(O)C(C)OC5C(=O)C4C(C)(CC(O)C2(F)C35C)O1

>  <smiles>  (180) 
[H]OC1([H])C([H])([H])C2(C([H])([H])[H])OC([H])(C([H])([H])[H])C([H])([H])OC34OC([H])(C([H])([H])C3([H])C([H])([H])[H])C([H])(C4([H])C([H])([H])[H])C3(C([H])([H])[H])C([H])([H])C3([H])C3(O[H])C([H])([H])C([H])=C4C5(O[H])C([H])(C([H])([H])[H])OC([H])(C(=O)C52[H])C4(C([H])([H])[H])C13F

$$$$
55:0:2
     RDKit          3D

 86 93  0  0  1  0  0  0  0  0999 V2000
    1.9236    1.5201    2.5139 C   0  0  0  0  0  0  0  0  0  0  0  0
    0.4596    1.4902    2.9870 C   0  0  2  0  0  0  0  0  0  0  0  0
   -0.1516    2.7875    3.6222 C   0  0  0  0  0  0  0  0  0  0  0  0
    0.1900    3.2763    4.9390 O   0  0  0  0  0  0  0  0  0  0  0  0
    1.4417    3.8463    5.2620 C   0  0  1  0  0  0  0  0  0  0  0  0
    2.5358    3.2356    4.6943 O   0  0  0  0  0  0  0  0  0  0  0  0
    3.5577    3.9551    5.3584 C   0  0  1  0  0  0  0  0  0  0  0  0
    3.1692    5.3989    4.9690 C   0  0  0  0  0  0  0  0  0  0  0  0
    1.6390    5.3343    4.8643 C   0  0  1  0  0  0  0  0  0  0  0  0
    1.1425    5.7349    3.4655 C   0  0  0  0  0  0  0  0  0  0  0  0
    3.2596    3.6101    6.8434 C   0  0  1  0  0  0  0  0  0  0  0  0
    1.7249    3.6226    6.7853 C   0  0  1  0  0  0  0  0  0  0  0  0
    1.0567    4.6413    7.7268 C   0  0  0  0  0  0  0  0  0  0  0  0
    3.8565    2.2737    7.3845 C   0  0  2  0  0  0  0  0  0  0  0  0
    3.5548    2.0964    8.8629 C   0  0  0  0  0  0  0  0  0  0  0  0
    5.2473    1.8799    6.9347 C   0  0  0  0  0  0  0  0  0  0  0  0
    4.0482    1.0592    6.4698 C   0  0  1  0  0  0  0  0  0  0  0  0
    4.0602   -0.4844    6.7051 C   0  0  2  0  0  0  0  0  0  0  0  0
    4.9858   -0.7702    7.7442 O   0  0  0  0  0  0  0  0  0  0  0  0
    4.7674   -1.0301    5.4164 C   0  0  0  0  0  0  0  0  0  0  0  0
    3.7555   -1.4190    4.3673 C   0  0  0  0  0  0  0  0  0  0  0  0
    2.6683   -2.1235    4.7225 C   0  0  0  0  0  0  0  0  0  0  0  0
    1.4759   -2.4634    3.8394 C   0  0  1  0  0  0  0  0  0  0  0  0
    1.6446   -1.9943    2.5196 O   0  0  0  0  0  0  0  0  0  0  0  0
    1.3822   -4.0203    3.8440 C   0  0  1  0  0  0  0  0  0  0  0  0
    2.5045   -4.7571    3.0902 C   0  0  0  0  0  0  0  0  0  0  0  0
    1.3510   -4.4763    5.2229 O   0  0  0  0  0  0  0  0  0  0  0  0
    1.1696   -3.4418    6.2190 C   0  0  2  0  0  0  0  0  0  0  0  0
   -0.0808   -2.6954    5.7776 C   0  0  0  0  0  0  0  0  0  0  0  0
   -1.1658   -2.7931    6.3549 O   0  0  0  0  0  0  0  0  0  0  0  0
    0.1365   -1.9170    4.4736 C   0  0  1  0  0  0  0  0  0  0  0  0
   -0.0542   -0.3734    4.6758 C   0  0  1  0  0  0  0  0  0  0  0  0
   -1.5128   -0.0474    5.0972 C   0  0  0  0  0  0  0  0  0  0  0  0
    0.9367    0.3185    5.6597 C   0  0  0  0  0  0  0  0  0  0  0  0
    1.4193   -0.2772    7.0156 C   0  0  1  0  0  0  0  0  0  0  0  0
    0.3468   -0.6580    7.8596 O   0  0  0  0  0  0  0  0  0  0  0  0
    2.6556   -1.2465    7.0286 C   0  0  2  0  0  0  0  0  0  0  0  0
    2.7085   -1.6246    8.3147 F   0  0  0  0  0  0  0  0  0  0  0  0
    2.4923   -2.5794    6.1691 C   0  0  2  0  0  0  0  0  0  0  0  0
    3.5784   -3.6213    6.5929 C   0  0  0  0  0  0  0  0  0  0  0  0
    0.0075    0.1676    3.3447 O   0  0  0  0  0  0  0  0  0  0  0  0
    2.2029    2.5239    2.1949 H   0  0  0  0  0  0  0  0  0  0  0  0
    2.0621    0.8689    1.6497 H   0  0  0  0  0  0  0  0  0  0  0  0
    2.6377    1.1996    3.2661 H   0  0  0  0  0  0  0  0  0  0  0  0
   -0.0362    1.5365    2.0170 H   0  0  0  0  0  0  0  0  0  0  0  0
   -0.0126    3.5697    2.8865 H   0  0  0  0  0  0  0  0  0  0  0  0
   -1.2336    2.6550    3.6339 H   0  0  0  0  0  0  0  0  0  0  0  0
    4.5571    3.7138    5.0036 H   0  0  0  0  0  0  0  0  0  0  0  0
    3.5186    6.1435    5.6860 H   0  0  0  0  0  0  0  0  0  0  0  0
    3.6035    5.6480    3.9999 H   0  0  0  0  0  0  0  0  0  0  0  0
    1.1535    5.9918    5.5780 H   0  0  0  0  0  0  0  0  0  0  0  0
    1.5564    5.1046    2.6761 H   0  0  0  0  0  0  0  0  0  0  0  0
    1.4272    6.7630    3.2402 H   0  0  0  0  0  0  0  0  0  0  0  0
    0.0553    5.6980    3.4122 H   0  0  0  0  0  0  0  0  0  0  0  0
    3.6460    4.4107    7.4791 H   0  0  0  0  0  0  0  0  0  0  0  0
    1.3647    2.6461    7.0647 H   0  0  0  0  0  0  0  0  0  0  0  0
    1.5063    5.6345    7.6684 H   0  0  0  0  0  0  0  0  0  0  0  0
    1.1681    4.3182    8.7614 H   0  0  0  0  0  0  0  0  0  0  0  0
   -0.0090    4.7289    7.5209 H   0  0  0  0  0  0  0  0  0  0  0  0
    3.9678    1.1507    9.2204 H   0  0  0  0  0  0  0  0  0  0  0  0
    2.4821    2.0817    9.0501 H   0  0  0  0  0  0  0  0  0  0  0  0
    4.0001    2.9003    9.4476 H   0  0  0  0  0  0  0  0  0  0  0  0
    5.7580    2.4662    6.1813 H   0  0  0  0  0  0  0  0  0  0  0  0
    5.9147    1.4974    7.7034 H   0  0  0  0  0  0  0  0  0  0  0  0
    3.7786    1.2639    5.4424 H   0  0  0  0  0  0  0  0  0  0  0  0
    5.0375   -1.7059    7.8533 H   0  0  0  0  0  0  0  0  0  0  0  0
    5.4383   -0.2871    4.9842 H   0  0  0  0  0  0  0  0  0  0  0  0
    5.4106   -1.8930    5.5982 H   0  0  0  0  0  0  0  0  0  0  0  0
    3.9137   -1.0757    3.3581 H   0  0  0  0  0  0  0  0  0  0  0  0
    1.5031   -1.0562    2.5272 H   0  0  0  0  0  0  0  0  0  0  0  0
    0.4459   -4.3168    3.3742 H   0  0  0  0  0  0  0  0  0  0  0  0
    2.5185   -4.4799    2.0342 H   0  0  0  0  0  0  0  0  0  0  0  0
    2.3483   -5.8361    3.1402 H   0  0  0  0  0  0  0  0  0  0  0  0
    3.4913   -4.5428    3.5024 H   0  0  0  0  0  0  0  0  0  0  0  0
    1.0167   -3.8894    7.2009 H   0  0  0  0  0  0  0  0  0  0  0  0
   -0.6681   -2.2414    3.8186 H   0  0  0  0  0  0  0  0  0  0  0  0
   -1.7185   -0.3214    6.1300 H   0  0  0  0  0  0  0  0  0  0  0  0
   -2.2385   -0.5619    4.4631 H   0  0  0  0  0  0  0  0  0  0  0  0
   -1.7277    1.0176    5.0231 H   0  0  0  0  0  0  0  0  0  0  0  0
    1.8123    0.6150    5.1106 H   0  0  0  0  0  0  0  0  0  0  0  0
    0.4207    1.2261    5.9350 H   0  0  0  0  0  0  0  0  0  0  0  0
    1.7725    0.5785    7.5719 H   0  0  0  0  0  0  0  0  0  0  0  0
    0.6868   -0.6984    8.7429 H   0  0  0  0  0  0  0  0  0  0  0  0
    3.2195   -4.2580    7.4003 H   0  0  0  0  0  0  0  0  0  0  0  0
    4.5021   -3.1991    6.9704 H   0  0  0  0  0  0  0  0  0  0  0  0
    3.8435   -4.2829    5.7702 H   0  0  0  0  0  0  0  0  0  0  0  0
  1  2  1  0
  1 42  1  0
  1 43  1  0
  1 44  1  0
  2 41  1  0
  2  3  1  0
  2 45  1  6
  3  4  1  0
  3 46  1  0
  3 47  1  0
  5  4  1  6
  5  9  1  0
  5 12  1  0
  5  6  1  0
  6  7  1  0
  7  8  1  0
  7 11  1  0
  7 48  1  6
  8  9  1  0
  8 49  1  0
  8 50  1  0
  9 10  1  0
  9 51  1  1
 10 52  1  0
 10 53  1  0
 10 54  1  0
 11 12  1  0
 11 14  1  0
 11 55  1  1
 12 13  1  0
 12 56  1  1
 13 57  1  0
 13 58  1  0
 13 59  1  0
 14 17  1  0
 14 15  1  1
 14 16  1  0
 15 60  1  0
 15 61  1  0
 15 62  1  0
 16 17  1  0
 16 63  1  0
 16 64  1  0
 17 18  1  0
 17 65  1  6
 18 37  1  0
 18 19  1  1
 18 20  1  0
 19 66  1  0
 20 21  1  0
 20 67  1  0
 20 68  1  0
 21 22  2  0
 21 69  1  0
 22 39  1  0
 22 23  1  0
 23 31  1  0
 23 24  1  6
 23 25  1  0
 24 70  1  0
 25 26  1  0
 25 27  1  0
 25 71  1  6
 26 72  1  0
 26 73  1  0
 26 74  1  0
 27 28  1  0
 28 39  1  0
 28 29  1  0
 28 75  1  1
 29 30  2  0
 29 31  1  0
 31 32  1  0
 31 76  1  6
 32 33  1  1
 32 34  1  0
 32 41  1  0
 33 77  1  0
 33 78  1  0
 33 79  1  0
 34 35  1  0
 34 80  1  0
 34 81  1  0
 35 36  1  0
 35 37  1  0
 35 82  1  1
 36 83  1  0
 37 38  1  1
 37 39  1  0
 39 40  1  1
 40 84  1  0
 40 85  1  0
 40 86  1  0
M  END
>  <i_m_ct_stereo_status>  (181) 
1

>  <s_m_source_file>  (181) 
/var/tmp/pbs.5076255.sched01/tmp7qb2j_xu/82up84z1qn.sdf

>  <i_m_source_file_index>  (181) 
4

>  <i_lp_mmshare_version>  (181) 
48012

>  <i_f3d_flags>  (181) 
0

>  <s_epik_input>  (181) 
W0NAXTEyM09bQ0gyXVtDQEBIXShbQ0gzXSlPW0NAQF00KFtDSDNdKVtDQEhdNVtDQEBdNihbT0hdKUM3W0NAXShbQ0gzXSkoW0NAQEhdKEM1PU8pT1tDQEBIXTZbQ0gzXSlbQ0BdKEYpKFtDQEBIXShbQ0gyXTQpW09IXSlbQ0BAXShbT0hdKShbQ0gyXVtDSF09NylbQ0BIXThbQ0BAXShbQ0gzXSkoW0NIMl04KVtDQEhdKFtDQEhdM1tDSDNdKVtDQEBIXShPMSlbQ0gyXVtDQEhdMltDSDNd

>  <s_epik_cmdline>  (181) 
J2VwaWtfcHl0aG9uJywgJy1waHQnLCAnMi4wJywgJy1waCcsICc3LjAnLCAnLXRuJywgJzgnLCAnLW1hJywgJzIwMCcsICctaW1hZScsICc8aW5maWxlLm1hZT4nLCAnLW9tYWUnLCAnPG91dGZpbGUubWFlPic=

>  <r_lp_tautomer_probability>  (181) 
1

>  <r_epik_Ionization_Penalty>  (181) 
2.09712e-06

>  <r_epik_Ionization_Penalty_Charging>  (181) 
0

>  <r_epik_Ionization_Penalty_Neutral>  (181) 
2.09712e-06

>  <r_epik_State_Penalty>  (181) 
-0

>  <r_epik_Charging_Adjusted_Penalty>  (181) 
0

>  <i_epik_Tot_Q>  (181) 
0

>  <i_epik_Tot_abs_Q>  (181) 
0

>  <s_lp_Force_Field>  (181) 
OPLS3e

>  <r_lp_Energy>  (181) 
120.345

>  <b_lp_Chiralities_Consistent>  (181) 
1

>  <s_lp_Variant>  (181) 
55:0-1

>  <s_i_glide_gridfile>  (181) 
pfpi4k_grid

>  <i_i_glide_lignum>  (181) 
4

>  <i_i_glide_rotatable_bonds>  (181) 
3

>  <r_i_docking_score>  (181) 
-2.38965

>  <r_i_glide_ligand_efficiency>  (181) 
-0.0582842

>  <r_i_glide_ligand_efficiency_sa>  (181) 
-0.200977

>  <r_i_glide_ligand_efficiency_ln>  (181) 
-0.506973

>  <r_i_glide_gscore>  (181) 
-2.38965

>  <r_i_glide_lipo>  (181) 
-0.107881

>  <r_i_glide_hbond>  (181) 
0

>  <r_i_glide_metal>  (181) 
-0

>  <r_i_glide_rewards>  (181) 
-0.5

>  <r_i_glide_evdw>  (181) 
-27.5782

>  <r_i_glide_ecoul>  (181) 
-2.55515

>  <r_i_glide_erotb>  (181) 
0

>  <r_i_glide_esite>  (181) 
-0.0195901

>  <r_i_glide_emodel>  (181) 
-40.6858

>  <r_i_glide_energy>  (181) 
-30.1333

>  <r_i_glide_einternal>  (181) 
0.39175

>  <r_i_glide_intrahb_reward>  (181) 
-0.5

>  <i_i_glide_confnum>  (181) 
1

>  <i_i_glide_posenum>  (181) 
25

>  <r_i_glide_eff_state_penalty>  (181) 
0

>  <ligand_id>  (181) 
55

>  <original_smiles>  (181) 
CC1COC23OC(CC2C)C(C3C)C2(C)CC2C2(O)CC=C3C4(O)C(C)OC5C(=O)C4C(C)(CC(O)C2(F)C35C)O1

>  <smiles>  (181) 
[H]OC1([H])C([H])([H])C2(C([H])([H])[H])OC([H])(C([H])([H])[H])C([H])([H])OC34OC([H])(C([H])([H])C3([H])C([H])([H])[H])C([H])(C4([H])C([H])([H])[H])C3(C([H])([H])[H])C([H])([H])C3([H])C3(O[H])C([H])([H])C([H])=C4C5(O[H])C([H])(C([H])([H])[H])OC([H])(C(=O)C52[H])C4(C([H])([H])[H])C13F

$$$$
55:1:0
     RDKit          3D

 86 93  0  0  1  0  0  0  0  0999 V2000
    1.2165   -7.9553    1.7325 C   0  0  0  0  0  0  0  0  0  0  0  0
    2.1089   -6.9507    2.4695 C   0  0  2  0  0  0  0  0  0  0  0  0
    1.2879   -6.0840    3.4421 C   0  0  0  0  0  0  0  0  0  0  0  0
    2.0490   -5.7832    4.6195 O   0  0  0  0  0  0  0  0  0  0  0  0
    1.7898   -4.5920    5.3134 C   0  0  1  0  0  0  0  0  0  0  0  0
    1.4634   -3.5099    4.5214 O   0  0  0  0  0  0  0  0  0  0  0  0
    1.3881   -2.5109    5.5329 C   0  0  1  0  0  0  0  0  0  0  0  0
    0.2878   -3.1596    6.3943 C   0  0  0  0  0  0  0  0  0  0  0  0
    0.6139   -4.6498    6.3190 C   0  0  1  0  0  0  0  0  0  0  0  0
   -0.5716   -5.5170    5.8732 C   0  0  0  0  0  0  0  0  0  0  0  0
    2.7835   -2.6128    6.1813 C   0  0  1  0  0  0  0  0  0  0  0  0
    3.1004   -4.0904    5.9615 C   0  0  1  0  0  0  0  0  0  0  0  0
    3.5189   -4.8802    7.2157 C   0  0  0  0  0  0  0  0  0  0  0  0
    3.9403   -1.6477    5.7878 C   0  0  2  0  0  0  0  0  0  0  0  0
    5.0236   -1.7678    6.8557 C   0  0  0  0  0  0  0  0  0  0  0  0
    3.6606   -0.2476    5.3260 C   0  0  0  0  0  0  0  0  0  0  0  0
    4.5048   -1.1493    4.4284 C   0  0  2  0  0  0  0  0  0  0  0  0
    4.1649   -1.2202    2.9099 C   0  0  2  0  0  0  0  0  0  0  0  0
    4.4821    0.1391    2.6169 O   0  0  0  0  0  0  0  0  0  0  0  0
    2.6672   -1.2726    2.4984 C   0  0  0  0  0  0  0  0  0  0  0  0
    2.3641   -2.2576    1.3913 C   0  0  0  0  0  0  0  0  0  0  0  0
    3.2484   -2.6705    0.4703 C   0  0  0  0  0  0  0  0  0  0  0  0
    3.1227   -3.8713   -0.4636 C   0  0  1  0  0  0  0  0  0  0  0  0
    1.8307   -4.4469   -0.5153 O   0  0  0  0  0  0  0  0  0  0  0  0
    3.5075   -3.3925   -1.9085 C   0  0  1  0  0  0  0  0  0  0  0  0
    2.5307   -2.4291   -2.5896 C   0  0  0  0  0  0  0  0  0  0  0  0
    4.8079   -2.7781   -1.8805 O   0  0  0  0  0  0  0  0  0  0  0  0
    5.4914   -2.8994   -0.6092 C   0  0  2  0  0  0  0  0  0  0  0  0
    5.5371   -4.3846   -0.2352 C   0  0  0  0  0  0  0  0  0  0  0  0
    6.6013   -4.9402    0.0506 O   0  0  0  0  0  0  0  0  0  0  0  0
    4.1291   -4.9934   -0.0224 C   0  0  1  0  0  0  0  0  0  0  0  0
    3.9775   -5.6484    1.4058 C   0  0  1  0  0  0  0  0  0  0  0  0
    4.9428   -6.8749    1.5460 C   0  0  0  0  0  0  0  0  0  0  0  0
    4.1183   -4.6707    2.6222 C   0  0  0  0  0  0  0  0  0  0  0  0
    5.2619   -3.6111    2.6735 C   0  0  1  0  0  0  0  0  0  0  0  0
    6.4679   -4.2982    2.4320 O   0  0  0  0  0  0  0  0  0  0  0  0
    5.1005   -2.1625    2.0061 C   0  0  2  0  0  0  0  0  0  0  0  0
    6.3190   -1.6227    2.0591 F   0  0  0  0  0  0  0  0  0  0  0  0
    4.6418   -2.1070    0.4657 C   0  0  2  0  0  0  0  0  0  0  0  0
    4.5973   -0.6584   -0.0969 C   0  0  0  0  0  0  0  0  0  0  0  0
    2.6476   -6.1818    1.3946 O   0  0  0  0  0  0  0  0  0  0  0  0
    0.7330   -8.6420    2.4268 H   0  0  0  0  0  0  0  0  0  0  0  0
    1.8065   -8.5568    1.0389 H   0  0  0  0  0  0  0  0  0  0  0  0
    0.4370   -7.4565    1.1517 H   0  0  0  0  0  0  0  0  0  0  0  0
    2.8472   -7.5219    3.0252 H   0  0  0  0  0  0  0  0  0  0  0  0
    0.9045   -5.2041    2.9216 H   0  0  0  0  0  0  0  0  0  0  0  0
    0.4224   -6.6672    3.7417 H   0  0  0  0  0  0  0  0  0  0  0  0
    1.1010   -1.5109    5.2018 H   0  0  0  0  0  0  0  0  0  0  0  0
    0.2661   -2.7649    7.4065 H   0  0  0  0  0  0  0  0  0  0  0  0
   -0.6784   -2.9485    5.9390 H   0  0  0  0  0  0  0  0  0  0  0  0
    0.9533   -5.0271    7.2746 H   0  0  0  0  0  0  0  0  0  0  0  0
   -0.8935   -5.2716    4.8691 H   0  0  0  0  0  0  0  0  0  0  0  0
   -1.4157   -5.3841    6.5482 H   0  0  0  0  0  0  0  0  0  0  0  0
   -0.3081   -6.5802    5.8799 H   0  0  0  0  0  0  0  0  0  0  0  0
    2.6194   -2.4261    7.2441 H   0  0  0  0  0  0  0  0  0  0  0  0
    3.8915   -4.1609    5.2267 H   0  0  0  0  0  0  0  0  0  0  0  0
    2.8789   -4.6835    8.0756 H   0  0  0  0  0  0  0  0  0  0  0  0
    4.5259   -4.6043    7.5180 H   0  0  0  0  0  0  0  0  0  0  0  0
    3.5189   -5.9541    7.0225 H   0  0  0  0  0  0  0  0  0  0  0  0
    5.7469   -0.9522    6.7728 H   0  0  0  0  0  0  0  0  0  0  0  0
    5.5776   -2.7050    6.7603 H   0  0  0  0  0  0  0  0  0  0  0  0
    4.5936   -1.7035    7.8551 H   0  0  0  0  0  0  0  0  0  0  0  0
    2.6630    0.0173    4.9910 H   0  0  0  0  0  0  0  0  0  0  0  0
    4.1923    0.5703    5.8022 H   0  0  0  0  0  0  0  0  0  0  0  0
    5.5758   -0.9624    4.4857 H   0  0  0  0  0  0  0  0  0  0  0  0
    4.1152    0.3560    1.7787 H   0  0  0  0  0  0  0  0  0  0  0  0
    2.0690   -1.5899    3.3296 H   0  0  0  0  0  0  0  0  0  0  0  0
    2.2418   -0.3031    2.2131 H   0  0  0  0  0  0  0  0  0  0  0  0
    1.4151   -2.7459    1.4522 H   0  0  0  0  0  0  0  0  0  0  0  0
    1.8901   -4.9563   -1.3120 H   0  0  0  0  0  0  0  0  0  0  0  0
    3.6172   -4.2474   -2.5853 H   0  0  0  0  0  0  0  0  0  0  0  0
    1.5296   -2.8592   -2.6522 H   0  0  0  0  0  0  0  0  0  0  0  0
    2.8505   -2.1555   -3.5973 H   0  0  0  0  0  0  0  0  0  0  0  0
    2.4726   -1.5124   -2.0078 H   0  0  0  0  0  0  0  0  0  0  0  0
    6.5007   -2.5033   -0.6763 H   0  0  0  0  0  0  0  0  0  0  0  0
    4.0335   -5.8313   -0.7219 H   0  0  0  0  0  0  0  0  0  0  0  0
    5.9975   -6.6286    1.5371 H   0  0  0  0  0  0  0  0  0  0  0  0
    4.7959   -7.5912    0.7402 H   0  0  0  0  0  0  0  0  0  0  0  0
    4.8403   -7.3972    2.4924 H   0  0  0  0  0  0  0  0  0  0  0  0
    3.1730   -4.1747    2.8351 H   0  0  0  0  0  0  0  0  0  0  0  0
    4.3036   -5.3266    3.4789 H   0  0  0  0  0  0  0  0  0  0  0  0
    5.4124   -3.4027    3.7187 H   0  0  0  0  0  0  0  0  0  0  0  0
    6.5324   -4.4546    1.4891 H   0  0  0  0  0  0  0  0  0  0  0  0
    5.5302   -0.1177    0.1211 H   0  0  0  0  0  0  0  0  0  0  0  0
    3.7452   -0.0809    0.2845 H   0  0  0  0  0  0  0  0  0  0  0  0
    4.4602   -0.6128   -1.1805 H   0  0  0  0  0  0  0  0  0  0  0  0
  1  2  1  0
  1 42  1  0
  1 43  1  0
  1 44  1  0
  2 41  1  0
  2  3  1  0
  2 45  1  1
  3  4  1  0
  3 46  1  0
  3 47  1  0
  5  4  1  6
  5  9  1  0
  5 12  1  0
  5  6  1  0
  6  7  1  0
  7  8  1  0
  7 11  1  0
  7 48  1  6
  8  9  1  0
  8 49  1  0
  8 50  1  0
  9 10  1  0
  9 51  1  1
 10 52  1  0
 10 53  1  0
 10 54  1  0
 11 12  1  0
 11 14  1  0
 11 55  1  1
 12 13  1  0
 12 56  1  6
 13 57  1  0
 13 58  1  0
 13 59  1  0
 14 17  1  0
 14 15  1  1
 14 16  1  0
 15 60  1  0
 15 61  1  0
 15 62  1  0
 16 17  1  0
 16 63  1  0
 16 64  1  0
 17 18  1  0
 17 65  1  6
 18 37  1  0
 18 19  1  6
 18 20  1  0
 19 66  1  0
 20 21  1  0
 20 67  1  0
 20 68  1  0
 21 22  2  0
 21 69  1  0
 22 39  1  0
 22 23  1  0
 23 31  1  0
 23 24  1  6
 23 25  1  0
 24 70  1  0
 25 26  1  0
 25 27  1  0
 25 71  1  6
 26 72  1  0
 26 73  1  0
 26 74  1  0
 27 28  1  0
 28 39  1  0
 28 29  1  0
 28 75  1  6
 29 30  2  0
 29 31  1  0
 31 32  1  0
 31 76  1  6
 32 33  1  1
 32 34  1  0
 32 41  1  0
 33 77  1  0
 33 78  1  0
 33 79  1  0
 34 35  1  0
 34 80  1  0
 34 81  1  0
 35 36  1  0
 35 37  1  0
 35 82  1  1
 36 83  1  0
 37 38  1  6
 37 39  1  0
 39 40  1  6
 40 84  1  0
 40 85  1  0
 40 86  1  0
M  END
>  <i_m_ct_stereo_status>  (182) 
1

>  <s_m_source_file>  (182) 
/var/tmp/pbs.5076255.sched01/tmp7qb2j_xu/82up84z1qn.sdf

>  <i_m_source_file_index>  (182) 
5

>  <i_lp_mmshare_version>  (182) 
48012

>  <i_f3d_flags>  (182) 
0

>  <s_epik_input>  (182) 
W0NAXTEyM09bQ0gyXVtDQEBIXShbQ0gzXSlPW0NAQF00KFtDSDNdKVtDQEhdNVtDQEBdNihbT0hdKUM3W0NAXShbQ0gzXSkoW0NAQEhdKEM1PU8pT1tDQEBIXTZbQ0gzXSlbQ0BdKEYpKFtDQEBIXShbQ0gyXTQpW09IXSlbQ0BAXShbT0hdKShbQ0gyXVtDSF09NylbQ0BIXThbQ0BAXShbQ0gzXSkoW0NIMl04KVtDQEhdKFtDQEhdM1tDSDNdKVtDQEBIXShPMSlbQ0gyXVtDQEhdMltDSDNd

>  <s_epik_cmdline>  (182) 
J2VwaWtfcHl0aG9uJywgJy1waHQnLCAnMi4wJywgJy1waCcsICc3LjAnLCAnLXRuJywgJzgnLCAnLW1hJywgJzIwMCcsICctaW1hZScsICc8aW5maWxlLm1hZT4nLCAnLW9tYWUnLCAnPG91dGZpbGUubWFlPic=

>  <r_lp_tautomer_probability>  (182) 
1

>  <r_epik_Ionization_Penalty>  (182) 
2.09712e-06

>  <r_epik_Ionization_Penalty_Charging>  (182) 
0

>  <r_epik_Ionization_Penalty_Neutral>  (182) 
2.09712e-06

>  <r_epik_State_Penalty>  (182) 
-0

>  <r_epik_Charging_Adjusted_Penalty>  (182) 
0

>  <i_epik_Tot_Q>  (182) 
0

>  <i_epik_Tot_abs_Q>  (182) 
0

>  <s_lp_Force_Field>  (182) 
OPLS3e

>  <r_lp_Energy>  (182) 
116.072

>  <b_lp_Chiralities_Consistent>  (182) 
1

>  <s_lp_Variant>  (182) 
55:0-2

>  <s_i_glide_gridfile>  (182) 
pfpi4k_grid

>  <i_i_glide_lignum>  (182) 
5

>  <i_i_glide_rotatable_bonds>  (182) 
3

>  <r_i_docking_score>  (182) 
-2.73352

>  <r_i_glide_ligand_efficiency>  (182) 
-0.0666711

>  <r_i_glide_ligand_efficiency_sa>  (182) 
-0.229896

>  <r_i_glide_ligand_efficiency_ln>  (182) 
-0.579924

>  <r_i_glide_gscore>  (182) 
-2.73352

>  <r_i_glide_lipo>  (182) 
-0.273957

>  <r_i_glide_hbond>  (182) 
-0.0242185

>  <r_i_glide_metal>  (182) 
-0

>  <r_i_glide_rewards>  (182) 
-0.720573

>  <r_i_glide_evdw>  (182) 
-15.996

>  <r_i_glide_ecoul>  (182) 
-6.09978

>  <r_i_glide_erotb>  (182) 
0

>  <r_i_glide_esite>  (182) 
0

>  <r_i_glide_emodel>  (182) 
-28.4413

>  <r_i_glide_energy>  (182) 
-22.0958

>  <r_i_glide_einternal>  (182) 
0.471628

>  <r_i_glide_intrahb_reward>  (182) 
-0.5

>  <i_i_glide_confnum>  (182) 
1

>  <i_i_glide_posenum>  (182) 
9

>  <r_i_glide_eff_state_penalty>  (182) 
0

>  <ligand_id>  (182) 
55

>  <original_smiles>  (182) 
CC1COC23OC(CC2C)C(C3C)C2(C)CC2C2(O)CC=C3C4(O)C(C)OC5C(=O)C4C(C)(CC(O)C2(F)C35C)O1

>  <smiles>  (182) 
[H]OC1([H])C([H])([H])C2(C([H])([H])[H])OC([H])(C([H])([H])[H])C([H])([H])OC34OC([H])(C([H])([H])C3([H])C([H])([H])[H])C([H])(C4([H])C([H])([H])[H])C3(C([H])([H])[H])C([H])([H])C3([H])C3(O[H])C([H])([H])C([H])=C4C5(O[H])C([H])(C([H])([H])[H])OC([H])(C(=O)C52[H])C4(C([H])([H])[H])C13F

$$$$
55:1:1
     RDKit          3D

 86 93  0  0  1  0  0  0  0  0999 V2000
    0.3632    2.1954    3.6803 C   0  0  0  0  0  0  0  0  0  0  0  0
    0.7741    2.5690    5.1143 C   0  0  2  0  0  0  0  0  0  0  0  0
   -0.4502    2.9982    5.9487 C   0  0  0  0  0  0  0  0  0  0  0  0
   -0.3129    2.5647    7.3071 O   0  0  0  0  0  0  0  0  0  0  0  0
   -0.9279    3.3193    8.3218 C   0  0  1  0  0  0  0  0  0  0  0  0
   -0.9349    4.6898    8.1272 O   0  0  0  0  0  0  0  0  0  0  0  0
   -1.5094    5.0824    9.3652 C   0  0  1  0  0  0  0  0  0  0  0  0
   -2.8392    4.3127    9.2489 C   0  0  0  0  0  0  0  0  0  0  0  0
   -2.4239    3.0034    8.5670 C   0  0  1  0  0  0  0  0  0  0  0  0
   -3.2401    2.7057    7.3028 C   0  0  0  0  0  0  0  0  0  0  0  0
   -0.5450    4.4447   10.3926 C   0  0  1  0  0  0  0  0  0  0  0  0
   -0.0785    3.2127    9.6125 C   0  0  1  0  0  0  0  0  0  0  0  0
   -0.2095    1.8664   10.3483 C   0  0  0  0  0  0  0  0  0  0  0  0
    0.6114    5.2657   11.0423 C   0  0  2  0  0  0  0  0  0  0  0  0
    1.1033    4.4670   12.2478 C   0  0  0  0  0  0  0  0  0  0  0  0
    0.4666    6.7479   11.2760 C   0  0  0  0  0  0  0  0  0  0  0  0
    1.6700    6.2595   10.4823 C   0  0  2  0  0  0  0  0  0  0  0  0
    2.0369    6.9747    9.1464 C   0  0  2  0  0  0  0  0  0  0  0  0
    2.3810    8.2238    9.7369 O   0  0  0  0  0  0  0  0  0  0  0  0
    0.8741    7.3556    8.1737 C   0  0  0  0  0  0  0  0  0  0  0  0
    1.1368    7.0789    6.6998 C   0  0  0  0  0  0  0  0  0  0  0  0
    2.3744    6.9736    6.1789 C   0  0  0  0  0  0  0  0  0  0  0  0
    2.7312    6.4152    4.8040 C   0  0  1  0  0  0  0  0  0  0  0  0
    1.5887    6.2282    3.9833 O   0  0  0  0  0  0  0  0  0  0  0  0
    3.6855    7.4394    4.1111 C   0  0  1  0  0  0  0  0  0  0  0  0
    3.0374    8.7840    3.7203 C   0  0  0  0  0  0  0  0  0  0  0  0
    4.8052    7.7053    4.9926 O   0  0  0  0  0  0  0  0  0  0  0  0
    4.8741    6.8939    6.1868 C   0  0  2  0  0  0  0  0  0  0  0  0
    4.8770    5.4673    5.6660 C   0  0  0  0  0  0  0  0  0  0  0  0
    5.8827    4.7601    5.6863 O   0  0  0  0  0  0  0  0  0  0  0  0
    3.5454    5.0733    5.0040 C   0  0  1  0  0  0  0  0  0  0  0  0
    2.8535    3.8682    5.7426 C   0  0  1  0  0  0  0  0  0  0  0  0
    3.7299    2.5853    5.6377 C   0  0  0  0  0  0  0  0  0  0  0  0
    2.4113    4.1105    7.2260 C   0  0  0  0  0  0  0  0  0  0  0  0
    3.3057    4.8301    8.2926 C   0  0  1  0  0  0  0  0  0  0  0  0
    4.5845    4.2310    8.3587 O   0  0  0  0  0  0  0  0  0  0  0  0
    3.3397    6.4176    8.3947 C   0  0  2  0  0  0  0  0  0  0  0  0
    4.3681    6.6663    9.2171 F   0  0  0  0  0  0  0  0  0  0  0  0
    3.5994    7.2324    7.0462 C   0  0  2  0  0  0  0  0  0  0  0  0
    3.7328    8.7656    7.3141 C   0  0  0  0  0  0  0  0  0  0  0  0
    1.6932    3.6489    4.9269 O   0  0  0  0  0  0  0  0  0  0  0  0
   -0.3359    1.3594    3.6655 H   0  0  0  0  0  0  0  0  0  0  0  0
    1.2331    1.9075    3.0888 H   0  0  0  0  0  0  0  0  0  0  0  0
   -0.1088    3.0355    3.1663 H   0  0  0  0  0  0  0  0  0  0  0  0
    1.2193    1.6821    5.5584 H   0  0  0  0  0  0  0  0  0  0  0  0
   -0.6169    4.0702    5.8333 H   0  0  0  0  0  0  0  0  0  0  0  0
   -1.3244    2.5062    5.5281 H   0  0  0  0  0  0  0  0  0  0  0  0
   -1.6900    6.1469    9.4982 H   0  0  0  0  0  0  0  0  0  0  0  0
   -3.3327    4.1592   10.2098 H   0  0  0  0  0  0  0  0  0  0  0  0
   -3.5210    4.8783    8.6141 H   0  0  0  0  0  0  0  0  0  0  0  0
   -2.5308    2.1606    9.2415 H   0  0  0  0  0  0  0  0  0  0  0  0
   -3.1526    3.4879    6.5478 H   0  0  0  0  0  0  0  0  0  0  0  0
   -4.2924    2.6145    7.5646 H   0  0  0  0  0  0  0  0  0  0  0  0
   -2.9432    1.7546    6.8648 H   0  0  0  0  0  0  0  0  0  0  0  0
   -1.1811    4.1297   11.2227 H   0  0  0  0  0  0  0  0  0  0  0  0
    0.9582    3.3612    9.3446 H   0  0  0  0  0  0  0  0  0  0  0  0
   -1.1752    1.7434   10.8413 H   0  0  0  0  0  0  0  0  0  0  0  0
    0.5396    1.7901   11.1341 H   0  0  0  0  0  0  0  0  0  0  0  0
   -0.0547    1.0297    9.6691 H   0  0  0  0  0  0  0  0  0  0  0  0
    1.7340    5.0846   12.8888 H   0  0  0  0  0  0  0  0  0  0  0  0
    1.6972    3.6094   11.9361 H   0  0  0  0  0  0  0  0  0  0  0  0
    0.2723    4.1256   12.8636 H   0  0  0  0  0  0  0  0  0  0  0  0
   -0.2951    7.3019   10.7418 H   0  0  0  0  0  0  0  0  0  0  0  0
    0.6790    7.1316   12.2724 H   0  0  0  0  0  0  0  0  0  0  0  0
    2.5877    6.1910   11.0634 H   0  0  0  0  0  0  0  0  0  0  0  0
    2.6087    8.8280    9.0478 H   0  0  0  0  0  0  0  0  0  0  0  0
   -0.0021    6.7979    8.4266 H   0  0  0  0  0  0  0  0  0  0  0  0
    0.5696    8.4005    8.2718 H   0  0  0  0  0  0  0  0  0  0  0  0
    0.2718    6.8563    6.0954 H   0  0  0  0  0  0  0  0  0  0  0  0
    1.3626    7.0474    3.5593 H   0  0  0  0  0  0  0  0  0  0  0  0
    4.0833    6.9917    3.1986 H   0  0  0  0  0  0  0  0  0  0  0  0
    2.2203    8.6511    3.0094 H   0  0  0  0  0  0  0  0  0  0  0  0
    3.7706    9.4417    3.2482 H   0  0  0  0  0  0  0  0  0  0  0  0
    2.6213    9.3111    4.5792 H   0  0  0  0  0  0  0  0  0  0  0  0
    5.7911    7.1049    6.7372 H   0  0  0  0  0  0  0  0  0  0  0  0
    3.8068    4.7172    4.0085 H   0  0  0  0  0  0  0  0  0  0  0  0
    4.6607    2.6616    6.1957 H   0  0  0  0  0  0  0  0  0  0  0  0
    3.9883    2.3643    4.6000 H   0  0  0  0  0  0  0  0  0  0  0  0
    3.2433    1.7008    6.0439 H   0  0  0  0  0  0  0  0  0  0  0  0
    1.4436    4.5951    7.2264 H   0  0  0  0  0  0  0  0  0  0  0  0
    2.2085    3.1127    7.6138 H   0  0  0  0  0  0  0  0  0  0  0  0
    2.8985    4.4953    9.2426 H   0  0  0  0  0  0  0  0  0  0  0  0
    4.4768    3.2982    8.4728 H   0  0  0  0  0  0  0  0  0  0  0  0
    4.4247    8.9718    8.1305 H   0  0  0  0  0  0  0  0  0  0  0  0
    2.7816    9.2475    7.5299 H   0  0  0  0  0  0  0  0  0  0  0  0
    4.1088    9.3323    6.4669 H   0  0  0  0  0  0  0  0  0  0  0  0
  1  2  1  0
  1 42  1  0
  1 43  1  0
  1 44  1  0
  2 41  1  0
  2  3  1  0
  2 45  1  1
  3  4  1  0
  3 46  1  0
  3 47  1  0
  5  4  1  6
  5  9  1  0
  5 12  1  0
  5  6  1  0
  6  7  1  0
  7  8  1  0
  7 11  1  0
  7 48  1  6
  8  9  1  0
  8 49  1  0
  8 50  1  0
  9 10  1  0
  9 51  1  1
 10 52  1  0
 10 53  1  0
 10 54  1  0
 11 12  1  0
 11 14  1  0
 11 55  1  1
 12 13  1  0
 12 56  1  6
 13 57  1  0
 13 58  1  0
 13 59  1  0
 14 17  1  0
 14 15  1  1
 14 16  1  0
 15 60  1  0
 15 61  1  0
 15 62  1  0
 16 17  1  0
 16 63  1  0
 16 64  1  0
 17 18  1  0
 17 65  1  1
 18 37  1  0
 18 19  1  1
 18 20  1  0
 19 66  1  0
 20 21  1  0
 20 67  1  0
 20 68  1  0
 21 22  2  0
 21 69  1  0
 22 39  1  0
 22 23  1  0
 23 31  1  0
 23 24  1  6
 23 25  1  0
 24 70  1  0
 25 26  1  0
 25 27  1  0
 25 71  1  6
 26 72  1  0
 26 73  1  0
 26 74  1  0
 27 28  1  0
 28 39  1  0
 28 29  1  0
 28 75  1  1
 29 30  2  0
 29 31  1  0
 31 32  1  0
 31 76  1  6
 32 33  1  1
 32 34  1  0
 32 41  1  0
 33 77  1  0
 33 78  1  0
 33 79  1  0
 34 35  1  0
 34 80  1  0
 34 81  1  0
 35 36  1  0
 35 37  1  0
 35 82  1  1
 36 83  1  0
 37 38  1  1
 37 39  1  0
 39 40  1  1
 40 84  1  0
 40 85  1  0
 40 86  1  0
M  END
>  <i_m_ct_stereo_status>  (183) 
1

>  <s_m_source_file>  (183) 
/var/tmp/pbs.5076255.sched01/tmp7qb2j_xu/82up84z1qn.sdf

>  <i_m_source_file_index>  (183) 
5

>  <i_lp_mmshare_version>  (183) 
48012

>  <i_f3d_flags>  (183) 
0

>  <s_epik_input>  (183) 
W0NAXTEyM09bQ0gyXVtDQEBIXShbQ0gzXSlPW0NAQF00KFtDSDNdKVtDQEhdNVtDQEBdNihbT0hdKUM3W0NAXShbQ0gzXSkoW0NAQEhdKEM1PU8pT1tDQEBIXTZbQ0gzXSlbQ0BdKEYpKFtDQEBIXShbQ0gyXTQpW09IXSlbQ0BAXShbT0hdKShbQ0gyXVtDSF09NylbQ0BIXThbQ0BAXShbQ0gzXSkoW0NIMl04KVtDQEhdKFtDQEhdM1tDSDNdKVtDQEBIXShPMSlbQ0gyXVtDQEhdMltDSDNd

>  <s_epik_cmdline>  (183) 
J2VwaWtfcHl0aG9uJywgJy1waHQnLCAnMi4wJywgJy1waCcsICc3LjAnLCAnLXRuJywgJzgnLCAnLW1hJywgJzIwMCcsICctaW1hZScsICc8aW5maWxlLm1hZT4nLCAnLW9tYWUnLCAnPG91dGZpbGUubWFlPic=

>  <r_lp_tautomer_probability>  (183) 
1

>  <r_epik_Ionization_Penalty>  (183) 
2.09712e-06

>  <r_epik_Ionization_Penalty_Charging>  (183) 
0

>  <r_epik_Ionization_Penalty_Neutral>  (183) 
2.09712e-06

>  <r_epik_State_Penalty>  (183) 
-0

>  <r_epik_Charging_Adjusted_Penalty>  (183) 
0

>  <i_epik_Tot_Q>  (183) 
0

>  <i_epik_Tot_abs_Q>  (183) 
0

>  <s_lp_Force_Field>  (183) 
OPLS3e

>  <r_lp_Energy>  (183) 
116.072

>  <b_lp_Chiralities_Consistent>  (183) 
1

>  <s_lp_Variant>  (183) 
55:0-2

>  <s_i_glide_gridfile>  (183) 
pfpi4k_grid

>  <i_i_glide_lignum>  (183) 
5

>  <i_i_glide_rotatable_bonds>  (183) 
3

>  <r_i_docking_score>  (183) 
-1.91014

>  <r_i_glide_ligand_efficiency>  (183) 
-0.0465888

>  <r_i_glide_ligand_efficiency_sa>  (183) 
-0.160648

>  <r_i_glide_ligand_efficiency_ln>  (183) 
-0.405243

>  <r_i_glide_gscore>  (183) 
-1.91014

>  <r_i_glide_lipo>  (183) 
-0.246768

>  <r_i_glide_hbond>  (183) 
0

>  <r_i_glide_metal>  (183) 
-0

>  <r_i_glide_rewards>  (183) 
-0.0129962

>  <r_i_glide_evdw>  (183) 
-26.6787

>  <r_i_glide_ecoul>  (183) 
-2.08486

>  <r_i_glide_erotb>  (183) 
0

>  <r_i_glide_esite>  (183) 
-0.00371262

>  <r_i_glide_emodel>  (183) 
-31.8692

>  <r_i_glide_energy>  (183) 
-28.7636

>  <r_i_glide_einternal>  (183) 
0.59247

>  <r_i_glide_intrahb_reward>  (183) 
-0

>  <i_i_glide_confnum>  (183) 
1

>  <i_i_glide_posenum>  (183) 
33

>  <r_i_glide_eff_state_penalty>  (183) 
0

>  <ligand_id>  (183) 
55

>  <original_smiles>  (183) 
CC1COC23OC(CC2C)C(C3C)C2(C)CC2C2(O)CC=C3C4(O)C(C)OC5C(=O)C4C(C)(CC(O)C2(F)C35C)O1

>  <smiles>  (183) 
[H]OC1([H])C([H])([H])C2(C([H])([H])[H])OC([H])(C([H])([H])[H])C([H])([H])OC34OC([H])(C([H])([H])C3([H])C([H])([H])[H])C([H])(C4([H])C([H])([H])[H])C3(C([H])([H])[H])C([H])([H])C3([H])C3(O[H])C([H])([H])C([H])=C4C5(O[H])C([H])(C([H])([H])[H])OC([H])(C(=O)C52[H])C4(C([H])([H])[H])C13F

$$$$
55:1:2
     RDKit          3D

 86 93  0  0  1  0  0  0  0  0999 V2000
    0.3523    2.1963    3.6756 C   0  0  0  0  0  0  0  0  0  0  0  0
    0.7606    2.5676    5.1109 C   0  0  2  0  0  0  0  0  0  0  0  0
   -0.4652    2.9978    5.9433 C   0  0  0  0  0  0  0  0  0  0  0  0
   -0.3313    2.5628    7.3019 O   0  0  0  0  0  0  0  0  0  0  0  0
   -0.9463    3.3165    8.3163 C   0  0  1  0  0  0  0  0  0  0  0  0
   -0.9512    4.6872    8.1240 O   0  0  0  0  0  0  0  0  0  0  0  0
   -1.5277    5.0796    9.3609 C   0  0  1  0  0  0  0  0  0  0  0  0
   -2.8586    4.3123    9.2407 C   0  0  0  0  0  0  0  0  0  0  0  0
   -2.4440    3.0026    8.5584 C   0  0  1  0  0  0  0  0  0  0  0  0
   -3.2587    2.7063    7.2928 C   0  0  0  0  0  0  0  0  0  0  0  0
   -0.5659    4.4379   10.3905 C   0  0  1  0  0  0  0  0  0  0  0  0
   -0.0990    3.2064    9.6087 C   0  0  1  0  0  0  0  0  0  0  0  0
   -0.2346    1.8593   10.3430 C   0  0  0  0  0  0  0  0  0  0  0  0
    0.5907    5.2562   11.0447 C   0  0  2  0  0  0  0  0  0  0  0  0
    1.0784    4.4536   12.2525 C   0  0  0  0  0  0  0  0  0  0  0  0
    0.4508    6.7390   11.2795 C   0  0  0  0  0  0  0  0  0  0  0  0
    1.6536    6.2461   10.4872 C   0  0  2  0  0  0  0  0  0  0  0  0
    2.0240    6.9599    9.1500 C   0  0  2  0  0  0  0  0  0  0  0  0
    2.3760    8.2012    9.7451 O   0  0  0  0  0  0  0  0  0  0  0  0
    0.8648    7.3484    8.1781 C   0  0  0  0  0  0  0  0  0  0  0  0
    1.1285    7.0746    6.7029 C   0  0  0  0  0  0  0  0  0  0  0  0
    2.3665    6.9702    6.1840 C   0  0  0  0  0  0  0  0  0  0  0  0
    2.7240    6.4140    4.8071 C   0  0  1  0  0  0  0  0  0  0  0  0
    1.5828    6.2270    3.9844 O   0  0  0  0  0  0  0  0  0  0  0  0
    3.6801    7.4387    4.1170 C   0  0  1  0  0  0  0  0  0  0  0  0
    3.0346    8.7848    3.7292 C   0  0  0  0  0  0  0  0  0  0  0  0
    4.7991    7.7036    4.9976 O   0  0  0  0  0  0  0  0  0  0  0  0
    4.8649    6.8930    6.1901 C   0  0  2  0  0  0  0  0  0  0  0  0
    4.8606    5.4642    5.6768 C   0  0  0  0  0  0  0  0  0  0  0  0
    5.8366    4.7281    5.7943 O   0  0  0  0  0  0  0  0  0  0  0  0
    3.5361    5.0696    5.0033 C   0  0  1  0  0  0  0  0  0  0  0  0
    2.8418    3.8620    5.7414 C   0  0  1  0  0  0  0  0  0  0  0  0
    3.7148    2.5758    5.6394 C   0  0  0  0  0  0  0  0  0  0  0  0
    2.4036    4.1036    7.2262 C   0  0  0  0  0  0  0  0  0  0  0  0
    3.3065    4.8192    8.2890 C   0  0  1  0  0  0  0  0  0  0  0  0
    4.5856    4.2096    8.3741 O   0  0  0  0  0  0  0  0  0  0  0  0
    3.3308    6.4063    8.3996 C   0  0  2  0  0  0  0  0  0  0  0  0
    4.3506    6.6560    9.2322 F   0  0  0  0  0  0  0  0  0  0  0  0
    3.5917    7.2269    7.0518 C   0  0  2  0  0  0  0  0  0  0  0  0
    3.7271    8.7579    7.3257 C   0  0  0  0  0  0  0  0  0  0  0  0
    1.6812    3.6464    4.9253 O   0  0  0  0  0  0  0  0  0  0  0  0
   -0.3479    1.3614    3.6580 H   0  0  0  0  0  0  0  0  0  0  0  0
    1.2231    1.9076    3.0857 H   0  0  0  0  0  0  0  0  0  0  0  0
   -0.1171    3.0376    3.1613 H   0  0  0  0  0  0  0  0  0  0  0  0
    1.2032    1.6793    5.5546 H   0  0  0  0  0  0  0  0  0  0  0  0
   -0.6310    4.0697    5.8289 H   0  0  0  0  0  0  0  0  0  0  0  0
   -1.3395    2.5068    5.5217 H   0  0  0  0  0  0  0  0  0  0  0  0
   -1.7069    6.1436    9.4956 H   0  0  0  0  0  0  0  0  0  0  0  0
   -3.3553    4.1583   10.1993 H   0  0  0  0  0  0  0  0  0  0  0  0
   -3.5377    4.8796    8.6049 H   0  0  0  0  0  0  0  0  0  0  0  0
   -2.5545    2.1595    9.2325 H   0  0  0  0  0  0  0  0  0  0  0  0
   -3.1691    3.4894    6.5386 H   0  0  0  0  0  0  0  0  0  0  0  0
   -4.3112    2.6169    7.5533 H   0  0  0  0  0  0  0  0  0  0  0  0
   -2.9631    1.7545    6.8544 H   0  0  0  0  0  0  0  0  0  0  0  0
   -1.2049    4.1220   11.2171 H   0  0  0  0  0  0  0  0  0  0  0  0
    0.9393    3.3510    9.3422 H   0  0  0  0  0  0  0  0  0  0  0  0
   -1.2015    1.7388   10.8339 H   0  0  0  0  0  0  0  0  0  0  0  0
    0.5127    1.7794   11.1305 H   0  0  0  0  0  0  0  0  0  0  0  0
   -0.0803    1.0224    9.6637 H   0  0  0  0  0  0  0  0  0  0  0  0
    1.7095    5.0677   12.8968 H   0  0  0  0  0  0  0  0  0  0  0  0
    1.6720    3.5961   11.9402 H   0  0  0  0  0  0  0  0  0  0  0  0
    0.2466    4.1111   12.8668 H   0  0  0  0  0  0  0  0  0  0  0  0
   -0.3102    7.2931   10.7443 H   0  0  0  0  0  0  0  0  0  0  0  0
    0.6561    7.1196   12.2793 H   0  0  0  0  0  0  0  0  0  0  0  0
    2.5691    6.1615   11.0700 H   0  0  0  0  0  0  0  0  0  0  0  0
    3.0597    8.0376   10.3760 H   0  0  0  0  0  0  0  0  0  0  0  0
   -0.0155    6.7964    8.4294 H   0  0  0  0  0  0  0  0  0  0  0  0
    0.5688    8.3950    8.2802 H   0  0  0  0  0  0  0  0  0  0  0  0
    0.2639    6.8538    6.0983 H   0  0  0  0  0  0  0  0  0  0  0  0
    1.3604    7.0445    3.5578 H   0  0  0  0  0  0  0  0  0  0  0  0
    4.0794    6.9913    3.2059 H   0  0  0  0  0  0  0  0  0  0  0  0
    2.2181    8.6522    3.0191 H   0  0  0  0  0  0  0  0  0  0  0  0
    3.7694    9.4398    3.2557 H   0  0  0  0  0  0  0  0  0  0  0  0
    2.6214    9.3109    4.5897 H   0  0  0  0  0  0  0  0  0  0  0  0
    5.7825    7.0979    6.7411 H   0  0  0  0  0  0  0  0  0  0  0  0
    3.8015    4.7142    4.0088 H   0  0  0  0  0  0  0  0  0  0  0  0
    4.6415    2.6410    6.2048 H   0  0  0  0  0  0  0  0  0  0  0  0
    3.9771    2.3548    4.6034 H   0  0  0  0  0  0  0  0  0  0  0  0
    3.2241    1.6935    6.0444 H   0  0  0  0  0  0  0  0  0  0  0  0
    1.4340    4.5870    7.2299 H   0  0  0  0  0  0  0  0  0  0  0  0
    2.2009    3.1073    7.6164 H   0  0  0  0  0  0  0  0  0  0  0  0
    2.8920    4.4855    9.2360 H   0  0  0  0  0  0  0  0  0  0  0  0
    5.0609    4.3395    7.5639 H   0  0  0  0  0  0  0  0  0  0  0  0
    4.4177    8.9596    8.1434 H   0  0  0  0  0  0  0  0  0  0  0  0
    2.7758    9.2320    7.5619 H   0  0  0  0  0  0  0  0  0  0  0  0
    4.0963    9.3315    6.4799 H   0  0  0  0  0  0  0  0  0  0  0  0
  1  2  1  0
  1 42  1  0
  1 43  1  0
  1 44  1  0
  2 41  1  0
  2  3  1  0
  2 45  1  1
  3  4  1  0
  3 46  1  0
  3 47  1  0
  5  4  1  6
  5  9  1  0
  5 12  1  0
  5  6  1  0
  6  7  1  0
  7  8  1  0
  7 11  1  0
  7 48  1  6
  8  9  1  0
  8 49  1  0
  8 50  1  0
  9 10  1  0
  9 51  1  1
 10 52  1  0
 10 53  1  0
 10 54  1  0
 11 12  1  0
 11 14  1  0
 11 55  1  1
 12 13  1  0
 12 56  1  6
 13 57  1  0
 13 58  1  0
 13 59  1  0
 14 17  1  0
 14 15  1  1
 14 16  1  0
 15 60  1  0
 15 61  1  0
 15 62  1  0
 16 17  1  0
 16 63  1  0
 16 64  1  0
 17 18  1  0
 17 65  1  1
 18 37  1  0
 18 19  1  1
 18 20  1  0
 19 66  1  0
 20 21  1  0
 20 67  1  0
 20 68  1  0
 21 22  2  0
 21 69  1  0
 22 39  1  0
 22 23  1  0
 23 31  1  0
 23 24  1  6
 23 25  1  0
 24 70  1  0
 25 26  1  0
 25 27  1  0
 25 71  1  6
 26 72  1  0
 26 73  1  0
 26 74  1  0
 27 28  1  0
 28 39  1  0
 28 29  1  0
 28 75  1  1
 29 30  2  0
 29 31  1  0
 31 32  1  0
 31 76  1  6
 32 33  1  1
 32 34  1  0
 32 41  1  0
 33 77  1  0
 33 78  1  0
 33 79  1  0
 34 35  1  0
 34 80  1  0
 34 81  1  0
 35 36  1  0
 35 37  1  0
 35 82  1  1
 36 83  1  0
 37 38  1  1
 37 39  1  0
 39 40  1  1
 40 84  1  0
 40 85  1  0
 40 86  1  0
M  END
>  <i_m_ct_stereo_status>  (184) 
1

>  <s_m_source_file>  (184) 
/var/tmp/pbs.5076255.sched01/tmp7qb2j_xu/82up84z1qn.sdf

>  <i_m_source_file_index>  (184) 
5

>  <i_lp_mmshare_version>  (184) 
48012

>  <i_f3d_flags>  (184) 
0

>  <s_epik_input>  (184) 
W0NAXTEyM09bQ0gyXVtDQEBIXShbQ0gzXSlPW0NAQF00KFtDSDNdKVtDQEhdNVtDQEBdNihbT0hdKUM3W0NAXShbQ0gzXSkoW0NAQEhdKEM1PU8pT1tDQEBIXTZbQ0gzXSlbQ0BdKEYpKFtDQEBIXShbQ0gyXTQpW09IXSlbQ0BAXShbT0hdKShbQ0gyXVtDSF09NylbQ0BIXThbQ0BAXShbQ0gzXSkoW0NIMl04KVtDQEhdKFtDQEhdM1tDSDNdKVtDQEBIXShPMSlbQ0gyXVtDQEhdMltDSDNd

>  <s_epik_cmdline>  (184) 
J2VwaWtfcHl0aG9uJywgJy1waHQnLCAnMi4wJywgJy1waCcsICc3LjAnLCAnLXRuJywgJzgnLCAnLW1hJywgJzIwMCcsICctaW1hZScsICc8aW5maWxlLm1hZT4nLCAnLW9tYWUnLCAnPG91dGZpbGUubWFlPic=

>  <r_lp_tautomer_probability>  (184) 
1

>  <r_epik_Ionization_Penalty>  (184) 
2.09712e-06

>  <r_epik_Ionization_Penalty_Charging>  (184) 
0

>  <r_epik_Ionization_Penalty_Neutral>  (184) 
2.09712e-06

>  <r_epik_State_Penalty>  (184) 
-0

>  <r_epik_Charging_Adjusted_Penalty>  (184) 
0

>  <i_epik_Tot_Q>  (184) 
0

>  <i_epik_Tot_abs_Q>  (184) 
0

>  <s_lp_Force_Field>  (184) 
OPLS3e

>  <r_lp_Energy>  (184) 
116.072

>  <b_lp_Chiralities_Consistent>  (184) 
1

>  <s_lp_Variant>  (184) 
55:0-2

>  <s_i_glide_gridfile>  (184) 
pfpi4k_grid

>  <i_i_glide_lignum>  (184) 
5

>  <i_i_glide_rotatable_bonds>  (184) 
3

>  <r_i_docking_score>  (184) 
-1.88616

>  <r_i_glide_ligand_efficiency>  (184) 
-0.0460039

>  <r_i_glide_ligand_efficiency_sa>  (184) 
-0.158631

>  <r_i_glide_ligand_efficiency_ln>  (184) 
-0.400155

>  <r_i_glide_gscore>  (184) 
-1.88616

>  <r_i_glide_lipo>  (184) 
-0.249213

>  <r_i_glide_hbond>  (184) 
0

>  <r_i_glide_metal>  (184) 
-0

>  <r_i_glide_rewards>  (184) 
-0.0124765

>  <r_i_glide_evdw>  (184) 
-26.7572

>  <r_i_glide_ecoul>  (184) 
-1.88743

>  <r_i_glide_erotb>  (184) 
0

>  <r_i_glide_esite>  (184) 
-0.00349525

>  <r_i_glide_emodel>  (184) 
-31.8354

>  <r_i_glide_energy>  (184) 
-28.6447

>  <r_i_glide_einternal>  (184) 
0.275514

>  <r_i_glide_intrahb_reward>  (184) 
-0

>  <i_i_glide_confnum>  (184) 
1

>  <i_i_glide_posenum>  (184) 
6

>  <r_i_glide_eff_state_penalty>  (184) 
0

>  <ligand_id>  (184) 
55

>  <original_smiles>  (184) 
CC1COC23OC(CC2C)C(C3C)C2(C)CC2C2(O)CC=C3C4(O)C(C)OC5C(=O)C4C(C)(CC(O)C2(F)C35C)O1

>  <smiles>  (184) 
[H]OC1([H])C([H])([H])C2(C([H])([H])[H])OC([H])(C([H])([H])[H])C([H])([H])OC34OC([H])(C([H])([H])C3([H])C([H])([H])[H])C([H])(C4([H])C([H])([H])[H])C3(C([H])([H])[H])C([H])([H])C3([H])C3(O[H])C([H])([H])C([H])=C4C5(O[H])C([H])(C([H])([H])[H])OC([H])(C(=O)C52[H])C4(C([H])([H])[H])C13F

$$$$
56:0:0
     RDKit          3D

 64 68  0  0  1  0  0  0  0  0999 V2000
    2.1012   -8.6160    4.1268 C   0  0  0  0  0  0  0  0  0  0  0  0
    3.0643   -7.8339    3.2330 C   0  0  0  0  0  0  0  0  0  0  0  0
    4.2180   -8.1777    3.1010 O   0  0  0  0  0  0  0  0  0  0  0  0
    2.4409   -6.7844    2.6376 O   0  0  0  0  0  0  0  0  0  0  0  0
    3.2603   -5.9537    1.8528 C   0  0  2  0  0  0  0  0  0  0  0  0
    4.2226   -5.2409    2.6320 O   0  0  0  0  0  0  0  0  0  0  0  0
    4.9798   -4.2235    1.9917 C   0  0  1  0  0  0  0  0  0  0  0  0
    5.8379   -4.7265    1.0032 O   0  0  0  0  0  0  0  0  0  0  0  0
    6.8538   -5.5565    1.3678 C   0  0  0  0  0  0  0  0  0  0  0  0
    6.8788   -6.1464    2.7821 C   0  0  0  0  0  0  0  0  0  0  0  0
    7.7304   -5.8654    0.5540 O   0  0  0  0  0  0  0  0  0  0  0  0
    3.8813   -3.1182    1.5739 C   0  0  1  0  0  0  0  0  0  0  0  0
    3.1570   -3.9337    0.4216 C   0  0  2  0  0  0  0  0  0  0  0  0
    3.1565   -3.3514   -1.0938 C   0  0  0  0  0  0  0  0  0  0  0  0
    4.3851   -2.3481   -1.4554 C   0  0  1  0  0  0  0  0  0  0  0  0
    3.8940   -1.1953   -2.3479 C   0  0  0  0  0  0  0  0  0  0  0  0
    5.0137   -1.8669   -0.1117 C   0  0  1  0  0  0  0  0  0  0  0  0
    6.1440   -0.9896    0.4789 C   0  0  0  0  0  0  0  0  0  0  0  0
    6.0167   -1.0827    2.0954 C   0  0  0  0  0  0  0  0  0  0  0  0
    4.5294   -1.0351    2.7317 C   0  0  1  0  0  0  0  0  0  0  0  0
    3.7587   -0.4314    1.6292 C   0  0  2  0  0  0  0  0  0  0  0  0
    2.3371    0.0211    2.0307 C   0  0  0  0  0  0  0  0  0  0  0  0
    1.4238   -1.1307    2.4450 C   0  0  0  0  0  0  0  0  0  0  0  0
    2.1656   -2.1641    3.2802 C   0  0  0  0  0  0  0  0  0  0  0  0
    1.5594   -2.8221    4.1120 O   0  0  0  0  0  0  0  0  0  0  0  0
    3.6775   -2.3853    2.9821 C   0  0  1  0  0  0  0  0  0  0  0  0
    4.2661   -2.9444    4.3315 C   0  0  0  0  0  0  0  0  0  0  0  0
    3.8757   -1.7310    0.7978 C   0  0  2  0  0  0  0  0  0  0  0  0
    2.2761   -4.9888    1.0812 C   0  0  1  0  0  0  0  0  0  0  0  0
    1.4352   -5.7977    0.0699 C   0  0  0  0  0  0  0  0  0  0  0  0
    1.3101   -9.0543    3.5230 H   0  0  0  0  0  0  0  0  0  0  0  0
    1.6637   -7.9857    4.8983 H   0  0  0  0  0  0  0  0  0  0  0  0
    2.6432   -9.4229    4.6175 H   0  0  0  0  0  0  0  0  0  0  0  0
    3.8163   -6.5470    1.1325 H   0  0  0  0  0  0  0  0  0  0  0  0
    5.6972   -3.7556    2.6639 H   0  0  0  0  0  0  0  0  0  0  0  0
    5.9579   -6.6974    2.9236 H   0  0  0  0  0  0  0  0  0  0  0  0
    6.9446   -5.4016    3.5788 H   0  0  0  0  0  0  0  0  0  0  0  0
    7.6960   -6.8491    2.9370 H   0  0  0  0  0  0  0  0  0  0  0  0
    3.8456   -4.6541    0.0104 H   0  0  0  0  0  0  0  0  0  0  0  0
    3.1911   -4.1733   -1.8125 H   0  0  0  0  0  0  0  0  0  0  0  0
    2.2075   -2.8510   -1.3032 H   0  0  0  0  0  0  0  0  0  0  0  0
    5.1562   -2.8993   -2.0082 H   0  0  0  0  0  0  0  0  0  0  0  0
    3.0624   -0.6873   -1.8635 H   0  0  0  0  0  0  0  0  0  0  0  0
    3.5249   -1.5812   -3.3013 H   0  0  0  0  0  0  0  0  0  0  0  0
    4.6763   -0.4617   -2.5566 H   0  0  0  0  0  0  0  0  0  0  0  0
    5.5883   -2.7549    0.0267 H   0  0  0  0  0  0  0  0  0  0  0  0
    7.1303   -1.3465    0.1754 H   0  0  0  0  0  0  0  0  0  0  0  0
    6.0634    0.0480    0.1302 H   0  0  0  0  0  0  0  0  0  0  0  0
    6.5525   -1.9640    2.4307 H   0  0  0  0  0  0  0  0  0  0  0  0
    6.5734   -0.2613    2.5357 H   0  0  0  0  0  0  0  0  0  0  0  0
    4.5180   -0.3896    3.6169 H   0  0  0  0  0  0  0  0  0  0  0  0
    4.2373    0.4508    1.1962 H   0  0  0  0  0  0  0  0  0  0  0  0
    2.4110    0.7398    2.8512 H   0  0  0  0  0  0  0  0  0  0  0  0
    1.8730    0.5463    1.1923 H   0  0  0  0  0  0  0  0  0  0  0  0
    0.5620   -0.7582    3.0001 H   0  0  0  0  0  0  0  0  0  0  0  0
    1.0435   -1.6445    1.5647 H   0  0  0  0  0  0  0  0  0  0  0  0
    5.3547   -2.9197    4.3953 H   0  0  0  0  0  0  0  0  0  0  0  0
    3.9321   -3.9498    4.5775 H   0  0  0  0  0  0  0  0  0  0  0  0
    3.9483   -2.3314    5.1738 H   0  0  0  0  0  0  0  0  0  0  0  0
    2.9471   -1.5133    0.2647 H   0  0  0  0  0  0  0  0  0  0  0  0
    1.6191   -4.5077    1.8091 H   0  0  0  0  0  0  0  0  0  0  0  0
    2.0941   -6.2471   -0.6547 H   0  0  0  0  0  0  0  0  0  0  0  0
    0.8064   -5.1585   -0.5502 H   0  0  0  0  0  0  0  0  0  0  0  0
    0.8168   -6.5739    0.5379 H   0  0  0  0  0  0  0  0  0  0  0  0
  1  2  1  0
  1 31  1  0
  1 32  1  0
  1 33  1  0
  2  3  2  0
  2  4  1  0
  4  5  1  0
  5 29  1  0
  5  6  1  0
  5 34  1  6
  6  7  1  0
  7  8  1  0
  7 12  1  0
  7 35  1  1
  8  9  1  0
  9 10  1  0
  9 11  2  0
 10 36  1  0
 10 37  1  0
 10 38  1  0
 12 26  1  1
 12 28  1  0
 12 13  1  0
 13 14  1  0
 13 29  1  0
 13 39  1  6
 14 15  1  0
 14 40  1  0
 14 41  1  0
 15 16  1  0
 15 17  1  0
 15 42  1  6
 16 43  1  0
 16 44  1  0
 16 45  1  0
 17 28  1  0
 17 18  1  0
 17 46  1  1
 18 19  1  0
 18 47  1  0
 18 48  1  0
 19 20  1  0
 19 49  1  0
 19 50  1  0
 20 26  1  0
 20 21  1  0
 20 51  1  1
 21 22  1  0
 21 28  1  0
 21 52  1  6
 22 23  1  0
 22 53  1  0
 22 54  1  0
 23 24  1  0
 23 55  1  0
 23 56  1  0
 24 25  2  0
 24 26  1  0
 26 27  1  1
 27 57  1  0
 27 58  1  0
 27 59  1  0
 28 60  1  6
 29 30  1  0
 29 61  1  1
 30 62  1  0
 30 63  1  0
 30 64  1  0
M  END
>  <i_m_ct_stereo_status>  (185) 
1

>  <s_m_source_file>  (185) 
/var/tmp/pbs.5076255.sched01/tmp7qb2j_xu/82up84z1qn.sdf

>  <i_m_source_file_index>  (185) 
6

>  <i_lp_mmshare_version>  (185) 
48012

>  <i_f3d_flags>  (185) 
0

>  <s_epik_input>  (185) 
W0NIM11DKD1PKU9bQ0BASF0xT1tDQEBIXShPQyg9TylbQ0gzXSlbQ0BIXShbQ0gzXSlbQ0BIXShbQ0BdMTIzKVtDSDJdW0NAQEhdKFtDSDNdKVtDQEBIXTRbQ0BASF0zW0NAQEhdNVtDQEhdKFtDSDJdW0NIMl00KVtDQEBdMihbQ0gzXSlDKD1PKVtDSDJdW0NIMl01

>  <s_epik_cmdline>  (185) 
J2VwaWtfcHl0aG9uJywgJy1waHQnLCAnMi4wJywgJy1waCcsICc3LjAnLCAnLXRuJywgJzgnLCAnLW1hJywgJzIwMCcsICctaW1hZScsICc8aW5maWxlLm1hZT4nLCAnLW9tYWUnLCAnPG91dGZpbGUubWFlPic=

>  <r_lp_tautomer_probability>  (185) 
1

>  <r_epik_Ionization_Penalty>  (185) 
1.33269e-13

>  <r_epik_Ionization_Penalty_Charging>  (185) 
0

>  <r_epik_Ionization_Penalty_Neutral>  (185) 
1.33269e-13

>  <r_epik_State_Penalty>  (185) 
-0

>  <r_epik_Charging_Adjusted_Penalty>  (185) 
0

>  <i_epik_Tot_Q>  (185) 
0

>  <i_epik_Tot_abs_Q>  (185) 
0

>  <s_epik_Chemistry_Notes>  (185) 
This compound has an ester and may undergo hydrolysis at high or low pH. This compound contains an acetal/aminal-like group ( X-CH(R)-Y where X, Y are N, S, or O) that may be acid/base labile, releasing an aldehyde.

>  <s_lp_Force_Field>  (185) 
OPLS3e

>  <r_lp_Energy>  (185) 
227.009

>  <b_lp_Chiralities_Consistent>  (185) 
1

>  <s_lp_Variant>  (185) 
56:0-1

>  <s_i_glide_gridfile>  (185) 
pfpi4k_grid

>  <i_i_glide_lignum>  (185) 
6

>  <i_i_glide_rotatable_bonds>  (185) 
4

>  <r_i_docking_score>  (185) 
-2.53665

>  <r_i_glide_ligand_efficiency>  (185) 
-0.0845549

>  <r_i_glide_ligand_efficiency_sa>  (185) 
-0.262732

>  <r_i_glide_ligand_efficiency_ln>  (185) 
-0.576354

>  <r_i_glide_gscore>  (185) 
-2.53665

>  <r_i_glide_lipo>  (185) 
-0.42615

>  <r_i_glide_hbond>  (185) 
0

>  <r_i_glide_metal>  (185) 
-0

>  <r_i_glide_rewards>  (185) 
-0.750032

>  <r_i_glide_evdw>  (185) 
-26.4317

>  <r_i_glide_ecoul>  (185) 
-1.74849

>  <r_i_glide_erotb>  (185) 
0.225792

>  <r_i_glide_esite>  (185) 
-0.00239862

>  <r_i_glide_emodel>  (185) 
-28.8473

>  <r_i_glide_energy>  (185) 
-28.1802

>  <r_i_glide_einternal>  (185) 
6.81147

>  <r_i_glide_intrahb_reward>  (185) 
-0

>  <i_i_glide_confnum>  (185) 
1

>  <i_i_glide_posenum>  (185) 
28

>  <r_i_glide_eff_state_penalty>  (185) 
0

>  <ligand_id>  (185) 
56

>  <original_smiles>  (185) 
CC(=O)OC1OC(OC(C)=O)C23C(CC(C)C4CCC5C(CCC(=O)C52C)C43)C1C

>  <smiles>  (185) 
[H]C([H])([H])C(=O)OC1([H])OC([H])(OC(=O)C([H])([H])[H])C23C([H])(C([H])([H])C([H])(C([H])([H])[H])C4([H])C([H])([H])C([H])([H])C5([H])C([H])(C([H])([H])C([H])([H])C(=O)C52C([H])([H])[H])C43[H])C1([H])C([H])([H])[H]

$$$$
56:0:1
     RDKit          3D

 64 68  0  0  1  0  0  0  0  0999 V2000
    2.2754   -8.3877    4.6667 C   0  0  0  0  0  0  0  0  0  0  0  0
    3.2426   -7.5579    3.8261 C   0  0  0  0  0  0  0  0  0  0  0  0
    4.4513   -7.7621    3.8584 O   0  0  0  0  0  0  0  0  0  0  0  0
    2.5888   -6.6341    3.0799 O   0  0  0  0  0  0  0  0  0  0  0  0
    3.3854   -5.7867    2.3026 C   0  0  2  0  0  0  0  0  0  0  0  0
    4.2440   -4.9768    3.1142 O   0  0  0  0  0  0  0  0  0  0  0  0
    4.9914   -3.9392    2.4725 C   0  0  1  0  0  0  0  0  0  0  0  0
    5.9438   -4.4403    1.5504 O   0  0  0  0  0  0  0  0  0  0  0  0
    6.8431   -5.3493    2.0120 C   0  0  0  0  0  0  0  0  0  0  0  0
    7.8592   -5.7346    0.9431 C   0  0  0  0  0  0  0  0  0  0  0  0
    6.9005   -5.8215    3.1473 O   0  0  0  0  0  0  0  0  0  0  0  0
    3.8456   -2.9301    1.9356 C   0  0  1  0  0  0  0  0  0  0  0  0
    3.2682   -3.8619    0.7805 C   0  0  2  0  0  0  0  0  0  0  0  0
    3.3473   -3.3723   -0.7683 C   0  0  0  0  0  0  0  0  0  0  0  0
    4.5105   -2.2801   -1.0912 C   0  0  1  0  0  0  0  0  0  0  0  0
    4.0260   -1.2064   -2.0836 C   0  0  0  0  0  0  0  0  0  0  0  0
    5.0030   -1.6989    0.2678 C   0  0  1  0  0  0  0  0  0  0  0  0
    6.0011   -0.6973    0.8906 C   0  0  0  0  0  0  0  0  0  0  0  0
    5.7416   -0.6752    2.4936 C   0  0  0  0  0  0  0  0  0  0  0  0
    4.2114   -0.7347    3.0118 C   0  0  1  0  0  0  0  0  0  0  0  0
    3.5020   -0.2776    1.8112 C   0  0  2  0  0  0  0  0  0  0  0  0
    2.0264    0.0947    2.0653 C   0  0  0  0  0  0  0  0  0  0  0  0
    1.1719   -1.0964    2.4763 C   0  0  0  0  0  0  0  0  0  0  0  0
    1.9155   -2.0168    3.4241 C   0  0  0  0  0  0  0  0  0  0  0  0
    1.2787   -2.6774    4.2428 O   0  0  0  0  0  0  0  0  0  0  0  0
    3.4595   -2.1404    3.2734 C   0  0  1  0  0  0  0  0  0  0  0  0
    3.9616   -2.5917    4.6872 C   0  0  0  0  0  0  0  0  0  0  0  0
    3.7973   -1.6097    1.0834 C   0  0  2  0  0  0  0  0  0  0  0  0
    2.3986   -4.9365    1.4141 C   0  0  1  0  0  0  0  0  0  0  0  0
    1.7246   -5.8317    0.3682 C   0  0  0  0  0  0  0  0  0  0  0  0
    1.5678   -8.9052    4.0209 H   0  0  0  0  0  0  0  0  0  0  0  0
    1.7188   -7.7509    5.3528 H   0  0  0  0  0  0  0  0  0  0  0  0
    2.8171   -9.1323    5.2501 H   0  0  0  0  0  0  0  0  0  0  0  0
    4.0221   -6.4100    1.6710 H   0  0  0  0  0  0  0  0  0  0  0  0
    5.6381   -3.4740    3.2115 H   0  0  0  0  0  0  0  0  0  0  0  0
    8.3612   -4.8489    0.5564 H   0  0  0  0  0  0  0  0  0  0  0  0
    7.3698   -6.2500    0.1193 H   0  0  0  0  0  0  0  0  0  0  0  0
    8.6080   -6.3982    1.3693 H   0  0  0  0  0  0  0  0  0  0  0  0
    4.0383   -4.5590    0.4694 H   0  0  0  0  0  0  0  0  0  0  0  0
    3.5041   -4.2281   -1.4232 H   0  0  0  0  0  0  0  0  0  0  0  0
    2.3814   -2.9769   -1.0807 H   0  0  0  0  0  0  0  0  0  0  0  0
    5.3550   -2.7894   -1.5588 H   0  0  0  0  0  0  0  0  0  0  0  0
    3.1508   -0.6743   -1.7056 H   0  0  0  0  0  0  0  0  0  0  0  0
    3.7304   -1.6641   -3.0284 H   0  0  0  0  0  0  0  0  0  0  0  0
    4.7964   -0.4623   -2.3000 H   0  0  0  0  0  0  0  0  0  0  0  0
    5.6252   -2.5355    0.4960 H   0  0  0  0  0  0  0  0  0  0  0  0
    7.0302   -0.9996    0.6934 H   0  0  0  0  0  0  0  0  0  0  0  0
    5.8828    0.3009    0.4736 H   0  0  0  0  0  0  0  0  0  0  0  0
    6.2813   -1.4996    2.9408 H   0  0  0  0  0  0  0  0  0  0  0  0
    6.1963    0.2320    2.8927 H   0  0  0  0  0  0  0  0  0  0  0  0
    4.0712   -0.0443    3.8468 H   0  0  0  0  0  0  0  0  0  0  0  0
    3.9454    0.6066    1.3468 H   0  0  0  0  0  0  0  0  0  0  0  0
    1.9762    0.8644    2.8375 H   0  0  0  0  0  0  0  0  0  0  0  0
    1.5989    0.5380    1.1629 H   0  0  0  0  0  0  0  0  0  0  0  0
    0.2363   -0.7621    2.9246 H   0  0  0  0  0  0  0  0  0  0  0  0
    0.9153   -1.6813    1.5961 H   0  0  0  0  0  0  0  0  0  0  0  0
    5.0351   -2.4791    4.8338 H   0  0  0  0  0  0  0  0  0  0  0  0
    3.6753   -3.6081    4.9498 H   0  0  0  0  0  0  0  0  0  0  0  0
    3.5203   -1.9642    5.4622 H   0  0  0  0  0  0  0  0  0  0  0  0
    2.8947   -1.5214    0.4820 H   0  0  0  0  0  0  0  0  0  0  0  0
    1.6634   -4.4779    2.0748 H   0  0  0  0  0  0  0  0  0  0  0  0
    2.4772   -6.2487   -0.2988 H   0  0  0  0  0  0  0  0  0  0  0  0
    1.0489   -5.2653   -0.2664 H   0  0  0  0  0  0  0  0  0  0  0  0
    1.1590   -6.6452    0.8159 H   0  0  0  0  0  0  0  0  0  0  0  0
  1  2  1  0
  1 31  1  0
  1 32  1  0
  1 33  1  0
  2  3  2  0
  2  4  1  0
  4  5  1  0
  5 29  1  0
  5  6  1  0
  5 34  1  6
  6  7  1  0
  7  8  1  0
  7 12  1  0
  7 35  1  1
  8  9  1  0
  9 10  1  0
  9 11  2  0
 10 36  1  0
 10 37  1  0
 10 38  1  0
 12 26  1  1
 12 28  1  0
 12 13  1  0
 13 14  1  0
 13 29  1  0
 13 39  1  6
 14 15  1  0
 14 40  1  0
 14 41  1  0
 15 16  1  0
 15 17  1  0
 15 42  1  6
 16 43  1  0
 16 44  1  0
 16 45  1  0
 17 28  1  0
 17 18  1  0
 17 46  1  1
 18 19  1  0
 18 47  1  0
 18 48  1  0
 19 20  1  0
 19 49  1  0
 19 50  1  0
 20 26  1  0
 20 21  1  0
 20 51  1  1
 21 22  1  0
 21 28  1  0
 21 52  1  6
 22 23  1  0
 22 53  1  0
 22 54  1  0
 23 24  1  0
 23 55  1  0
 23 56  1  0
 24 25  2  0
 24 26  1  0
 26 27  1  1
 27 57  1  0
 27 58  1  0
 27 59  1  0
 28 60  1  6
 29 30  1  0
 29 61  1  1
 30 62  1  0
 30 63  1  0
 30 64  1  0
M  END
>  <i_m_ct_stereo_status>  (186) 
1

>  <s_m_source_file>  (186) 
/var/tmp/pbs.5076255.sched01/tmp7qb2j_xu/82up84z1qn.sdf

>  <i_m_source_file_index>  (186) 
6

>  <i_lp_mmshare_version>  (186) 
48012

>  <i_f3d_flags>  (186) 
0

>  <s_epik_input>  (186) 
W0NIM11DKD1PKU9bQ0BASF0xT1tDQEBIXShPQyg9TylbQ0gzXSlbQ0BIXShbQ0gzXSlbQ0BIXShbQ0BdMTIzKVtDSDJdW0NAQEhdKFtDSDNdKVtDQEBIXTRbQ0BASF0zW0NAQEhdNVtDQEhdKFtDSDJdW0NIMl00KVtDQEBdMihbQ0gzXSlDKD1PKVtDSDJdW0NIMl01

>  <s_epik_cmdline>  (186) 
J2VwaWtfcHl0aG9uJywgJy1waHQnLCAnMi4wJywgJy1waCcsICc3LjAnLCAnLXRuJywgJzgnLCAnLW1hJywgJzIwMCcsICctaW1hZScsICc8aW5maWxlLm1hZT4nLCAnLW9tYWUnLCAnPG91dGZpbGUubWFlPic=

>  <r_lp_tautomer_probability>  (186) 
1

>  <r_epik_Ionization_Penalty>  (186) 
1.33269e-13

>  <r_epik_Ionization_Penalty_Charging>  (186) 
0

>  <r_epik_Ionization_Penalty_Neutral>  (186) 
1.33269e-13

>  <r_epik_State_Penalty>  (186) 
-0

>  <r_epik_Charging_Adjusted_Penalty>  (186) 
0

>  <i_epik_Tot_Q>  (186) 
0

>  <i_epik_Tot_abs_Q>  (186) 
0

>  <s_epik_Chemistry_Notes>  (186) 
This compound has an ester and may undergo hydrolysis at high or low pH. This compound contains an acetal/aminal-like group ( X-CH(R)-Y where X, Y are N, S, or O) that may be acid/base labile, releasing an aldehyde.

>  <s_lp_Force_Field>  (186) 
OPLS3e

>  <r_lp_Energy>  (186) 
227.009

>  <b_lp_Chiralities_Consistent>  (186) 
1

>  <s_lp_Variant>  (186) 
56:0-1

>  <s_i_glide_gridfile>  (186) 
pfpi4k_grid

>  <i_i_glide_lignum>  (186) 
6

>  <i_i_glide_rotatable_bonds>  (186) 
4

>  <r_i_docking_score>  (186) 
-2.33087

>  <r_i_glide_ligand_efficiency>  (186) 
-0.0776956

>  <r_i_glide_ligand_efficiency_sa>  (186) 
-0.241418

>  <r_i_glide_ligand_efficiency_ln>  (186) 
-0.529599

>  <r_i_glide_gscore>  (186) 
-2.33087

>  <r_i_glide_lipo>  (186) 
-0.344874

>  <r_i_glide_hbond>  (186) 
0

>  <r_i_glide_metal>  (186) 
-0

>  <r_i_glide_rewards>  (186) 
-0.688567

>  <r_i_glide_evdw>  (186) 
-27.492

>  <r_i_glide_ecoul>  (186) 
-0.990327

>  <r_i_glide_erotb>  (186) 
0.225792

>  <r_i_glide_esite>  (186) 
-6.78779e-05

>  <r_i_glide_emodel>  (186) 
-32.5827

>  <r_i_glide_energy>  (186) 
-28.4824

>  <r_i_glide_einternal>  (186) 
0.227076

>  <r_i_glide_intrahb_reward>  (186) 
-0

>  <i_i_glide_confnum>  (186) 
1

>  <i_i_glide_posenum>  (186) 
7

>  <r_i_glide_eff_state_penalty>  (186) 
0

>  <ligand_id>  (186) 
56

>  <original_smiles>  (186) 
CC(=O)OC1OC(OC(C)=O)C23C(CC(C)C4CCC5C(CCC(=O)C52C)C43)C1C

>  <smiles>  (186) 
[H]C([H])([H])C(=O)OC1([H])OC([H])(OC(=O)C([H])([H])[H])C23C([H])(C([H])([H])C([H])(C([H])([H])[H])C4([H])C([H])([H])C([H])([H])C5([H])C([H])(C([H])([H])C([H])([H])C(=O)C52C([H])([H])[H])C43[H])C1([H])C([H])([H])[H]

$$$$
56:0:2
     RDKit          3D

 64 68  0  0  1  0  0  0  0  0999 V2000
    3.7033   -1.9057   -3.1800 C   0  0  0  0  0  0  0  0  0  0  0  0
    3.3074   -2.8608   -2.0647 C   0  0  0  0  0  0  0  0  0  0  0  0
    2.2229   -3.4419   -2.0934 O   0  0  0  0  0  0  0  0  0  0  0  0
    4.2622   -2.9478   -1.0959 O   0  0  0  0  0  0  0  0  0  0  0  0
    4.0475   -3.8402   -0.0275 C   0  0  2  0  0  0  0  0  0  0  0  0
    2.7559   -3.6831    0.5928 O   0  0  0  0  0  0  0  0  0  0  0  0
    2.4780   -4.3726    1.8191 C   0  0  1  0  0  0  0  0  0  0  0  0
    2.4487   -5.7699    1.6117 O   0  0  0  0  0  0  0  0  0  0  0  0
    1.3382   -6.4687    2.0138 C   0  0  0  0  0  0  0  0  0  0  0  0
    1.4950   -7.9800    1.8047 C   0  0  0  0  0  0  0  0  0  0  0  0
    0.3032   -5.9977    2.5120 O   0  0  0  0  0  0  0  0  0  0  0  0
    3.5425   -3.7517    2.8416 C   0  0  1  0  0  0  0  0  0  0  0  0
    4.8645   -4.4081    2.2115 C   0  0  2  0  0  0  0  0  0  0  0  0
    5.7270   -5.4622    3.0969 C   0  0  0  0  0  0  0  0  0  0  0  0
    4.9008   -6.1897    4.3117 C   0  0  1  0  0  0  0  0  0  0  0  0
    5.7583   -6.3504    5.5678 C   0  0  0  0  0  0  0  0  0  0  0  0
    3.6054   -5.3732    4.5644 C   0  0  1  0  0  0  0  0  0  0  0  0
    2.2712   -5.3635    5.3544 C   0  0  0  0  0  0  0  0  0  0  0  0
    1.4301   -4.0107    4.9584 C   0  0  0  0  0  0  0  0  0  0  0  0
    2.2796   -2.6602    4.6740 C   0  0  1  0  0  0  0  0  0  0  0  0
    3.5157   -2.9614    5.4050 C   0  0  2  0  0  0  0  0  0  0  0  0
    4.4212   -1.7448    5.6207 C   0  0  0  0  0  0  0  0  0  0  0  0
    4.9781   -1.1757    4.3193 C   0  0  0  0  0  0  0  0  0  0  0  0
    3.9397   -1.1891    3.2113 C   0  0  0  0  0  0  0  0  0  0  0  0
    3.9816   -0.3377    2.3174 O   0  0  0  0  0  0  0  0  0  0  0  0
    2.8747   -2.3454    3.2197 C   0  0  1  0  0  0  0  0  0  0  0  0
    1.6700   -1.7410    2.4181 C   0  0  0  0  0  0  0  0  0  0  0  0
    3.9737   -3.9824    4.3446 C   0  0  2  0  0  0  0  0  0  0  0  0
    5.2572   -3.6365    0.9642 C   0  0  1  0  0  0  0  0  0  0  0  0
    6.5791   -4.1275    0.3547 C   0  0  0  0  0  0  0  0  0  0  0  0
    4.6198   -2.2347   -3.6620 H   0  0  0  0  0  0  0  0  0  0  0  0
    3.8509   -0.9001   -2.7955 H   0  0  0  0  0  0  0  0  0  0  0  0
    2.9179   -1.8681   -3.9348 H   0  0  0  0  0  0  0  0  0  0  0  0
    4.0737   -4.8429   -0.4619 H   0  0  0  0  0  0  0  0  0  0  0  0
    1.4678   -4.0932    2.0865 H   0  0  0  0  0  0  0  0  0  0  0  0
    2.4919   -8.3291    2.0751 H   0  0  0  0  0  0  0  0  0  0  0  0
    1.2944   -8.2458    0.7677 H   0  0  0  0  0  0  0  0  0  0  0  0
    0.7802   -8.5006    2.4300 H   0  0  0  0  0  0  0  0  0  0  0  0
    4.5768   -5.3013    1.6437 H   0  0  0  0  0  0  0  0  0  0  0  0
    6.1508   -6.2232    2.4474 H   0  0  0  0  0  0  0  0  0  0  0  0
    6.5999   -4.9769    3.5282 H   0  0  0  0  0  0  0  0  0  0  0  0
    4.6249   -7.1980    3.9668 H   0  0  0  0  0  0  0  0  0  0  0  0
    6.0797   -5.3784    5.9474 H   0  0  0  0  0  0  0  0  0  0  0  0
    6.6507   -6.9371    5.3574 H   0  0  0  0  0  0  0  0  0  0  0  0
    5.2012   -6.8489    6.3562 H   0  0  0  0  0  0  0  0  0  0  0  0
    3.1451   -5.8221    3.6917 H   0  0  0  0  0  0  0  0  0  0  0  0
    1.6855   -6.2455    5.1465 H   0  0  0  0  0  0  0  0  0  0  0  0
    2.4801   -5.3936    6.4267 H   0  0  0  0  0  0  0  0  0  0  0  0
    0.7507   -4.1831    4.1053 H   0  0  0  0  0  0  0  0  0  0  0  0
    0.7790   -3.8077    5.8231 H   0  0  0  0  0  0  0  0  0  0  0  0
    1.7618   -1.7948    5.0942 H   0  0  0  0  0  0  0  0  0  0  0  0
    3.3511   -3.3855    6.4013 H   0  0  0  0  0  0  0  0  0  0  0  0
    3.8463   -0.9809    6.1315 H   0  0  0  0  0  0  0  0  0  0  0  0
    5.2538   -2.0166    6.2669 H   0  0  0  0  0  0  0  0  0  0  0  0
    5.3418   -0.1568    4.4660 H   0  0  0  0  0  0  0  0  0  0  0  0
    5.8095   -1.7695    3.9538 H   0  0  0  0  0  0  0  0  0  0  0  0
    0.7344   -2.2921    2.5390 H   0  0  0  0  0  0  0  0  0  0  0  0
    1.8627   -1.6085    1.3475 H   0  0  0  0  0  0  0  0  0  0  0  0
    1.4196   -0.7442    2.7804 H   0  0  0  0  0  0  0  0  0  0  0  0
    5.0345   -3.8078    4.5291 H   0  0  0  0  0  0  0  0  0  0  0  0
    5.3458   -2.5810    1.2115 H   0  0  0  0  0  0  0  0  0  0  0  0
    6.5408   -5.1883    0.0820 H   0  0  0  0  0  0  0  0  0  0  0  0
    7.4018   -4.0018    1.0553 H   0  0  0  0  0  0  0  0  0  0  0  0
    6.8418   -3.5686   -0.5469 H   0  0  0  0  0  0  0  0  0  0  0  0
  1  2  1  0
  1 31  1  0
  1 32  1  0
  1 33  1  0
  2  3  2  0
  2  4  1  0
  4  5  1  0
  5 29  1  0
  5  6  1  0
  5 34  1  6
  6  7  1  0
  7  8  1  0
  7 12  1  0
  7 35  1  1
  8  9  1  0
  9 10  1  0
  9 11  2  0
 10 36  1  0
 10 37  1  0
 10 38  1  0
 12 26  1  1
 12 28  1  0
 12 13  1  0
 13 14  1  0
 13 29  1  0
 13 39  1  6
 14 15  1  0
 14 40  1  0
 14 41  1  0
 15 16  1  0
 15 17  1  0
 15 42  1  6
 16 43  1  0
 16 44  1  0
 16 45  1  0
 17 28  1  0
 17 18  1  0
 17 46  1  6
 18 19  1  0
 18 47  1  0
 18 48  1  0
 19 20  1  0
 19 49  1  0
 19 50  1  0
 20 26  1  0
 20 21  1  0
 20 51  1  1
 21 22  1  0
 21 28  1  0
 21 52  1  1
 22 23  1  0
 22 53  1  0
 22 54  1  0
 23 24  1  0
 23 55  1  0
 23 56  1  0
 24 25  2  0
 24 26  1  0
 26 27  1  6
 27 57  1  0
 27 58  1  0
 27 59  1  0
 28 60  1  6
 29 30  1  0
 29 61  1  1
 30 62  1  0
 30 63  1  0
 30 64  1  0
M  END
>  <i_m_ct_stereo_status>  (187) 
1

>  <s_m_source_file>  (187) 
/var/tmp/pbs.5076255.sched01/tmp7qb2j_xu/82up84z1qn.sdf

>  <i_m_source_file_index>  (187) 
6

>  <i_lp_mmshare_version>  (187) 
48012

>  <i_f3d_flags>  (187) 
0

>  <s_epik_input>  (187) 
W0NIM11DKD1PKU9bQ0BASF0xT1tDQEBIXShPQyg9TylbQ0gzXSlbQ0BIXShbQ0gzXSlbQ0BIXShbQ0BdMTIzKVtDSDJdW0NAQEhdKFtDSDNdKVtDQEBIXTRbQ0BASF0zW0NAQEhdNVtDQEhdKFtDSDJdW0NIMl00KVtDQEBdMihbQ0gzXSlDKD1PKVtDSDJdW0NIMl01

>  <s_epik_cmdline>  (187) 
J2VwaWtfcHl0aG9uJywgJy1waHQnLCAnMi4wJywgJy1waCcsICc3LjAnLCAnLXRuJywgJzgnLCAnLW1hJywgJzIwMCcsICctaW1hZScsICc8aW5maWxlLm1hZT4nLCAnLW9tYWUnLCAnPG91dGZpbGUubWFlPic=

>  <r_lp_tautomer_probability>  (187) 
1

>  <r_epik_Ionization_Penalty>  (187) 
1.33269e-13

>  <r_epik_Ionization_Penalty_Charging>  (187) 
0

>  <r_epik_Ionization_Penalty_Neutral>  (187) 
1.33269e-13

>  <r_epik_State_Penalty>  (187) 
-0

>  <r_epik_Charging_Adjusted_Penalty>  (187) 
0

>  <i_epik_Tot_Q>  (187) 
0

>  <i_epik_Tot_abs_Q>  (187) 
0

>  <s_epik_Chemistry_Notes>  (187) 
This compound has an ester and may undergo hydrolysis at high or low pH. This compound contains an acetal/aminal-like group ( X-CH(R)-Y where X, Y are N, S, or O) that may be acid/base labile, releasing an aldehyde.

>  <s_lp_Force_Field>  (187) 
OPLS3e

>  <r_lp_Energy>  (187) 
227.009

>  <b_lp_Chiralities_Consistent>  (187) 
1

>  <s_lp_Variant>  (187) 
56:0-1

>  <s_i_glide_gridfile>  (187) 
pfpi4k_grid

>  <i_i_glide_lignum>  (187) 
6

>  <i_i_glide_rotatable_bonds>  (187) 
4

>  <r_i_docking_score>  (187) 
-2.28536

>  <r_i_glide_ligand_efficiency>  (187) 
-0.0761788

>  <r_i_glide_ligand_efficiency_sa>  (187) 
-0.236705

>  <r_i_glide_ligand_efficiency_ln>  (187) 
-0.51926

>  <r_i_glide_gscore>  (187) 
-2.28536

>  <r_i_glide_lipo>  (187) 
-0.351918

>  <r_i_glide_hbond>  (187) 
-0.155765

>  <r_i_glide_metal>  (187) 
-0

>  <r_i_glide_rewards>  (187) 
-0.564259

>  <r_i_glide_evdw>  (187) 
-25.2651

>  <r_i_glide_ecoul>  (187) 
-0.589158

>  <r_i_glide_erotb>  (187) 
0.225792

>  <r_i_glide_esite>  (187) 
-0.0875844

>  <r_i_glide_emodel>  (187) 
-27.131

>  <r_i_glide_energy>  (187) 
-25.8543

>  <r_i_glide_einternal>  (187) 
3.83575

>  <r_i_glide_intrahb_reward>  (187) 
-0

>  <i_i_glide_confnum>  (187) 
2

>  <i_i_glide_posenum>  (187) 
5

>  <r_i_glide_eff_state_penalty>  (187) 
0

>  <ligand_id>  (187) 
56

>  <original_smiles>  (187) 
CC(=O)OC1OC(OC(C)=O)C23C(CC(C)C4CCC5C(CCC(=O)C52C)C43)C1C

>  <smiles>  (187) 
[H]C([H])([H])C(=O)OC1([H])OC([H])(OC(=O)C([H])([H])[H])C23C([H])(C([H])([H])C([H])(C([H])([H])[H])C4([H])C([H])([H])C([H])([H])C5([H])C([H])(C([H])([H])C([H])([H])C(=O)C52C([H])([H])[H])C43[H])C1([H])C([H])([H])[H]

$$$$
57:0:0
     RDKit          3D

 65 69  0  0  1  0  0  0  0  0999 V2000
    4.8783   -3.9404    3.8160 C   0  0  0  0  0  0  0  0  0  0  0  0
    3.5091   -3.4368    3.3222 C   0  0  1  0  0  0  0  0  0  0  0  0
    3.6106   -3.3863    1.7970 C   0  0  0  0  0  0  0  0  0  0  0  0
    3.0301   -4.2290    0.9213 C   0  0  0  0  0  0  0  0  0  0  0  0
    2.2154   -5.3412    1.3906 C   0  0  0  0  0  0  0  0  0  0  0  0
    1.5278   -6.0243    0.6257 O   0  0  0  0  0  0  0  0  0  0  0  0
    2.1821   -5.6699    2.8792 C   0  0  0  0  0  0  0  0  0  0  0  0
    2.4670   -4.4734    3.7961 C   0  0  0  0  0  0  0  0  0  0  0  0
    1.9007   -4.3393    5.0222 C   0  0  0  0  0  0  0  0  0  0  0  0
    0.9311   -5.3564    5.6218 C   0  0  0  0  0  0  0  0  0  0  0  0
    1.5143   -6.5540    5.6928 F   0  0  0  0  0  0  0  0  0  0  0  0
    0.5362   -5.0221    6.8469 F   0  0  0  0  0  0  0  0  0  0  0  0
   -0.1675   -5.4655    4.8699 F   0  0  0  0  0  0  0  0  0  0  0  0
    2.2983   -3.1551    5.9093 C   0  0  0  0  0  0  0  0  0  0  0  0
    2.2329   -1.8714    5.0840 C   0  0  2  0  0  0  0  0  0  0  0  0
    3.1622   -1.9932    3.8538 C   0  0  1  0  0  0  0  0  0  0  0  0
    4.3703   -1.0351    3.9457 C   0  0  0  0  0  0  0  0  0  0  0  0
    4.0422    0.4443    4.2335 C   0  0  0  0  0  0  0  0  0  0  0  0
    2.8129    0.7417    5.1525 C   0  0  2  0  0  0  0  0  0  0  0  0
    3.3711    1.7275    6.2353 C   0  0  0  0  0  0  0  0  0  0  0  0
    2.4246   -0.5682    5.9277 C   0  0  1  0  0  0  0  0  0  0  0  0
    1.2559   -0.3050    6.9174 C   0  0  0  0  0  0  0  0  0  0  0  0
    0.2528    0.7361    6.4674 C   0  0  0  0  0  0  0  0  0  0  0  0
    0.3447    1.5020    5.3671 C   0  0  0  0  0  0  0  0  0  0  0  0
   -0.8306    2.4235    5.0158 C   0  0  0  0  0  0  0  0  0  0  0  0
   -0.4034    3.7604    4.4251 C   0  0  0  0  0  0  0  0  0  0  0  0
   -0.9743    4.8090    4.7182 O   0  0  0  0  0  0  0  0  0  0  0  0
    0.7161    3.7058    3.3990 C   0  0  0  0  0  0  0  0  0  0  0  0
    1.9076    2.9241    3.9740 C   0  0  0  0  0  0  0  0  0  0  0  0
    1.5641    1.4480    4.4046 C   0  0  1  0  0  0  0  0  0  0  0  0
    1.0672    0.6470    3.1601 C   0  0  0  0  0  0  0  0  0  0  0  0
    0.1419   -0.1607    3.2348 O   0  0  0  0  0  0  0  0  0  0  0  0
    1.7126    0.8810    1.7938 C   0  0  0  0  0  0  0  0  0  0  0  0
    2.2090   -0.3215    1.2741 O   0  0  0  0  0  0  0  0  0  0  0  0
    5.0608   -4.9669    3.4885 H   0  0  0  0  0  0  0  0  0  0  0  0
    4.9518   -3.9285    4.9027 H   0  0  0  0  0  0  0  0  0  0  0  0
    5.6940   -3.3342    3.4204 H   0  0  0  0  0  0  0  0  0  0  0  0
    4.2104   -2.5725    1.4026 H   0  0  0  0  0  0  0  0  0  0  0  0
    3.1643   -4.1053   -0.1443 H   0  0  0  0  0  0  0  0  0  0  0  0
    1.1970   -6.0805    3.0941 H   0  0  0  0  0  0  0  0  0  0  0  0
    2.8980   -6.4683    3.0797 H   0  0  0  0  0  0  0  0  0  0  0  0
    1.6773   -3.0697    6.7940 H   0  0  0  0  0  0  0  0  0  0  0  0
    3.3123   -3.3257    6.2725 H   0  0  0  0  0  0  0  0  0  0  0  0
    1.2132   -1.8482    4.7066 H   0  0  0  0  0  0  0  0  0  0  0  0
    2.4964   -1.6364    3.0934 H   0  0  0  0  0  0  0  0  0  0  0  0
    5.0310   -1.3880    4.7400 H   0  0  0  0  0  0  0  0  0  0  0  0
    4.9451   -1.0800    3.0207 H   0  0  0  0  0  0  0  0  0  0  0  0
    4.9473    0.8512    4.6925 H   0  0  0  0  0  0  0  0  0  0  0  0
    3.9624    0.9831    3.2976 H   0  0  0  0  0  0  0  0  0  0  0  0
    2.5935    2.1477    6.8751 H   0  0  0  0  0  0  0  0  0  0  0  0
    3.9120    2.5614    5.7896 H   0  0  0  0  0  0  0  0  0  0  0  0
    4.0874    1.2298    6.8869 H   0  0  0  0  0  0  0  0  0  0  0  0
    3.2824   -0.8021    6.5579 H   0  0  0  0  0  0  0  0  0  0  0  0
    0.6916   -1.2122    7.1133 H   0  0  0  0  0  0  0  0  0  0  0  0
    1.6519    0.0274    7.8792 H   0  0  0  0  0  0  0  0  0  0  0  0
   -0.6172    0.8312    7.1044 H   0  0  0  0  0  0  0  0  0  0  0  0
   -1.4751    1.9330    4.2892 H   0  0  0  0  0  0  0  0  0  0  0  0
   -1.4377    2.6105    5.9044 H   0  0  0  0  0  0  0  0  0  0  0  0
    0.3249    3.2284    2.4999 H   0  0  0  0  0  0  0  0  0  0  0  0
    1.0129    4.7142    3.1205 H   0  0  0  0  0  0  0  0  0  0  0  0
    2.7432    2.9747    3.2737 H   0  0  0  0  0  0  0  0  0  0  0  0
    2.2472    3.5104    4.8238 H   0  0  0  0  0  0  0  0  0  0  0  0
    0.9544    1.2825    1.1192 H   0  0  0  0  0  0  0  0  0  0  0  0
    2.5338    1.5888    1.8002 H   0  0  0  0  0  0  0  0  0  0  0  0
    1.6152   -0.6133    0.5738 H   0  0  0  0  0  0  0  0  0  0  0  0
  2  1  1  1
  1 35  1  0
  1 36  1  0
  1 37  1  0
  2  8  1  0
  2 16  1  0
  2  3  1  0
  3  4  2  0
  3 38  1  0
  4  5  1  0
  4 39  1  0
  5  6  2  0
  5  7  1  0
  7  8  1  0
  7 40  1  0
  7 41  1  0
  8  9  2  0
  9 10  1  0
  9 14  1  0
 10 11  1  0
 10 12  1  0
 10 13  1  0
 14 15  1  0
 14 42  1  0
 14 43  1  0
 15 21  1  0
 15 16  1  0
 15 44  1  6
 16 17  1  0
 16 45  1  6
 17 18  1  0
 17 46  1  0
 17 47  1  0
 18 19  1  0
 18 48  1  0
 18 49  1  0
 19 30  1  0
 19 20  1  1
 19 21  1  0
 20 50  1  0
 20 51  1  0
 20 52  1  0
 21 22  1  0
 21 53  1  1
 22 23  1  0
 22 54  1  0
 22 55  1  0
 23 24  2  0
 23 56  1  0
 24 30  1  0
 24 25  1  0
 25 26  1  0
 25 57  1  0
 25 58  1  0
 26 27  2  0
 26 28  1  0
 28 29  1  0
 28 59  1  0
 28 60  1  0
 29 30  1  0
 29 61  1  0
 29 62  1  0
 30 31  1  6
 31 32  2  0
 31 33  1  0
 33 34  1  0
 33 63  1  0
 33 64  1  0
 34 65  1  0
M  END
>  <i_m_ct_stereo_status>  (188) 
1

>  <s_m_source_file>  (188) 
/var/tmp/pbs.5076255.sched01/tmp7qb2j_xu/82up84z1qn.sdf

>  <i_m_source_file_index>  (188) 
7

>  <i_lp_mmshare_version>  (188) 
48012

>  <i_f3d_flags>  (188) 
0

>  <s_epik_input>  (188) 
W0NIXTE9W0NIXUMoPU8pW0NIMl1DKFtDQEBdMTJbQ0gzXSk9QyhDKEYpKEYpRilbQ0gyXVtDQEBIXTNbQ0BIXTJbQ0gyXVtDSDJdW0NAXTQoW0NIM10pW0NASF0zW0NIMl1bQ0hdPUM1W0NAQF00KEMoPU8pW0NIMl1bT0hdKVtDSDJdW0NIMl1DKD1PKVtDSDJdNQ==

>  <s_epik_cmdline>  (188) 
J2VwaWtfcHl0aG9uJywgJy1waHQnLCAnMi4wJywgJy1waCcsICc3LjAnLCAnLXRuJywgJzgnLCAnLW1hJywgJzIwMCcsICctaW1hZScsICc8aW5maWxlLm1hZT4nLCAnLW9tYWUnLCAnPG91dGZpbGUubWFlPic=

>  <r_lp_tautomer_probability>  (188) 
1

>  <r_epik_Ionization_Penalty>  (188) 
4.04619e-06

>  <r_epik_Ionization_Penalty_Charging>  (188) 
0

>  <r_epik_Ionization_Penalty_Neutral>  (188) 
4.04619e-06

>  <r_epik_State_Penalty>  (188) 
-0

>  <r_epik_Charging_Adjusted_Penalty>  (188) 
0

>  <i_epik_Tot_Q>  (188) 
0

>  <i_epik_Tot_abs_Q>  (188) 
0

>  <s_lp_Force_Field>  (188) 
OPLS3e

>  <r_lp_Energy>  (188) 
92.7238

>  <b_lp_Chiralities_Consistent>  (188) 
1

>  <s_lp_Variant>  (188) 
57:0-1

>  <s_i_glide_gridfile>  (188) 
pfpi4k_grid

>  <i_i_glide_lignum>  (188) 
7

>  <i_i_glide_rotatable_bonds>  (188) 
4

>  <r_i_docking_score>  (188) 
-2.45181

>  <r_i_glide_ligand_efficiency>  (188) 
-0.0721122

>  <r_i_glide_ligand_efficiency_sa>  (188) 
-0.233615

>  <r_i_glide_ligand_efficiency_ln>  (188) 
-0.541674

>  <r_i_glide_gscore>  (188) 
-2.45181

>  <r_i_glide_lipo>  (188) 
-0.0484686

>  <r_i_glide_hbond>  (188) 
-0.159457

>  <r_i_glide_metal>  (188) 
-0

>  <r_i_glide_rewards>  (188) 
-0.160037

>  <r_i_glide_evdw>  (188) 
-19.4221

>  <r_i_glide_ecoul>  (188) 
-7.86874

>  <r_i_glide_erotb>  (188) 
0.178356

>  <r_i_glide_esite>  (188) 
-0.11079

>  <r_i_glide_emodel>  (188) 
-28.2198

>  <r_i_glide_energy>  (188) 
-27.2909

>  <r_i_glide_einternal>  (188) 
3.86316

>  <r_i_glide_intrahb_reward>  (188) 
-0

>  <i_i_glide_confnum>  (188) 
5

>  <i_i_glide_posenum>  (188) 
36

>  <r_i_glide_eff_state_penalty>  (188) 
0

>  <ligand_id>  (188) 
57

>  <original_smiles>  (188) 
CC12C=CC(=O)CC1=C(C(F)(F)F)CC1C2CCC2(C)C1CC=C1CC(=O)CCC12C(=O)CO

>  <smiles>  (188) 
[H]OC([H])([H])C(=O)C12C(=C([H])C([H])([H])C3([H])C4([H])C([H])([H])C(C(F)(F)F)=C5C([H])([H])C(=O)C([H])=C([H])C5(C([H])([H])[H])C4([H])C([H])([H])C([H])([H])C13C([H])([H])[H])C([H])([H])C(=O)C([H])([H])C2([H])[H]

$$$$
57:0:1
     RDKit          3D

 65 69  0  0  1  0  0  0  0  0999 V2000
    2.1981   -1.1244    6.9305 C   0  0  0  0  0  0  0  0  0  0  0  0
    1.5513   -1.8708    5.7414 C   0  0  1  0  0  0  0  0  0  0  0  0
    0.2907   -2.5246    6.3033 C   0  0  0  0  0  0  0  0  0  0  0  0
   -0.9727   -2.1552    6.0539 C   0  0  0  0  0  0  0  0  0  0  0  0
   -1.2635   -0.9820    5.2461 C   0  0  0  0  0  0  0  0  0  0  0  0
   -2.4197   -0.6635    4.9812 O   0  0  0  0  0  0  0  0  0  0  0  0
   -0.1287   -0.0822    4.7741 C   0  0  0  0  0  0  0  0  0  0  0  0
    1.2285   -0.7938    4.6820 C   0  0  0  0  0  0  0  0  0  0  0  0
    2.1706   -0.4454    3.7704 C   0  0  0  0  0  0  0  0  0  0  0  0
    1.9916    0.6690    2.7351 C   0  0  0  0  0  0  0  0  0  0  0  0
    1.8825    1.8462    3.3531 F   0  0  0  0  0  0  0  0  0  0  0  0
    3.0144    0.7454    1.8859 F   0  0  0  0  0  0  0  0  0  0  0  0
    0.8934    0.4726    2.0063 F   0  0  0  0  0  0  0  0  0  0  0  0
    3.5205   -1.1586    3.8017 C   0  0  0  0  0  0  0  0  0  0  0  0
    3.2920   -2.6744    3.8868 C   0  0  2  0  0  0  0  0  0  0  0  0
    2.4514   -3.0243    5.1453 C   0  0  1  0  0  0  0  0  0  0  0  0
    3.2998   -3.7561    6.2044 C   0  0  0  0  0  0  0  0  0  0  0  0
    4.0509   -5.0076    5.7075 C   0  0  0  0  0  0  0  0  0  0  0  0
    4.5936   -4.9774    4.2421 C   0  0  2  0  0  0  0  0  0  0  0  0
    6.0918   -5.4101    4.3773 C   0  0  0  0  0  0  0  0  0  0  0  0
    4.6128   -3.4944    3.7274 C   0  0  1  0  0  0  0  0  0  0  0  0
    5.2206   -3.3952    2.3007 C   0  0  0  0  0  0  0  0  0  0  0  0
    4.9556   -4.5872    1.4101 C   0  0  0  0  0  0  0  0  0  0  0  0
    4.3482   -5.7253    1.7825 C   0  0  0  0  0  0  0  0  0  0  0  0
    4.0418   -6.7665    0.7059 C   0  0  0  0  0  0  0  0  0  0  0  0
    4.2031   -8.1948    1.2030 C   0  0  0  0  0  0  0  0  0  0  0  0
    4.7299   -9.0523    0.5067 O   0  0  0  0  0  0  0  0  0  0  0  0
    3.6199   -8.5107    2.5736 C   0  0  0  0  0  0  0  0  0  0  0  0
    4.1618   -7.4906    3.5901 C   0  0  0  0  0  0  0  0  0  0  0  0
    3.8512   -5.9884    3.2298 C   0  0  1  0  0  0  0  0  0  0  0  0
    2.3002   -5.7889    3.1605 C   0  0  0  0  0  0  0  0  0  0  0  0
    1.7759   -5.1379    2.2527 O   0  0  0  0  0  0  0  0  0  0  0  0
    1.3902   -6.4346    4.2252 C   0  0  0  0  0  0  0  0  0  0  0  0
    0.0831   -6.6485    3.7144 O   0  0  0  0  0  0  0  0  0  0  0  0
    1.5587   -0.3042    7.2692 H   0  0  0  0  0  0  0  0  0  0  0  0
    3.1609   -0.6882    6.6691 H   0  0  0  0  0  0  0  0  0  0  0  0
    2.3483   -1.7772    7.7901 H   0  0  0  0  0  0  0  0  0  0  0  0
    0.4609   -3.3796    6.9479 H   0  0  0  0  0  0  0  0  0  0  0  0
   -1.8030   -2.7001    6.4730 H   0  0  0  0  0  0  0  0  0  0  0  0
   -0.4250    0.3287    3.8145 H   0  0  0  0  0  0  0  0  0  0  0  0
   -0.0563    0.7642    5.4536 H   0  0  0  0  0  0  0  0  0  0  0  0
    4.1364   -0.9097    2.9442 H   0  0  0  0  0  0  0  0  0  0  0  0
    4.0809   -0.7998    4.6681 H   0  0  0  0  0  0  0  0  0  0  0  0
    2.6706   -2.9058    3.0231 H   0  0  0  0  0  0  0  0  0  0  0  0
    1.7277   -3.7438    4.7788 H   0  0  0  0  0  0  0  0  0  0  0  0
    4.0410   -3.0516    6.5904 H   0  0  0  0  0  0  0  0  0  0  0  0
    2.6764   -4.0448    7.0521 H   0  0  0  0  0  0  0  0  0  0  0  0
    4.8847   -5.1232    6.4023 H   0  0  0  0  0  0  0  0  0  0  0  0
    3.4448   -5.8929    5.8793 H   0  0  0  0  0  0  0  0  0  0  0  0
    6.5833   -5.5748    3.4179 H   0  0  0  0  0  0  0  0  0  0  0  0
    6.2096   -6.3192    4.9648 H   0  0  0  0  0  0  0  0  0  0  0  0
    6.6677   -4.6570    4.9083 H   0  0  0  0  0  0  0  0  0  0  0  0
    5.3192   -2.9707    4.3695 H   0  0  0  0  0  0  0  0  0  0  0  0
    4.8527   -2.5224    1.7683 H   0  0  0  0  0  0  0  0  0  0  0  0
    6.3023   -3.2867    2.3593 H   0  0  0  0  0  0  0  0  0  0  0  0
    5.2652   -4.4652    0.3810 H   0  0  0  0  0  0  0  0  0  0  0  0
    3.0209   -6.6489    0.3562 H   0  0  0  0  0  0  0  0  0  0  0  0
    4.6959   -6.6279   -0.1538 H   0  0  0  0  0  0  0  0  0  0  0  0
    2.5339   -8.4881    2.5049 H   0  0  0  0  0  0  0  0  0  0  0  0
    3.8965   -9.5249    2.8583 H   0  0  0  0  0  0  0  0  0  0  0  0
    3.8280   -7.7523    4.5962 H   0  0  0  0  0  0  0  0  0  0  0  0
    5.2357   -7.6728    3.6131 H   0  0  0  0  0  0  0  0  0  0  0  0
    1.7638   -7.3947    4.5766 H   0  0  0  0  0  0  0  0  0  0  0  0
    1.3283   -5.7809    5.0938 H   0  0  0  0  0  0  0  0  0  0  0  0
    0.1048   -7.4309    3.1799 H   0  0  0  0  0  0  0  0  0  0  0  0
  2  1  1  1
  1 35  1  0
  1 36  1  0
  1 37  1  0
  2  8  1  0
  2 16  1  0
  2  3  1  0
  3  4  2  0
  3 38  1  0
  4  5  1  0
  4 39  1  0
  5  6  2  0
  5  7  1  0
  7  8  1  0
  7 40  1  0
  7 41  1  0
  8  9  2  0
  9 10  1  0
  9 14  1  0
 10 11  1  0
 10 12  1  0
 10 13  1  0
 14 15  1  0
 14 42  1  0
 14 43  1  0
 15 21  1  0
 15 16  1  0
 15 44  1  6
 16 17  1  0
 16 45  1  6
 17 18  1  0
 17 46  1  0
 17 47  1  0
 18 19  1  0
 18 48  1  0
 18 49  1  0
 19 30  1  0
 19 20  1  1
 19 21  1  0
 20 50  1  0
 20 51  1  0
 20 52  1  0
 21 22  1  0
 21 53  1  1
 22 23  1  0
 22 54  1  0
 22 55  1  0
 23 24  2  0
 23 56  1  0
 24 30  1  0
 24 25  1  0
 25 26  1  0
 25 57  1  0
 25 58  1  0
 26 27  2  0
 26 28  1  0
 28 29  1  0
 28 59  1  0
 28 60  1  0
 29 30  1  0
 29 61  1  0
 29 62  1  0
 30 31  1  6
 31 32  2  0
 31 33  1  0
 33 34  1  0
 33 63  1  0
 33 64  1  0
 34 65  1  0
M  END
>  <i_m_ct_stereo_status>  (189) 
1

>  <s_m_source_file>  (189) 
/var/tmp/pbs.5076255.sched01/tmp7qb2j_xu/82up84z1qn.sdf

>  <i_m_source_file_index>  (189) 
7

>  <i_lp_mmshare_version>  (189) 
48012

>  <i_f3d_flags>  (189) 
0

>  <s_epik_input>  (189) 
W0NIXTE9W0NIXUMoPU8pW0NIMl1DKFtDQEBdMTJbQ0gzXSk9QyhDKEYpKEYpRilbQ0gyXVtDQEBIXTNbQ0BIXTJbQ0gyXVtDSDJdW0NAXTQoW0NIM10pW0NASF0zW0NIMl1bQ0hdPUM1W0NAQF00KEMoPU8pW0NIMl1bT0hdKVtDSDJdW0NIMl1DKD1PKVtDSDJdNQ==

>  <s_epik_cmdline>  (189) 
J2VwaWtfcHl0aG9uJywgJy1waHQnLCAnMi4wJywgJy1waCcsICc3LjAnLCAnLXRuJywgJzgnLCAnLW1hJywgJzIwMCcsICctaW1hZScsICc8aW5maWxlLm1hZT4nLCAnLW9tYWUnLCAnPG91dGZpbGUubWFlPic=

>  <r_lp_tautomer_probability>  (189) 
1

>  <r_epik_Ionization_Penalty>  (189) 
4.04619e-06

>  <r_epik_Ionization_Penalty_Charging>  (189) 
0

>  <r_epik_Ionization_Penalty_Neutral>  (189) 
4.04619e-06

>  <r_epik_State_Penalty>  (189) 
-0

>  <r_epik_Charging_Adjusted_Penalty>  (189) 
0

>  <i_epik_Tot_Q>  (189) 
0

>  <i_epik_Tot_abs_Q>  (189) 
0

>  <s_lp_Force_Field>  (189) 
OPLS3e

>  <r_lp_Energy>  (189) 
92.7238

>  <b_lp_Chiralities_Consistent>  (189) 
1

>  <s_lp_Variant>  (189) 
57:0-1

>  <s_i_glide_gridfile>  (189) 
pfpi4k_grid

>  <i_i_glide_lignum>  (189) 
7

>  <i_i_glide_rotatable_bonds>  (189) 
4

>  <r_i_docking_score>  (189) 
-1.79238

>  <r_i_glide_ligand_efficiency>  (189) 
-0.052717

>  <r_i_glide_ligand_efficiency_sa>  (189) 
-0.170783

>  <r_i_glide_ligand_efficiency_ln>  (189) 
-0.395987

>  <r_i_glide_gscore>  (189) 
-1.79238

>  <r_i_glide_lipo>  (189) 
-0.254142

>  <r_i_glide_hbond>  (189) 
-0.000469137

>  <r_i_glide_metal>  (189) 
-0

>  <r_i_glide_rewards>  (189) 
-0.311451

>  <r_i_glide_evdw>  (189) 
-22.2195

>  <r_i_glide_ecoul>  (189) 
-1.04935

>  <r_i_glide_erotb>  (189) 
0.178356

>  <r_i_glide_esite>  (189) 
-0.136296

>  <r_i_glide_emodel>  (189) 
-25.272

>  <r_i_glide_energy>  (189) 
-23.2688

>  <r_i_glide_einternal>  (189) 
1.99688

>  <r_i_glide_intrahb_reward>  (189) 
-0

>  <i_i_glide_confnum>  (189) 
5

>  <i_i_glide_posenum>  (189) 
10

>  <r_i_glide_eff_state_penalty>  (189) 
0

>  <ligand_id>  (189) 
57

>  <original_smiles>  (189) 
CC12C=CC(=O)CC1=C(C(F)(F)F)CC1C2CCC2(C)C1CC=C1CC(=O)CCC12C(=O)CO

>  <smiles>  (189) 
[H]OC([H])([H])C(=O)C12C(=C([H])C([H])([H])C3([H])C4([H])C([H])([H])C(C(F)(F)F)=C5C([H])([H])C(=O)C([H])=C([H])C5(C([H])([H])[H])C4([H])C([H])([H])C([H])([H])C13C([H])([H])[H])C([H])([H])C(=O)C([H])([H])C2([H])[H]

$$$$
57:0:2
     RDKit          3D

 65 69  0  0  1  0  0  0  0  0999 V2000
    4.9164   -2.1296    4.0236 C   0  0  0  0  0  0  0  0  0  0  0  0
    3.5663   -2.7587    3.6117 C   0  0  1  0  0  0  0  0  0  0  0  0
    2.5172   -2.1539    4.5468 C   0  0  0  0  0  0  0  0  0  0  0  0
    1.5848   -1.2407    4.2246 C   0  0  0  0  0  0  0  0  0  0  0  0
    1.5090   -0.6808    2.8805 C   0  0  0  0  0  0  0  0  0  0  0  0
    0.6135    0.0939    2.5482 O   0  0  0  0  0  0  0  0  0  0  0  0
    2.6068   -1.0128    1.8765 C   0  0  0  0  0  0  0  0  0  0  0  0
    3.3328   -2.3376    2.1425 C   0  0  0  0  0  0  0  0  0  0  0  0
    3.8318   -3.1023    1.1406 C   0  0  0  0  0  0  0  0  0  0  0  0
    3.7777   -2.7464   -0.3454 C   0  0  0  0  0  0  0  0  0  0  0  0
    3.9482   -1.4380   -0.5542 F   0  0  0  0  0  0  0  0  0  0  0  0
    4.7278   -3.3723   -1.0367 F   0  0  0  0  0  0  0  0  0  0  0  0
    2.6009   -3.1123   -0.8492 F   0  0  0  0  0  0  0  0  0  0  0  0
    4.6036   -4.3718    1.4937 C   0  0  0  0  0  0  0  0  0  0  0  0
    3.7992   -5.1874    2.5170 C   0  0  2  0  0  0  0  0  0  0  0  0
    3.5256   -4.3324    3.7879 C   0  0  1  0  0  0  0  0  0  0  0  0
    4.3256   -4.8478    5.0024 C   0  0  0  0  0  0  0  0  0  0  0  0
    4.1941   -6.3543    5.3255 C   0  0  0  0  0  0  0  0  0  0  0  0
    3.9666   -7.3221    4.1174 C   0  0  2  0  0  0  0  0  0  0  0  0
    5.0151   -8.4589    4.3665 C   0  0  0  0  0  0  0  0  0  0  0  0
    4.4146   -6.6019    2.7949 C   0  0  1  0  0  0  0  0  0  0  0  0
    4.3282   -7.5608    1.5750 C   0  0  0  0  0  0  0  0  0  0  0  0
    3.2105   -8.5810    1.6430 C   0  0  0  0  0  0  0  0  0  0  0  0
    2.3801   -8.7748    2.6829 C   0  0  0  0  0  0  0  0  0  0  0  0
    1.2213   -9.7616    2.5157 C   0  0  0  0  0  0  0  0  0  0  0  0
    0.9262  -10.5719    3.7728 C   0  0  0  0  0  0  0  0  0  0  0  0
    0.6543  -11.7676    3.7273 O   0  0  0  0  0  0  0  0  0  0  0  0
    0.9135   -9.7888    5.0761 C   0  0  0  0  0  0  0  0  0  0  0  0
    2.2072   -8.9634    5.1960 C   0  0  0  0  0  0  0  0  0  0  0  0
    2.4866   -7.9700    4.0055 C   0  0  1  0  0  0  0  0  0  0  0  0
    1.3322   -6.9128    3.9353 C   0  0  0  0  0  0  0  0  0  0  0  0
    0.7793   -6.6236    2.8698 O   0  0  0  0  0  0  0  0  0  0  0  0
    0.8347   -6.2527    5.2335 C   0  0  0  0  0  0  0  0  0  0  0  0
    0.1652   -5.0362    4.9645 O   0  0  0  0  0  0  0  0  0  0  0  0
    4.9206   -1.0544    3.8321 H   0  0  0  0  0  0  0  0  0  0  0  0
    5.7547   -2.5523    3.4725 H   0  0  0  0  0  0  0  0  0  0  0  0
    5.1182   -2.2569    5.0857 H   0  0  0  0  0  0  0  0  0  0  0  0
    2.5524   -2.5120    5.5668 H   0  0  0  0  0  0  0  0  0  0  0  0
    0.8896   -0.8714    4.9666 H   0  0  0  0  0  0  0  0  0  0  0  0
    2.1526   -1.0359    0.8845 H   0  0  0  0  0  0  0  0  0  0  0  0
    3.3291   -0.1974    1.8742 H   0  0  0  0  0  0  0  0  0  0  0  0
    4.8073   -4.9658    0.6073 H   0  0  0  0  0  0  0  0  0  0  0  0
    5.5790   -4.0920    1.8927 H   0  0  0  0  0  0  0  0  0  0  0  0
    2.8363   -5.3585    2.0382 H   0  0  0  0  0  0  0  0  0  0  0  0
    2.4850   -4.5288    4.0062 H   0  0  0  0  0  0  0  0  0  0  0  0
    5.3822   -4.6474    4.8105 H   0  0  0  0  0  0  0  0  0  0  0  0
    4.0572   -4.2741    5.8908 H   0  0  0  0  0  0  0  0  0  0  0  0
    5.1389   -6.6014    5.8186 H   0  0  0  0  0  0  0  0  0  0  0  0
    3.4836   -6.5376    6.1208 H   0  0  0  0  0  0  0  0  0  0  0  0
    4.9118   -9.3037    3.6861 H   0  0  0  0  0  0  0  0  0  0  0  0
    4.9566   -8.8495    5.3822 H   0  0  0  0  0  0  0  0  0  0  0  0
    6.0330   -8.0849    4.2591 H   0  0  0  0  0  0  0  0  0  0  0  0
    5.4790   -6.3978    2.9151 H   0  0  0  0  0  0  0  0  0  0  0  0
    4.1968   -7.0141    0.6444 H   0  0  0  0  0  0  0  0  0  0  0  0
    5.2602   -8.1193    1.4703 H   0  0  0  0  0  0  0  0  0  0  0  0
    3.0783   -9.1744    0.7486 H   0  0  0  0  0  0  0  0  0  0  0  0
    0.3131   -9.2269    2.2449 H   0  0  0  0  0  0  0  0  0  0  0  0
    1.4454  -10.4339    1.6945 H   0  0  0  0  0  0  0  0  0  0  0  0
    0.0298   -9.1557    5.0814 H   0  0  0  0  0  0  0  0  0  0  0  0
    0.8121  -10.4834    5.9109 H   0  0  0  0  0  0  0  0  0  0  0  0
    2.2220   -8.4521    6.1585 H   0  0  0  0  0  0  0  0  0  0  0  0
    2.9938   -9.7163    5.2663 H   0  0  0  0  0  0  0  0  0  0  0  0
    0.1498   -6.9233    5.7528 H   0  0  0  0  0  0  0  0  0  0  0  0
    1.6344   -6.0122    5.9211 H   0  0  0  0  0  0  0  0  0  0  0  0
    0.0060   -4.5913    5.7837 H   0  0  0  0  0  0  0  0  0  0  0  0
  2  1  1  1
  1 35  1  0
  1 36  1  0
  1 37  1  0
  2  8  1  0
  2 16  1  0
  2  3  1  0
  3  4  2  0
  3 38  1  0
  4  5  1  0
  4 39  1  0
  5  6  2  0
  5  7  1  0
  7  8  1  0
  7 40  1  0
  7 41  1  0
  8  9  2  0
  9 10  1  0
  9 14  1  0
 10 11  1  0
 10 12  1  0
 10 13  1  0
 14 15  1  0
 14 42  1  0
 14 43  1  0
 15 21  1  0
 15 16  1  0
 15 44  1  6
 16 17  1  0
 16 45  1  1
 17 18  1  0
 17 46  1  0
 17 47  1  0
 18 19  1  0
 18 48  1  0
 18 49  1  0
 19 30  1  0
 19 20  1  1
 19 21  1  0
 20 50  1  0
 20 51  1  0
 20 52  1  0
 21 22  1  0
 21 53  1  1
 22 23  1  0
 22 54  1  0
 22 55  1  0
 23 24  2  0
 23 56  1  0
 24 30  1  0
 24 25  1  0
 25 26  1  0
 25 57  1  0
 25 58  1  0
 26 27  2  0
 26 28  1  0
 28 29  1  0
 28 59  1  0
 28 60  1  0
 29 30  1  0
 29 61  1  0
 29 62  1  0
 30 31  1  6
 31 32  2  0
 31 33  1  0
 33 34  1  0
 33 63  1  0
 33 64  1  0
 34 65  1  0
M  END
>  <i_m_ct_stereo_status>  (190) 
1

>  <s_m_source_file>  (190) 
/var/tmp/pbs.5076255.sched01/tmp7qb2j_xu/82up84z1qn.sdf

>  <i_m_source_file_index>  (190) 
7

>  <i_lp_mmshare_version>  (190) 
48012

>  <i_f3d_flags>  (190) 
0

>  <s_epik_input>  (190) 
W0NIXTE9W0NIXUMoPU8pW0NIMl1DKFtDQEBdMTJbQ0gzXSk9QyhDKEYpKEYpRilbQ0gyXVtDQEBIXTNbQ0BIXTJbQ0gyXVtDSDJdW0NAXTQoW0NIM10pW0NASF0zW0NIMl1bQ0hdPUM1W0NAQF00KEMoPU8pW0NIMl1bT0hdKVtDSDJdW0NIMl1DKD1PKVtDSDJdNQ==

>  <s_epik_cmdline>  (190) 
J2VwaWtfcHl0aG9uJywgJy1waHQnLCAnMi4wJywgJy1waCcsICc3LjAnLCAnLXRuJywgJzgnLCAnLW1hJywgJzIwMCcsICctaW1hZScsICc8aW5maWxlLm1hZT4nLCAnLW9tYWUnLCAnPG91dGZpbGUubWFlPic=

>  <r_lp_tautomer_probability>  (190) 
1

>  <r_epik_Ionization_Penalty>  (190) 
4.04619e-06

>  <r_epik_Ionization_Penalty_Charging>  (190) 
0

>  <r_epik_Ionization_Penalty_Neutral>  (190) 
4.04619e-06

>  <r_epik_State_Penalty>  (190) 
-0

>  <r_epik_Charging_Adjusted_Penalty>  (190) 
0

>  <i_epik_Tot_Q>  (190) 
0

>  <i_epik_Tot_abs_Q>  (190) 
0

>  <s_lp_Force_Field>  (190) 
OPLS3e

>  <r_lp_Energy>  (190) 
92.7238

>  <b_lp_Chiralities_Consistent>  (190) 
1

>  <s_lp_Variant>  (190) 
57:0-1

>  <s_i_glide_gridfile>  (190) 
pfpi4k_grid

>  <i_i_glide_lignum>  (190) 
7

>  <i_i_glide_rotatable_bonds>  (190) 
4

>  <r_i_docking_score>  (190) 
-1.59179

>  <r_i_glide_ligand_efficiency>  (190) 
-0.0468172

>  <r_i_glide_ligand_efficiency_sa>  (190) 
-0.15167

>  <r_i_glide_ligand_efficiency_ln>  (190) 
-0.35167

>  <r_i_glide_gscore>  (190) 
-1.59179

>  <r_i_glide_lipo>  (190) 
-0.236028

>  <r_i_glide_hbond>  (190) 
0

>  <r_i_glide_metal>  (190) 
-0

>  <r_i_glide_rewards>  (190) 
-0.25934

>  <r_i_glide_evdw>  (190) 
-24.9092

>  <r_i_glide_ecoul>  (190) 
0.606234

>  <r_i_glide_erotb>  (190) 
0.178356

>  <r_i_glide_esite>  (190) 
-0.120246

>  <r_i_glide_emodel>  (190) 
-26.8177

>  <r_i_glide_energy>  (190) 
-24.303

>  <r_i_glide_einternal>  (190) 
0.497499

>  <r_i_glide_intrahb_reward>  (190) 
-0

>  <i_i_glide_confnum>  (190) 
5

>  <i_i_glide_posenum>  (190) 
9

>  <r_i_glide_eff_state_penalty>  (190) 
0

>  <ligand_id>  (190) 
57

>  <original_smiles>  (190) 
CC12C=CC(=O)CC1=C(C(F)(F)F)CC1C2CCC2(C)C1CC=C1CC(=O)CCC12C(=O)CO

>  <smiles>  (190) 
[H]OC([H])([H])C(=O)C12C(=C([H])C([H])([H])C3([H])C4([H])C([H])([H])C(C(F)(F)F)=C5C([H])([H])C(=O)C([H])=C([H])C5(C([H])([H])[H])C4([H])C([H])([H])C([H])([H])C13C([H])([H])[H])C([H])([H])C(=O)C([H])([H])C2([H])[H]

$$$$
58:0:0
     RDKit          3D

 34 36  0  0  1  0  0  0  0  0999 V2000
    5.9981   -3.2611   -2.5742 C   0  0  0  0  0  0  0  0  0  0  0  0
    6.5081   -2.9282   -1.2896 O   0  0  0  0  0  0  0  0  0  0  0  0
    5.7028   -2.2033   -0.4364 C   0  0  0  0  0  0  0  0  0  0  0  0
    6.1685   -1.9528    0.8681 C   0  0  0  0  0  0  0  0  0  0  0  0
    5.3725   -1.1991    1.7510 C   0  0  0  0  0  0  0  0  0  0  0  0
    5.7823   -0.9354    3.0033 N   0  0  0  0  0  0  0  0  0  0  0  0
    4.9558   -0.2481    3.7850 C   0  0  0  0  0  0  0  0  0  0  0  0
    3.7597    0.2287    3.4513 N   0  0  0  0  0  0  0  0  0  0  0  0
    3.3222    0.0169    2.1895 C   0  0  0  0  0  0  0  0  0  0  0  0
    2.0617    0.5362    1.8198 N   0  0  0  0  0  0  0  0  0  0  0  0
    1.2819    1.5206    2.4695 C   0  0  0  0  0  0  0  0  0  0  0  0
    1.8565    2.5426    3.2659 C   0  0  0  0  0  0  0  0  0  0  0  0
    1.0480    3.5207    3.8782 C   0  0  0  0  0  0  0  0  0  0  0  0
   -0.3430    3.5044    3.6905 C   0  0  0  0  0  0  0  0  0  0  0  0
   -1.1190    4.4526    4.2722 F   0  0  0  0  0  0  0  0  0  0  0  0
   -0.9334    2.5110    2.8860 C   0  0  0  0  0  0  0  0  0  0  0  0
   -2.4327    2.5370    2.6637 C   0  0  0  0  0  0  0  0  0  0  0  0
   -0.1211    1.5278    2.2802 C   0  0  0  0  0  0  0  0  0  0  0  0
    4.1194   -0.7295    1.2853 C   0  0  0  0  0  0  0  0  0  0  0  0
    3.7531   -1.0303   -0.0382 C   0  0  0  0  0  0  0  0  0  0  0  0
    4.5167   -1.7407   -0.8874 N   0  0  0  0  0  0  0  0  0  0  0  0
    6.7533   -3.8357   -3.1030 H   0  0  0  0  0  0  0  0  0  0  0  0
    5.7797   -2.3721   -3.1641 H   0  0  0  0  0  0  0  0  0  0  0  0
    5.1025   -3.8806   -2.5157 H   0  0  0  0  0  0  0  0  0  0  0  0
    7.1224   -2.3456    1.1898 H   0  0  0  0  0  0  0  0  0  0  0  0
    5.3051   -0.0560    4.7858 H   0  0  0  0  0  0  0  0  0  0  0  0
    2.9231    2.6159    3.4015 H   0  0  0  0  0  0  0  0  0  0  0  0
    1.5010    4.2979    4.4723 H   0  0  0  0  0  0  0  0  0  0  0  0
   -2.7080    1.9241    1.8066 H   0  0  0  0  0  0  0  0  0  0  0  0
   -2.7926    3.5482    2.4791 H   0  0  0  0  0  0  0  0  0  0  0  0
   -2.9508    2.1502    3.5399 H   0  0  0  0  0  0  0  0  0  0  0  0
   -0.5661    0.7795    1.6388 H   0  0  0  0  0  0  0  0  0  0  0  0
    2.8218   -0.6666   -0.4302 H   0  0  0  0  0  0  0  0  0  0  0  0
    1.6671    0.1666    0.9586 H   0  0  0  0  0  0  0  0  0  0  0  0
  1  2  1  0
  1 22  1  0
  1 23  1  0
  1 24  1  0
  2  3  1  0
  3 21  2  0
  3  4  1  0
  4  5  2  0
  4 25  1  0
  5 19  1  0
  5  6  1  0
  6  7  2  0
  7  8  1  0
  7 26  1  0
  8  9  2  0
  9 10  1  0
  9 19  1  0
 10 11  1  0
 10 34  1  0
 11 18  1  0
 11 12  2  0
 12 13  1  0
 12 27  1  0
 13 14  2  0
 13 28  1  0
 14 15  1  0
 14 16  1  0
 16 17  1  0
 16 18  2  0
 17 29  1  0
 17 30  1  0
 17 31  1  0
 18 32  1  0
 19 20  2  0
 20 21  1  0
 20 33  1  0
M  END
>  <i_m_ct_stereo_status>  (191) 
1

>  <s_m_source_file>  (191) 
/var/tmp/pbs.5076255.sched01/tmp7qb2j_xu/82up84z1qn.sdf

>  <i_m_source_file_index>  (191) 
8

>  <i_lp_mmshare_version>  (191) 
48012

>  <i_f3d_flags>  (191) 
0

>  <s_epik_input>  (191) 
W0NIM11PYyhbY0hdMSluW2NIXWMoYzEyKWMoXFtuSF1bY0hdbjIpPU5cYzNbY0hdW2NIXWMoRiljKFtDSDNdKVtjSF0z

>  <s_epik_cmdline>  (191) 
J2VwaWtfcHl0aG9uJywgJy1waHQnLCAnMi4wJywgJy1waCcsICc3LjAnLCAnLXRuJywgJzgnLCAnLW1hJywgJzIwMCcsICctaW1hZScsICc8aW5maWxlLm1hZT4nLCAnLW9tYWUnLCAnPG91dGZpbGUubWFlPic=

>  <r_lp_tautomer_probability>  (191) 
1

>  <r_epik_Ionization_Penalty>  (191) 
1.74397e-05

>  <r_epik_Ionization_Penalty_Charging>  (191) 
0

>  <r_epik_Ionization_Penalty_Neutral>  (191) 
1.74397e-05

>  <r_epik_State_Penalty>  (191) 
-0

>  <r_epik_Charging_Adjusted_Penalty>  (191) 
0

>  <i_epik_Tot_Q>  (191) 
0

>  <i_epik_Tot_abs_Q>  (191) 
0

>  <s_lp_Force_Field>  (191) 
OPLS3e

>  <r_lp_Energy>  (191) 
28.7278

>  <b_lp_Chiralities_Consistent>  (191) 
1

>  <s_lp_Variant>  (191) 
58:0-1

>  <s_i_glide_gridfile>  (191) 
pfpi4k_grid

>  <i_i_glide_lignum>  (191) 
8

>  <i_i_glide_rotatable_bonds>  (191) 
3

>  <r_i_docking_score>  (191) 
-3.64053

>  <r_i_glide_ligand_efficiency>  (191) 
-0.173358

>  <r_i_glide_ligand_efficiency_sa>  (191) 
-0.478283

>  <r_i_glide_ligand_efficiency_ln>  (191) 
-0.900113

>  <r_i_glide_gscore>  (191) 
-3.64053

>  <r_i_glide_lipo>  (191) 
-0.606043

>  <r_i_glide_hbond>  (191) 
-0.061851

>  <r_i_glide_metal>  (191) 
-0

>  <r_i_glide_rewards>  (191) 
-1.60702

>  <r_i_glide_evdw>  (191) 
-24.8186

>  <r_i_glide_ecoul>  (191) 
-2.97987

>  <r_i_glide_erotb>  (191) 
0.448518

>  <r_i_glide_esite>  (191) 
-0.126218

>  <r_i_glide_emodel>  (191) 
-33.1568

>  <r_i_glide_energy>  (191) 
-27.7985

>  <r_i_glide_einternal>  (191) 
3.05178

>  <r_i_glide_intrahb_reward>  (191) 
-0

>  <i_i_glide_confnum>  (191) 
6

>  <i_i_glide_posenum>  (191) 
20

>  <r_i_glide_eff_state_penalty>  (191) 
0

>  <ligand_id>  (191) 
58

>  <original_smiles>  (191) 
COc1cc2nc[nH]c(=Nc3ccc(F)c(C)c3)c2cn1

>  <smiles>  (191) 
[H]c1nc(N([H])c2c([H])c([H])c(F)c(C([H])([H])[H])c2[H])c2c([H])nc(OC([H])([H])[H])c([H])c2n1

$$$$
58:0:1
     RDKit          3D

 34 36  0  0  1  0  0  0  0  0999 V2000
    7.9902   -3.1417   -1.0712 C   0  0  0  0  0  0  0  0  0  0  0  0
    6.6918   -2.7381   -1.4981 O   0  0  0  0  0  0  0  0  0  0  0  0
    5.8911   -2.1115   -0.5634 C   0  0  0  0  0  0  0  0  0  0  0  0
    6.2898   -1.8625    0.7685 C   0  0  0  0  0  0  0  0  0  0  0  0
    5.4166   -1.1773    1.6255 C   0  0  0  0  0  0  0  0  0  0  0  0
    5.7800   -0.9241    2.8954 N   0  0  0  0  0  0  0  0  0  0  0  0
    4.9092   -0.2835    3.6621 C   0  0  0  0  0  0  0  0  0  0  0  0
    3.7024    0.1512    3.3063 N   0  0  0  0  0  0  0  0  0  0  0  0
    3.3076   -0.0708    2.0300 C   0  0  0  0  0  0  0  0  0  0  0  0
    2.0315    0.3738    1.6453 N   0  0  0  0  0  0  0  0  0  0  0  0
    1.1426    1.2387    2.3078 C   0  0  0  0  0  0  0  0  0  0  0  0
   -0.2344    1.0512    2.0850 C   0  0  0  0  0  0  0  0  0  0  0  0
   -1.1861    1.9033    2.6634 C   0  0  0  0  0  0  0  0  0  0  0  0
   -0.7715    2.9785    3.4643 C   0  0  0  0  0  0  0  0  0  0  0  0
   -1.6960    3.8177    3.9929 F   0  0  0  0  0  0  0  0  0  0  0  0
    0.6006    3.1847    3.7066 C   0  0  0  0  0  0  0  0  0  0  0  0
    1.0415    4.3491    4.5654 C   0  0  0  0  0  0  0  0  0  0  0  0
    1.5551    2.3196    3.1259 C   0  0  0  0  0  0  0  0  0  0  0  0
    4.1580   -0.7606    1.1279 C   0  0  0  0  0  0  0  0  0  0  0  0
    3.8553   -1.0582   -0.2170 C   0  0  0  0  0  0  0  0  0  0  0  0
    4.6945   -1.7133   -1.0442 N   0  0  0  0  0  0  0  0  0  0  0  0
    8.5262   -3.6527   -1.8749 H   0  0  0  0  0  0  0  0  0  0  0  0
    7.9245   -3.8322   -0.2270 H   0  0  0  0  0  0  0  0  0  0  0  0
    8.5796   -2.2702   -0.7787 H   0  0  0  0  0  0  0  0  0  0  0  0
    7.2468   -2.1624    1.1761 H   0  0  0  0  0  0  0  0  0  0  0  0
    5.2221   -0.1085    4.6789 H   0  0  0  0  0  0  0  0  0  0  0  0
   -0.5567    0.2526    1.4376 H   0  0  0  0  0  0  0  0  0  0  0  0
   -2.2323    1.7533    2.4527 H   0  0  0  0  0  0  0  0  0  0  0  0
    2.0731    4.2267    4.8878 H   0  0  0  0  0  0  0  0  0  0  0  0
    0.4162    4.4197    5.4542 H   0  0  0  0  0  0  0  0  0  0  0  0
    0.9647    5.2877    4.0169 H   0  0  0  0  0  0  0  0  0  0  0  0
    2.6063    2.5145    3.2768 H   0  0  0  0  0  0  0  0  0  0  0  0
    2.9195   -0.7556   -0.6478 H   0  0  0  0  0  0  0  0  0  0  0  0
    1.6682   -0.0280    0.7808 H   0  0  0  0  0  0  0  0  0  0  0  0
  1  2  1  0
  1 22  1  0
  1 23  1  0
  1 24  1  0
  2  3  1  0
  3 21  2  0
  3  4  1  0
  4  5  2  0
  4 25  1  0
  5 19  1  0
  5  6  1  0
  6  7  2  0
  7  8  1  0
  7 26  1  0
  8  9  2  0
  9 10  1  0
  9 19  1  0
 10 11  1  0
 10 34  1  0
 11 18  1  0
 11 12  2  0
 12 13  1  0
 12 27  1  0
 13 14  2  0
 13 28  1  0
 14 15  1  0
 14 16  1  0
 16 17  1  0
 16 18  2  0
 17 29  1  0
 17 30  1  0
 17 31  1  0
 18 32  1  0
 19 20  2  0
 20 21  1  0
 20 33  1  0
M  END
>  <i_m_ct_stereo_status>  (192) 
1

>  <s_m_source_file>  (192) 
/var/tmp/pbs.5076255.sched01/tmp7qb2j_xu/82up84z1qn.sdf

>  <i_m_source_file_index>  (192) 
8

>  <i_lp_mmshare_version>  (192) 
48012

>  <i_f3d_flags>  (192) 
0

>  <s_epik_input>  (192) 
W0NIM11PYyhbY0hdMSluW2NIXWMoYzEyKWMoXFtuSF1bY0hdbjIpPU5cYzNbY0hdW2NIXWMoRiljKFtDSDNdKVtjSF0z

>  <s_epik_cmdline>  (192) 
J2VwaWtfcHl0aG9uJywgJy1waHQnLCAnMi4wJywgJy1waCcsICc3LjAnLCAnLXRuJywgJzgnLCAnLW1hJywgJzIwMCcsICctaW1hZScsICc8aW5maWxlLm1hZT4nLCAnLW9tYWUnLCAnPG91dGZpbGUubWFlPic=

>  <r_lp_tautomer_probability>  (192) 
1

>  <r_epik_Ionization_Penalty>  (192) 
1.74397e-05

>  <r_epik_Ionization_Penalty_Charging>  (192) 
0

>  <r_epik_Ionization_Penalty_Neutral>  (192) 
1.74397e-05

>  <r_epik_State_Penalty>  (192) 
-0

>  <r_epik_Charging_Adjusted_Penalty>  (192) 
0

>  <i_epik_Tot_Q>  (192) 
0

>  <i_epik_Tot_abs_Q>  (192) 
0

>  <s_lp_Force_Field>  (192) 
OPLS3e

>  <r_lp_Energy>  (192) 
28.7278

>  <b_lp_Chiralities_Consistent>  (192) 
1

>  <s_lp_Variant>  (192) 
58:0-1

>  <s_i_glide_gridfile>  (192) 
pfpi4k_grid

>  <i_i_glide_lignum>  (192) 
8

>  <i_i_glide_rotatable_bonds>  (192) 
3

>  <r_i_docking_score>  (192) 
-3.51209

>  <r_i_glide_ligand_efficiency>  (192) 
-0.167242

>  <r_i_glide_ligand_efficiency_sa>  (192) 
-0.461409

>  <r_i_glide_ligand_efficiency_ln>  (192) 
-0.868358

>  <r_i_glide_gscore>  (192) 
-3.51209

>  <r_i_glide_lipo>  (192) 
-0.281583

>  <r_i_glide_hbond>  (192) 
-0.171663

>  <r_i_glide_metal>  (192) 
-0

>  <r_i_glide_rewards>  (192) 
-1.61163

>  <r_i_glide_evdw>  (192) 
-25.9924

>  <r_i_glide_ecoul>  (192) 
-3.1331

>  <r_i_glide_erotb>  (192) 
0.448518

>  <r_i_glide_esite>  (192) 
-0.126146

>  <r_i_glide_emodel>  (192) 
-32.6491

>  <r_i_glide_energy>  (192) 
-29.1255

>  <r_i_glide_einternal>  (192) 
6.1078

>  <r_i_glide_intrahb_reward>  (192) 
-0

>  <i_i_glide_confnum>  (192) 
6

>  <i_i_glide_posenum>  (192) 
5

>  <r_i_glide_eff_state_penalty>  (192) 
0

>  <ligand_id>  (192) 
58

>  <original_smiles>  (192) 
COc1cc2nc[nH]c(=Nc3ccc(F)c(C)c3)c2cn1

>  <smiles>  (192) 
[H]c1nc(N([H])c2c([H])c([H])c(F)c(C([H])([H])[H])c2[H])c2c([H])nc(OC([H])([H])[H])c([H])c2n1

$$$$
58:0:2
     RDKit          3D

 34 36  0  0  1  0  0  0  0  0999 V2000
   -2.5726    3.1571    3.1817 C   0  0  0  0  0  0  0  0  0  0  0  0
   -1.5920    2.7379    4.1185 O   0  0  0  0  0  0  0  0  0  0  0  0
   -0.4980    2.0416    3.6448 C   0  0  0  0  0  0  0  0  0  0  0  0
    0.5730    1.8214    4.5313 C   0  0  0  0  0  0  0  0  0  0  0  0
    1.7099    1.1304    4.0695 C   0  0  0  0  0  0  0  0  0  0  0  0
    2.7488    0.8981    4.8929 N   0  0  0  0  0  0  0  0  0  0  0  0
    3.7739    0.2148    4.3912 C   0  0  0  0  0  0  0  0  0  0  0  0
    3.8810   -0.2647    3.1556 N   0  0  0  0  0  0  0  0  0  0  0  0
    2.8706   -0.0314    2.2875 C   0  0  0  0  0  0  0  0  0  0  0  0
    2.9875   -0.5274    0.9690 N   0  0  0  0  0  0  0  0  0  0  0  0
    4.0826   -1.1490    0.3302 C   0  0  0  0  0  0  0  0  0  0  0  0
    5.4222   -0.9388    0.7398 C   0  0  0  0  0  0  0  0  0  0  0  0
    6.4832   -1.5786    0.0829 C   0  0  0  0  0  0  0  0  0  0  0  0
    6.2301   -2.4059   -1.0207 C   0  0  0  0  0  0  0  0  0  0  0  0
    7.2663   -2.9782   -1.6725 F   0  0  0  0  0  0  0  0  0  0  0  0
    4.9083   -2.6200   -1.4583 C   0  0  0  0  0  0  0  0  0  0  0  0
    4.6551   -3.5228   -2.6521 C   0  0  0  0  0  0  0  0  0  0  0  0
    3.8416   -1.9894   -0.7834 C   0  0  0  0  0  0  0  0  0  0  0  0
    1.7212    0.6755    2.7244 C   0  0  0  0  0  0  0  0  0  0  0  0
    0.6034    0.9561    1.9160 C   0  0  0  0  0  0  0  0  0  0  0  0
   -0.4916    1.6004    2.3655 N   0  0  0  0  0  0  0  0  0  0  0  0
   -3.3647    3.6638    3.7233 H   0  0  0  0  0  0  0  0  0  0  0  0
   -3.0251    2.3248    2.6463 H   0  0  0  0  0  0  0  0  0  0  0  0
   -2.1555    3.8651    2.4670 H   0  0  0  0  0  0  0  0  0  0  0  0
    0.5266    2.1806    5.5511 H   0  0  0  0  0  0  0  0  0  0  0  0
    4.6035    0.0436    5.0564 H   0  0  0  0  0  0  0  0  0  0  0  0
    5.6856   -0.2736    1.5445 H   0  0  0  0  0  0  0  0  0  0  0  0
    7.4907   -1.4079    0.4236 H   0  0  0  0  0  0  0  0  0  0  0  0
    3.6149   -3.8402   -2.7094 H   0  0  0  0  0  0  0  0  0  0  0  0
    5.2670   -4.4208   -2.5833 H   0  0  0  0  0  0  0  0  0  0  0  0
    4.9098   -3.0213   -3.5845 H   0  0  0  0  0  0  0  0  0  0  0  0
    2.8237   -2.1421   -1.1215 H   0  0  0  0  0  0  0  0  0  0  0  0
    0.5840    0.6402    0.8861 H   0  0  0  0  0  0  0  0  0  0  0  0
    2.1285   -0.5125    0.4082 H   0  0  0  0  0  0  0  0  0  0  0  0
  1  2  1  0
  1 22  1  0
  1 23  1  0
  1 24  1  0
  2  3  1  0
  3 21  2  0
  3  4  1  0
  4  5  2  0
  4 25  1  0
  5 19  1  0
  5  6  1  0
  6  7  2  0
  7  8  1  0
  7 26  1  0
  8  9  2  0
  9 10  1  0
  9 19  1  0
 10 11  1  0
 10 34  1  0
 11 18  1  0
 11 12  2  0
 12 13  1  0
 12 27  1  0
 13 14  2  0
 13 28  1  0
 14 15  1  0
 14 16  1  0
 16 17  1  0
 16 18  2  0
 17 29  1  0
 17 30  1  0
 17 31  1  0
 18 32  1  0
 19 20  2  0
 20 21  1  0
 20 33  1  0
M  END
>  <i_m_ct_stereo_status>  (193) 
1

>  <s_m_source_file>  (193) 
/var/tmp/pbs.5076255.sched01/tmp7qb2j_xu/82up84z1qn.sdf

>  <i_m_source_file_index>  (193) 
8

>  <i_lp_mmshare_version>  (193) 
48012

>  <i_f3d_flags>  (193) 
0

>  <s_epik_input>  (193) 
W0NIM11PYyhbY0hdMSluW2NIXWMoYzEyKWMoXFtuSF1bY0hdbjIpPU5cYzNbY0hdW2NIXWMoRiljKFtDSDNdKVtjSF0z

>  <s_epik_cmdline>  (193) 
J2VwaWtfcHl0aG9uJywgJy1waHQnLCAnMi4wJywgJy1waCcsICc3LjAnLCAnLXRuJywgJzgnLCAnLW1hJywgJzIwMCcsICctaW1hZScsICc8aW5maWxlLm1hZT4nLCAnLW9tYWUnLCAnPG91dGZpbGUubWFlPic=

>  <r_lp_tautomer_probability>  (193) 
1

>  <r_epik_Ionization_Penalty>  (193) 
1.74397e-05

>  <r_epik_Ionization_Penalty_Charging>  (193) 
0

>  <r_epik_Ionization_Penalty_Neutral>  (193) 
1.74397e-05

>  <r_epik_State_Penalty>  (193) 
-0

>  <r_epik_Charging_Adjusted_Penalty>  (193) 
0

>  <i_epik_Tot_Q>  (193) 
0

>  <i_epik_Tot_abs_Q>  (193) 
0

>  <s_lp_Force_Field>  (193) 
OPLS3e

>  <r_lp_Energy>  (193) 
28.7278

>  <b_lp_Chiralities_Consistent>  (193) 
1

>  <s_lp_Variant>  (193) 
58:0-1

>  <s_i_glide_gridfile>  (193) 
pfpi4k_grid

>  <i_i_glide_lignum>  (193) 
8

>  <i_i_glide_rotatable_bonds>  (193) 
3

>  <r_i_docking_score>  (193) 
-3.15832

>  <r_i_glide_ligand_efficiency>  (193) 
-0.150396

>  <r_i_glide_ligand_efficiency_sa>  (193) 
-0.414931

>  <r_i_glide_ligand_efficiency_ln>  (193) 
-0.780887

>  <r_i_glide_gscore>  (193) 
-3.15832

>  <r_i_glide_lipo>  (193) 
-0.137946

>  <r_i_glide_hbond>  (193) 
-0.16

>  <r_i_glide_metal>  (193) 
-0

>  <r_i_glide_rewards>  (193) 
-1.47533

>  <r_i_glide_evdw>  (193) 
-25.6389

>  <r_i_glide_ecoul>  (193) 
-3.10326

>  <r_i_glide_erotb>  (193) 
0.448518

>  <r_i_glide_esite>  (193) 
-0.086124

>  <r_i_glide_emodel>  (193) 
-33.4155

>  <r_i_glide_energy>  (193) 
-28.7421

>  <r_i_glide_einternal>  (193) 
2.16491

>  <r_i_glide_intrahb_reward>  (193) 
-0

>  <i_i_glide_confnum>  (193) 
5

>  <i_i_glide_posenum>  (193) 
2

>  <r_i_glide_eff_state_penalty>  (193) 
0

>  <ligand_id>  (193) 
58

>  <original_smiles>  (193) 
COc1cc2nc[nH]c(=Nc3ccc(F)c(C)c3)c2cn1

>  <smiles>  (193) 
[H]c1nc(N([H])c2c([H])c([H])c(F)c(C([H])([H])[H])c2[H])c2c([H])nc(OC([H])([H])[H])c([H])c2n1

$$$$
59:0:0
     RDKit          3D

 71 76  0  0  1  0  0  0  0  0999 V2000
    6.0631    0.2578    4.5744 C   0  0  0  0  0  0  0  0  0  0  0  0
    5.4091   -1.0033    4.7201 O   0  0  0  0  0  0  0  0  0  0  0  0
    4.7853   -1.5444    3.6155 C   0  0  0  0  0  0  0  0  0  0  0  0
    4.7502   -2.8865    3.4789 C   0  0  0  0  0  0  0  0  0  0  0  0
    4.0465   -3.4448    2.2815 C   0  0  2  0  0  0  0  0  0  0  0  0
    3.7788   -4.9226    1.9936 C   0  0  2  0  0  0  0  0  0  0  0  0
    4.8484   -6.0269    1.9958 C   0  0  0  0  0  0  0  0  0  0  0  0
    3.9418   -7.2652    1.7713 C   0  0  1  0  0  0  0  0  0  0  0  0
    4.1486   -8.2303    2.7863 O   0  0  0  0  0  0  0  0  0  0  0  0
    2.5101   -6.6314    1.7830 C   0  0  2  0  0  0  0  0  0  0  0  0
    1.3315   -7.5160    2.2102 C   0  0  0  0  0  0  0  0  0  0  0  0
    2.3147   -5.8255    0.4969 C   0  0  0  0  0  0  0  0  0  0  0  0
    3.1470   -4.8068    0.6521 C   0  0  0  0  0  0  0  0  0  0  0  0
    3.7153   -3.6159   -0.0890 C   0  0  1  0  0  0  0  0  0  0  0  0
    3.2956   -2.9617   -1.3964 C   0  0  0  0  0  0  0  0  0  0  0  0
    4.5696   -2.3497   -2.0665 C   0  0  0  0  0  0  0  0  0  0  0  0
    5.2135   -3.4112   -2.9796 C   0  0  0  0  0  0  0  0  0  0  0  0
    4.1348   -1.1542   -2.9464 C   0  0  0  0  0  0  0  0  0  0  0  0
    5.6372   -1.8091   -1.0367 C   0  0  0  0  0  0  0  0  0  0  0  0
    5.7270   -2.4586    0.3836 C   0  0  1  0  0  0  0  0  0  0  0  0
    6.6177   -1.6780    1.1499 O   0  0  0  0  0  0  0  0  0  0  0  0
    4.2933   -2.6386    0.9709 C   0  0  2  0  0  0  0  0  0  0  0  0
    3.6216   -1.2409    1.2534 C   0  0  1  0  0  0  0  0  0  0  0  0
    2.2153   -1.3868    1.2776 O   0  0  0  0  0  0  0  0  0  0  0  0
    4.1375   -0.5674    2.5960 C   0  0  1  0  0  0  0  0  0  0  0  0
    3.0898    0.3540    3.3021 C   0  0  0  0  0  0  0  0  0  0  0  0
    2.9871    1.6613    2.6671 N   0  0  0  0  0  0  0  0  0  0  0  0
    2.1883    2.6646    3.2327 C   0  0  0  0  0  0  0  0  0  0  0  0
    1.1322    2.3849    4.1279 C   0  0  0  0  0  0  0  0  0  0  0  0
    0.3443    3.4328    4.6460 C   0  0  0  0  0  0  0  0  0  0  0  0
    0.6102    4.7638    4.2781 C   0  0  0  0  0  0  0  0  0  0  0  0
    1.6683    5.0502    3.3958 C   0  0  0  0  0  0  0  0  0  0  0  0
    2.4543    4.0024    2.8783 C   0  0  0  0  0  0  0  0  0  0  0  0
    2.7607   -5.5882    2.7256 O   0  0  0  0  0  0  0  0  0  0  0  0
    6.6671    0.4548    5.4618 H   0  0  0  0  0  0  0  0  0  0  0  0
    5.3744    1.0968    4.4788 H   0  0  0  0  0  0  0  0  0  0  0  0
    6.7400    0.2574    3.7162 H   0  0  0  0  0  0  0  0  0  0  0  0
    5.1812   -3.5724    4.2004 H   0  0  0  0  0  0  0  0  0  0  0  0
    3.0331   -3.1966    2.5966 H   0  0  0  0  0  0  0  0  0  0  0  0
    5.5904   -5.8961    1.2107 H   0  0  0  0  0  0  0  0  0  0  0  0
    5.3590   -6.0643    2.9573 H   0  0  0  0  0  0  0  0  0  0  0  0
    4.1504   -7.7378    0.8072 H   0  0  0  0  0  0  0  0  0  0  0  0
    3.6435   -8.9990    2.5746 H   0  0  0  0  0  0  0  0  0  0  0  0
    1.1718   -8.3494    1.5263 H   0  0  0  0  0  0  0  0  0  0  0  0
    0.4115   -6.9346    2.2629 H   0  0  0  0  0  0  0  0  0  0  0  0
    1.5006   -7.9296    3.2047 H   0  0  0  0  0  0  0  0  0  0  0  0
    1.7131   -6.1119   -0.3514 H   0  0  0  0  0  0  0  0  0  0  0  0
    4.5128   -4.2544   -0.4685 H   0  0  0  0  0  0  0  0  0  0  0  0
    2.7770   -3.6587   -2.0604 H   0  0  0  0  0  0  0  0  0  0  0  0
    2.6090   -2.1534   -1.1926 H   0  0  0  0  0  0  0  0  0  0  0  0
    6.0810   -3.0140   -3.5030 H   0  0  0  0  0  0  0  0  0  0  0  0
    4.5138   -3.7798   -3.7317 H   0  0  0  0  0  0  0  0  0  0  0  0
    5.5665   -4.2742   -2.4165 H   0  0  0  0  0  0  0  0  0  0  0  0
    4.9910   -0.7077   -3.4498 H   0  0  0  0  0  0  0  0  0  0  0  0
    3.6812   -0.3737   -2.3320 H   0  0  0  0  0  0  0  0  0  0  0  0
    3.4056   -1.4464   -3.7034 H   0  0  0  0  0  0  0  0  0  0  0  0
    6.6231   -1.8929   -1.4858 H   0  0  0  0  0  0  0  0  0  0  0  0
    5.4943   -0.7357   -0.9099 H   0  0  0  0  0  0  0  0  0  0  0  0
    6.2249   -3.4257    0.3198 H   0  0  0  0  0  0  0  0  0  0  0  0
    6.2399   -0.8258    1.2795 H   0  0  0  0  0  0  0  0  0  0  0  0
    3.7950   -0.5407    0.4367 H   0  0  0  0  0  0  0  0  0  0  0  0
    1.8307   -1.1617    0.4145 H   0  0  0  0  0  0  0  0  0  0  0  0
    4.9574    0.0651    2.2692 H   0  0  0  0  0  0  0  0  0  0  0  0
    2.1185   -0.1364    3.3672 H   0  0  0  0  0  0  0  0  0  0  0  0
    3.3753    0.5277    4.3381 H   0  0  0  0  0  0  0  0  0  0  0  0
    3.8061    1.9918    2.1665 H   0  0  0  0  0  0  0  0  0  0  0  0
    0.9022    1.3758    4.4150 H   0  0  0  0  0  0  0  0  0  0  0  0
   -0.4701    3.2103    5.3152 H   0  0  0  0  0  0  0  0  0  0  0  0
   -0.0002    5.5664    4.6585 H   0  0  0  0  0  0  0  0  0  0  0  0
    1.8606    6.0673    3.0952 H   0  0  0  0  0  0  0  0  0  0  0  0
    3.2534    4.2338    2.1949 H   0  0  0  0  0  0  0  0  0  0  0  0
  1  2  1  0
  1 35  1  0
  1 36  1  0
  1 37  1  0
  2  3  1  0
  3 25  1  0
  3  4  2  0
  4  5  1  0
  4 38  1  0
  5 22  1  0
  5  6  1  0
  5 39  1  1
  6 13  1  0
  6 34  1  0
  6  7  1  6
  7  8  1  0
  7 40  1  0
  7 41  1  0
  8  9  1  0
  8 10  1  0
  8 42  1  6
  9 43  1  0
 10 11  1  1
 10 12  1  0
 10 34  1  0
 11 44  1  0
 11 45  1  0
 11 46  1  0
 12 13  2  0
 12 47  1  0
 13 14  1  0
 14 22  1  0
 14 15  1  0
 14 48  1  6
 15 16  1  0
 15 49  1  0
 15 50  1  0
 16 17  1  0
 16 18  1  0
 16 19  1  0
 17 51  1  0
 17 52  1  0
 17 53  1  0
 18 54  1  0
 18 55  1  0
 18 56  1  0
 19 20  1  0
 19 57  1  0
 19 58  1  0
 20 21  1  0
 22 20  1  6
 20 59  1  6
 21 60  1  0
 22 23  1  0
 23 24  1  0
 23 25  1  0
 23 61  1  6
 24 62  1  0
 25 26  1  0
 25 63  1  6
 26 27  1  0
 26 64  1  0
 26 65  1  0
 27 28  1  0
 27 66  1  0
 28 33  1  0
 28 29  2  0
 29 30  1  0
 29 67  1  0
 30 31  2  0
 30 68  1  0
 31 32  1  0
 31 69  1  0
 32 33  2  0
 32 70  1  0
 33 71  1  0
M  END
>  <i_m_ct_stereo_status>  (194) 
1

>  <s_m_source_file>  (194) 
/var/tmp/pbs.5076255.sched01/tmp7qb2j_xu/82up84z1qn.sdf

>  <i_m_source_file_index>  (194) 
9

>  <i_lp_mmshare_version>  (194) 
48012

>  <i_f3d_flags>  (194) 
0

>  <s_epik_input>  (194) 
W2NIXTFbY0hdW2NIXVtjSF1bY0hdYzFbTkhdW0NIMl1bQ0BASF0oQyg9W0NIXTIpT1tDSDNdKVtDQEhdKFtPSF0pW0NAQF0zKFtDQEhdMltDQF00NTYpW0NAQEhdKEM1PVtDSF1bQ0BAXShPNikoW0NIM10pW0NAQEhdKFtDSDJdNClbT0hdKVtDSDJdQyhbQ0gzXSkoW0NIM10pW0NIMl1bQ0BIXTNbT0hd

>  <s_epik_cmdline>  (194) 
J2VwaWtfcHl0aG9uJywgJy1waHQnLCAnMi4wJywgJy1waCcsICc3LjAnLCAnLXRuJywgJzgnLCAnLW1hJywgJzIwMCcsICctaW1hZScsICc8aW5maWxlLm1hZT4nLCAnLW9tYWUnLCAnPG91dGZpbGUubWFlPic=

>  <r_epik_Ionization_Penalty>  (194) 
0.000535837

>  <r_epik_Ionization_Penalty_Charging>  (194) 
0

>  <r_epik_Ionization_Penalty_Neutral>  (194) 
0.000535837

>  <r_epik_State_Penalty>  (194) 
0.000334791

>  <r_epik_Charging_Adjusted_Penalty>  (194) 
0.000334791

>  <i_epik_Tot_Q>  (194) 
0

>  <i_epik_Tot_abs_Q>  (194) 
0

>  <s_lp_Force_Field>  (194) 
OPLS3e

>  <r_lp_Energy>  (194) 
91.5875

>  <b_lp_Chiralities_Consistent>  (194) 
1

>  <s_lp_Variant>  (194) 
59:0-1

>  <s_i_glide_gridfile>  (194) 
pfpi4k_grid

>  <i_i_glide_lignum>  (194) 
9

>  <i_i_glide_rotatable_bonds>  (194) 
7

>  <r_i_docking_score>  (194) 
-3.40124

>  <r_i_glide_ligand_efficiency>  (194) 
-0.100037

>  <r_i_glide_ligand_efficiency_sa>  (194) 
-0.32408

>  <r_i_glide_ligand_efficiency_ln>  (194) 
-0.75143

>  <r_i_glide_gscore>  (194) 
-3.40124

>  <r_i_glide_lipo>  (194) 
-0.666564

>  <r_i_glide_hbond>  (194) 
-0.456

>  <r_i_glide_metal>  (194) 
-0

>  <r_i_glide_rewards>  (194) 
-0.220929

>  <r_i_glide_evdw>  (194) 
-28.8395

>  <r_i_glide_ecoul>  (194) 
-5.83536

>  <r_i_glide_erotb>  (194) 
0.276933

>  <r_i_glide_esite>  (194) 
-0.0174032

>  <r_i_glide_emodel>  (194) 
-38.747

>  <r_i_glide_energy>  (194) 
-34.6749

>  <r_i_glide_einternal>  (194) 
7.6694

>  <r_i_glide_intrahb_reward>  (194) 
-0

>  <i_i_glide_confnum>  (194) 
3

>  <i_i_glide_posenum>  (194) 
2

>  <r_i_glide_eff_state_penalty>  (194) 
0

>  <ligand_id>  (194) 
59

>  <original_smiles>  (194) 
COC1=CC2C34CC(O)C(C)(C=C3C3CC(C)(C)CC(O)C32C(O)C1CNc1ccccc1)O4

>  <smiles>  (194) 
[H]OC1([H])C([H])([H])C23OC1(C([H])([H])[H])C([H])=C2C1([H])C([H])([H])C(C([H])([H])[H])(C([H])([H])[H])C([H])([H])C([H])(O[H])C12C([H])(O[H])C([H])(C([H])([H])N([H])c1c([H])c([H])c([H])c([H])c1[H])C(OC([H])([H])[H])=C([H])C32[H]

$$$$
59:0:1
     RDKit          3D

 71 76  0  0  1  0  0  0  0  0999 V2000
    0.7497   -1.6335    4.4361 C   0  0  0  0  0  0  0  0  0  0  0  0
    1.8844   -1.7929    3.5796 O   0  0  0  0  0  0  0  0  0  0  0  0
    2.1648   -3.0854    3.1862 C   0  0  0  0  0  0  0  0  0  0  0  0
    1.5911   -4.2031    3.7053 C   0  0  0  0  0  0  0  0  0  0  0  0
    1.9730   -5.4996    3.1050 C   0  0  2  0  0  0  0  0  0  0  0  0
    1.2728   -6.7994    3.4342 C   0  0  2  0  0  0  0  0  0  0  0  0
    1.0757   -7.3565    4.8416 C   0  0  0  0  0  0  0  0  0  0  0  0
    0.2406   -8.6312    4.5030 C   0  0  1  0  0  0  0  0  0  0  0  0
   -0.9784   -8.6614    5.2100 O   0  0  0  0  0  0  0  0  0  0  0  0
    0.0607   -8.4969    2.9554 C   0  0  2  0  0  0  0  0  0  0  0  0
   -1.1885   -9.1453    2.3381 C   0  0  0  0  0  0  0  0  0  0  0  0
    1.3957   -8.7768    2.2924 C   0  0  0  0  0  0  0  0  0  0  0  0
    2.1292   -7.7242    2.6455 C   0  0  0  0  0  0  0  0  0  0  0  0
    3.5354   -7.1900    2.5441 C   0  0  1  0  0  0  0  0  0  0  0  0
    4.7270   -7.6186    1.6847 C   0  0  0  0  0  0  0  0  0  0  0  0
    6.0250   -7.2951    2.5193 C   0  0  0  0  0  0  0  0  0  0  0  0
    6.3974   -8.5122    3.4037 C   0  0  0  0  0  0  0  0  0  0  0  0
    7.1927   -7.0914    1.5277 C   0  0  0  0  0  0  0  0  0  0  0  0
    5.9281   -5.9809    3.3946 C   0  0  0  0  0  0  0  0  0  0  0  0
    4.5371   -5.5533    3.9517 C   0  0  1  0  0  0  0  0  0  0  0  0
    4.6820   -4.2856    4.5429 O   0  0  0  0  0  0  0  0  0  0  0  0
    3.4821   -5.6722    2.8145 C   0  0  2  0  0  0  0  0  0  0  0  0
    3.7511   -4.6046    1.6903 C   0  0  1  0  0  0  0  0  0  0  0  0
    3.1347   -5.0168    0.4877 O   0  0  0  0  0  0  0  0  0  0  0  0
    3.2613   -3.1449    2.0866 C   0  0  1  0  0  0  0  0  0  0  0  0
    2.9104   -2.2493    0.8594 C   0  0  0  0  0  0  0  0  0  0  0  0
    4.0668   -1.9947   -0.0003 N   0  0  0  0  0  0  0  0  0  0  0  0
    3.8098   -1.8463   -1.3776 C   0  0  0  0  0  0  0  0  0  0  0  0
    3.1352   -2.8408   -2.1243 C   0  0  0  0  0  0  0  0  0  0  0  0
    2.9682   -2.7029   -3.5184 C   0  0  0  0  0  0  0  0  0  0  0  0
    3.4551   -1.5573   -4.1726 C   0  0  0  0  0  0  0  0  0  0  0  0
    4.0855   -0.5489   -3.4393 C   0  0  0  0  0  0  0  0  0  0  0  0
    4.2857   -0.7038   -2.0550 C   0  0  0  0  0  0  0  0  0  0  0  0
   -0.0068   -7.0650    2.8879 O   0  0  0  0  0  0  0  0  0  0  0  0
    0.5052   -0.5796    4.5881 H   0  0  0  0  0  0  0  0  0  0  0  0
    0.9149   -2.0842    5.4218 H   0  0  0  0  0  0  0  0  0  0  0  0
   -0.1330   -2.0986    3.9835 H   0  0  0  0  0  0  0  0  0  0  0  0
    0.8418   -4.2536    4.4806 H   0  0  0  0  0  0  0  0  0  0  0  0
    1.4860   -5.3403    2.1459 H   0  0  0  0  0  0  0  0  0  0  0  0
    2.0103   -7.5881    5.3575 H   0  0  0  0  0  0  0  0  0  0  0  0
    0.5068   -6.6635    5.4618 H   0  0  0  0  0  0  0  0  0  0  0  0
    0.7923   -9.5422    4.7655 H   0  0  0  0  0  0  0  0  0  0  0  0
   -1.3425   -9.5351    5.1979 H   0  0  0  0  0  0  0  0  0  0  0  0
   -1.1636  -10.2290    2.4266 H   0  0  0  0  0  0  0  0  0  0  0  0
   -1.2737   -8.8827    1.2835 H   0  0  0  0  0  0  0  0  0  0  0  0
   -2.1016   -8.7903    2.8166 H   0  0  0  0  0  0  0  0  0  0  0  0
    1.6647   -9.6655    1.7332 H   0  0  0  0  0  0  0  0  0  0  0  0
    3.7880   -7.7012    3.4718 H   0  0  0  0  0  0  0  0  0  0  0  0
    4.6713   -8.6802    1.4585 H   0  0  0  0  0  0  0  0  0  0  0  0
    4.7325   -7.0941    0.7246 H   0  0  0  0  0  0  0  0  0  0  0  0
    7.3475   -8.3648    3.9152 H   0  0  0  0  0  0  0  0  0  0  0  0
    6.5024   -9.4223    2.8127 H   0  0  0  0  0  0  0  0  0  0  0  0
    5.6537   -8.7125    4.1697 H   0  0  0  0  0  0  0  0  0  0  0  0
    8.1325   -6.8697    2.0470 H   0  0  0  0  0  0  0  0  0  0  0  0
    6.9842   -6.2426    0.8678 H   0  0  0  0  0  0  0  0  0  0  0  0
    7.3575   -7.9712    0.8959 H   0  0  0  0  0  0  0  0  0  0  0  0
    6.5804   -6.1064    4.2532 H   0  0  0  0  0  0  0  0  0  0  0  0
    6.3750   -5.1485    2.8440 H   0  0  0  0  0  0  0  0  0  0  0  0
    4.2498   -6.1939    4.7895 H   0  0  0  0  0  0  0  0  0  0  0  0
    4.9483   -3.6678    3.8669 H   0  0  0  0  0  0  0  0  0  0  0  0
    4.8064   -4.5624    1.4360 H   0  0  0  0  0  0  0  0  0  0  0  0
    3.4545   -4.4418   -0.2000 H   0  0  0  0  0  0  0  0  0  0  0  0
    4.1159   -2.6464    2.5524 H   0  0  0  0  0  0  0  0  0  0  0  0
    2.0621   -2.6635    0.3130 H   0  0  0  0  0  0  0  0  0  0  0  0
    2.5671   -1.2788    1.2240 H   0  0  0  0  0  0  0  0  0  0  0  0
    4.6671   -1.2811    0.3902 H   0  0  0  0  0  0  0  0  0  0  0  0
    2.7351   -3.7275   -1.6550 H   0  0  0  0  0  0  0  0  0  0  0  0
    2.4672   -3.4864   -4.0782 H   0  0  0  0  0  0  0  0  0  0  0  0
    3.3483   -1.4193   -5.2395 H   0  0  0  0  0  0  0  0  0  0  0  0
    4.4227    0.3404   -3.9506 H   0  0  0  0  0  0  0  0  0  0  0  0
    4.7548    0.0912   -1.5044 H   0  0  0  0  0  0  0  0  0  0  0  0
  1  2  1  0
  1 35  1  0
  1 36  1  0
  1 37  1  0
  2  3  1  0
  3 25  1  0
  3  4  2  0
  4  5  1  0
  4 38  1  0
  5 22  1  0
  5  6  1  0
  5 39  1  6
  6 13  1  0
  6 34  1  0
  6  7  1  1
  7  8  1  0
  7 40  1  0
  7 41  1  0
  8  9  1  0
  8 10  1  0
  8 42  1  6
  9 43  1  0
 10 11  1  6
 10 12  1  0
 10 34  1  0
 11 44  1  0
 11 45  1  0
 11 46  1  0
 12 13  2  0
 12 47  1  0
 13 14  1  0
 14 22  1  0
 14 15  1  0
 14 48  1  1
 15 16  1  0
 15 49  1  0
 15 50  1  0
 16 17  1  0
 16 18  1  0
 16 19  1  0
 17 51  1  0
 17 52  1  0
 17 53  1  0
 18 54  1  0
 18 55  1  0
 18 56  1  0
 19 20  1  0
 19 57  1  0
 19 58  1  0
 20 21  1  0
 22 20  1  1
 20 59  1  1
 21 60  1  0
 22 23  1  0
 23 24  1  0
 23 25  1  0
 23 61  1  6
 24 62  1  0
 25 26  1  0
 25 63  1  1
 26 27  1  0
 26 64  1  0
 26 65  1  0
 27 28  1  0
 27 66  1  0
 28 33  1  0
 28 29  2  0
 29 30  1  0
 29 67  1  0
 30 31  2  0
 30 68  1  0
 31 32  1  0
 31 69  1  0
 32 33  2  0
 32 70  1  0
 33 71  1  0
M  END
>  <i_m_ct_stereo_status>  (195) 
1

>  <s_m_source_file>  (195) 
/var/tmp/pbs.5076255.sched01/tmp7qb2j_xu/82up84z1qn.sdf

>  <i_m_source_file_index>  (195) 
9

>  <i_lp_mmshare_version>  (195) 
48012

>  <i_f3d_flags>  (195) 
0

>  <s_epik_input>  (195) 
W2NIXTFbY0hdW2NIXVtjSF1bY0hdYzFbTkhdW0NIMl1bQ0BASF0oQyg9W0NIXTIpT1tDSDNdKVtDQEhdKFtPSF0pW0NAQF0zKFtDQEhdMltDQF00NTYpW0NAQEhdKEM1PVtDSF1bQ0BAXShPNikoW0NIM10pW0NAQEhdKFtDSDJdNClbT0hdKVtDSDJdQyhbQ0gzXSkoW0NIM10pW0NIMl1bQ0BIXTNbT0hd

>  <s_epik_cmdline>  (195) 
J2VwaWtfcHl0aG9uJywgJy1waHQnLCAnMi4wJywgJy1waCcsICc3LjAnLCAnLXRuJywgJzgnLCAnLW1hJywgJzIwMCcsICctaW1hZScsICc8aW5maWxlLm1hZT4nLCAnLW9tYWUnLCAnPG91dGZpbGUubWFlPic=

>  <r_epik_Ionization_Penalty>  (195) 
0.000535837

>  <r_epik_Ionization_Penalty_Charging>  (195) 
0

>  <r_epik_Ionization_Penalty_Neutral>  (195) 
0.000535837

>  <r_epik_State_Penalty>  (195) 
0.000334791

>  <r_epik_Charging_Adjusted_Penalty>  (195) 
0.000334791

>  <i_epik_Tot_Q>  (195) 
0

>  <i_epik_Tot_abs_Q>  (195) 
0

>  <s_lp_Force_Field>  (195) 
OPLS3e

>  <r_lp_Energy>  (195) 
91.5875

>  <b_lp_Chiralities_Consistent>  (195) 
1

>  <s_lp_Variant>  (195) 
59:0-1

>  <s_i_glide_gridfile>  (195) 
pfpi4k_grid

>  <i_i_glide_lignum>  (195) 
9

>  <i_i_glide_rotatable_bonds>  (195) 
7

>  <r_i_docking_score>  (195) 
-3.27029

>  <r_i_glide_ligand_efficiency>  (195) 
-0.096185

>  <r_i_glide_ligand_efficiency_sa>  (195) 
-0.311602

>  <r_i_glide_ligand_efficiency_ln>  (195) 
-0.722499

>  <r_i_glide_gscore>  (195) 
-3.27029

>  <r_i_glide_lipo>  (195) 
-0.815012

>  <r_i_glide_hbond>  (195) 
-0.00212285

>  <r_i_glide_metal>  (195) 
-0

>  <r_i_glide_rewards>  (195) 
-0.220929

>  <r_i_glide_evdw>  (195) 
-29.4036

>  <r_i_glide_ecoul>  (195) 
-6.76697

>  <r_i_glide_erotb>  (195) 
0.276933

>  <r_i_glide_esite>  (195) 
-0.0239359

>  <r_i_glide_emodel>  (195) 
-41.6149

>  <r_i_glide_energy>  (195) 
-36.1705

>  <r_i_glide_einternal>  (195) 
3.79883

>  <r_i_glide_intrahb_reward>  (195) 
-0

>  <i_i_glide_confnum>  (195) 
3

>  <i_i_glide_posenum>  (195) 
13

>  <r_i_glide_eff_state_penalty>  (195) 
0

>  <ligand_id>  (195) 
59

>  <original_smiles>  (195) 
COC1=CC2C34CC(O)C(C)(C=C3C3CC(C)(C)CC(O)C32C(O)C1CNc1ccccc1)O4

>  <smiles>  (195) 
[H]OC1([H])C([H])([H])C23OC1(C([H])([H])[H])C([H])=C2C1([H])C([H])([H])C(C([H])([H])[H])(C([H])([H])[H])C([H])([H])C([H])(O[H])C12C([H])(O[H])C([H])(C([H])([H])N([H])c1c([H])c([H])c([H])c([H])c1[H])C(OC([H])([H])[H])=C([H])C32[H]

$$$$
59:0:2
     RDKit          3D

 71 76  0  0  1  0  0  0  0  0999 V2000
    3.3309   -1.2718    3.7725 C   0  0  0  0  0  0  0  0  0  0  0  0
    2.2833   -2.2446    3.7862 O   0  0  0  0  0  0  0  0  0  0  0  0
    2.5369   -3.4986    3.2701 C   0  0  0  0  0  0  0  0  0  0  0  0
    1.9330   -4.5658    3.8222 C   0  0  0  0  0  0  0  0  0  0  0  0
    2.2366   -5.9182    3.2490 C   0  0  2  0  0  0  0  0  0  0  0  0
    1.5669   -7.2328    3.6376 C   0  0  2  0  0  0  0  0  0  0  0  0
    1.4591   -7.7796    5.0664 C   0  0  0  0  0  0  0  0  0  0  0  0
    0.5844   -9.0357    4.7988 C   0  0  1  0  0  0  0  0  0  0  0  0
   -0.5865   -8.9941    5.5900 O   0  0  0  0  0  0  0  0  0  0  0  0
    0.3009   -8.9091    3.2658 C   0  0  2  0  0  0  0  0  0  0  0  0
   -0.9769   -9.5501    2.7280 C   0  0  0  0  0  0  0  0  0  0  0  0
    1.5802   -9.2186    2.4996 C   0  0  0  0  0  0  0  0  0  0  0  0
    2.3552   -8.1725    2.7859 C   0  0  0  0  0  0  0  0  0  0  0  0
    3.7538   -7.6594    2.5907 C   0  0  1  0  0  0  0  0  0  0  0  0
    4.8776   -8.1191    1.6606 C   0  0  0  0  0  0  0  0  0  0  0  0
    6.2378   -7.8043    2.3893 C   0  0  0  0  0  0  0  0  0  0  0  0
    6.6538   -9.0152    3.2609 C   0  0  0  0  0  0  0  0  0  0  0  0
    7.3332   -7.6181    1.3156 C   0  0  0  0  0  0  0  0  0  0  0  0
    6.2140   -6.4875    3.2632 C   0  0  0  0  0  0  0  0  0  0  0  0
    4.8652   -6.0264    3.9033 C   0  0  1  0  0  0  0  0  0  0  0  0
    5.0600   -4.7405    4.4470 O   0  0  0  0  0  0  0  0  0  0  0  0
    3.7220   -6.1315    2.8455 C   0  0  2  0  0  0  0  0  0  0  0  0
    3.9288   -5.0976    1.6772 C   0  0  1  0  0  0  0  0  0  0  0  0
    3.2382   -5.5144    0.5133 O   0  0  0  0  0  0  0  0  0  0  0  0
    3.5188   -3.6161    2.0639 C   0  0  1  0  0  0  0  0  0  0  0  0
    3.0409   -2.7679    0.8470 C   0  0  0  0  0  0  0  0  0  0  0  0
    4.1556   -2.4350   -0.0265 N   0  0  0  0  0  0  0  0  0  0  0  0
    3.8493   -2.1221   -1.3565 C   0  0  0  0  0  0  0  0  0  0  0  0
    3.0265   -2.9582   -2.1425 C   0  0  0  0  0  0  0  0  0  0  0  0
    2.7790   -2.6516   -3.4921 C   0  0  0  0  0  0  0  0  0  0  0  0
    3.3419   -1.4962   -4.0633 C   0  0  0  0  0  0  0  0  0  0  0  0
    4.1377   -0.6460   -3.2792 C   0  0  0  0  0  0  0  0  0  0  0  0
    4.4025   -0.9637   -1.9362 C   0  0  0  0  0  0  0  0  0  0  0  0
    0.2479   -7.4815    3.1874 O   0  0  0  0  0  0  0  0  0  0  0  0
    3.0239   -0.4184    4.3772 H   0  0  0  0  0  0  0  0  0  0  0  0
    3.5694   -0.8750    2.7859 H   0  0  0  0  0  0  0  0  0  0  0  0
    4.2433   -1.6742    4.2166 H   0  0  0  0  0  0  0  0  0  0  0  0
    1.2366   -4.5007    4.6550 H   0  0  0  0  0  0  0  0  0  0  0  0
    1.6946   -5.7843    2.3144 H   0  0  0  0  0  0  0  0  0  0  0  0
    2.4276   -8.0190    5.5088 H   0  0  0  0  0  0  0  0  0  0  0  0
    0.9490   -7.0680    5.7142 H   0  0  0  0  0  0  0  0  0  0  0  0
    1.1285   -9.9595    5.0272 H   0  0  0  0  0  0  0  0  0  0  0  0
   -1.1301   -9.7610    5.3660 H   0  0  0  0  0  0  0  0  0  0  0  0
   -0.9228  -10.6289    2.8285 H   0  0  0  0  0  0  0  0  0  0  0  0
   -1.1204   -9.3160    1.6782 H   0  0  0  0  0  0  0  0  0  0  0  0
   -1.8627   -9.1964    3.2589 H   0  0  0  0  0  0  0  0  0  0  0  0
    1.8009  -10.1194    1.9475 H   0  0  0  0  0  0  0  0  0  0  0  0
    4.0579   -8.1709    3.5032 H   0  0  0  0  0  0  0  0  0  0  0  0
    4.7901   -9.1819    1.4400 H   0  0  0  0  0  0  0  0  0  0  0  0
    4.8181   -7.6045    0.6998 H   0  0  0  0  0  0  0  0  0  0  0  0
    7.6392   -8.8753    3.7040 H   0  0  0  0  0  0  0  0  0  0  0  0
    6.7071   -9.9336    2.6765 H   0  0  0  0  0  0  0  0  0  0  0  0
    5.9624   -9.1984    4.0817 H   0  0  0  0  0  0  0  0  0  0  0  0
    8.3090   -7.4122    1.7652 H   0  0  0  0  0  0  0  0  0  0  0  0
    7.0907   -6.7645    0.6764 H   0  0  0  0  0  0  0  0  0  0  0  0
    7.4395   -8.5055    0.6866 H   0  0  0  0  0  0  0  0  0  0  0  0
    6.9320   -6.6022    4.0706 H   0  0  0  0  0  0  0  0  0  0  0  0
    6.6175   -5.6609    2.6755 H   0  0  0  0  0  0  0  0  0  0  0  0
    4.6280   -6.6501    4.7670 H   0  0  0  0  0  0  0  0  0  0  0  0
    5.6528   -4.8147    5.1871 H   0  0  0  0  0  0  0  0  0  0  0  0
    4.9670   -5.0862    1.3605 H   0  0  0  0  0  0  0  0  0  0  0  0
    3.5179   -4.9537   -0.2062 H   0  0  0  0  0  0  0  0  0  0  0  0
    4.4451   -3.1827    2.4312 H   0  0  0  0  0  0  0  0  0  0  0  0
    2.2214   -3.2652    0.3285 H   0  0  0  0  0  0  0  0  0  0  0  0
    2.5962   -1.8265    1.1623 H   0  0  0  0  0  0  0  0  0  0  0  0
    4.8348   -1.8323    0.4119 H   0  0  0  0  0  0  0  0  0  0  0  0
    2.5837   -3.8452   -1.7190 H   0  0  0  0  0  0  0  0  0  0  0  0
    2.1558   -3.3080   -4.0870 H   0  0  0  0  0  0  0  0  0  0  0  0
    3.1469   -1.2460   -5.0970 H   0  0  0  0  0  0  0  0  0  0  0  0
    4.5441    0.2540   -3.7154 H   0  0  0  0  0  0  0  0  0  0  0  0
    5.0038   -0.2876   -1.3487 H   0  0  0  0  0  0  0  0  0  0  0  0
  1  2  1  0
  1 35  1  0
  1 36  1  0
  1 37  1  0
  2  3  1  0
  3 25  1  0
  3  4  2  0
  4  5  1  0
  4 38  1  0
  5 22  1  0
  5  6  1  0
  5 39  1  6
  6 13  1  0
  6 34  1  0
  6  7  1  1
  7  8  1  0
  7 40  1  0
  7 41  1  0
  8  9  1  0
  8 10  1  0
  8 42  1  6
  9 43  1  0
 10 11  1  6
 10 12  1  0
 10 34  1  0
 11 44  1  0
 11 45  1  0
 11 46  1  0
 12 13  2  0
 12 47  1  0
 13 14  1  0
 14 22  1  0
 14 15  1  0
 14 48  1  1
 15 16  1  0
 15 49  1  0
 15 50  1  0
 16 17  1  0
 16 18  1  0
 16 19  1  0
 17 51  1  0
 17 52  1  0
 17 53  1  0
 18 54  1  0
 18 55  1  0
 18 56  1  0
 19 20  1  0
 19 57  1  0
 19 58  1  0
 20 21  1  0
 22 20  1  1
 20 59  1  1
 21 60  1  0
 22 23  1  0
 23 24  1  0
 23 25  1  0
 23 61  1  6
 24 62  1  0
 25 26  1  0
 25 63  1  1
 26 27  1  0
 26 64  1  0
 26 65  1  0
 27 28  1  0
 27 66  1  0
 28 33  1  0
 28 29  2  0
 29 30  1  0
 29 67  1  0
 30 31  2  0
 30 68  1  0
 31 32  1  0
 31 69  1  0
 32 33  2  0
 32 70  1  0
 33 71  1  0
M  END
>  <i_m_ct_stereo_status>  (196) 
1

>  <s_m_source_file>  (196) 
/var/tmp/pbs.5076255.sched01/tmp7qb2j_xu/82up84z1qn.sdf

>  <i_m_source_file_index>  (196) 
9

>  <i_lp_mmshare_version>  (196) 
48012

>  <i_f3d_flags>  (196) 
0

>  <s_epik_input>  (196) 
W2NIXTFbY0hdW2NIXVtjSF1bY0hdYzFbTkhdW0NIMl1bQ0BASF0oQyg9W0NIXTIpT1tDSDNdKVtDQEhdKFtPSF0pW0NAQF0zKFtDQEhdMltDQF00NTYpW0NAQEhdKEM1PVtDSF1bQ0BAXShPNikoW0NIM10pW0NAQEhdKFtDSDJdNClbT0hdKVtDSDJdQyhbQ0gzXSkoW0NIM10pW0NIMl1bQ0BIXTNbT0hd

>  <s_epik_cmdline>  (196) 
J2VwaWtfcHl0aG9uJywgJy1waHQnLCAnMi4wJywgJy1waCcsICc3LjAnLCAnLXRuJywgJzgnLCAnLW1hJywgJzIwMCcsICctaW1hZScsICc8aW5maWxlLm1hZT4nLCAnLW9tYWUnLCAnPG91dGZpbGUubWFlPic=

>  <r_epik_Ionization_Penalty>  (196) 
0.000535837

>  <r_epik_Ionization_Penalty_Charging>  (196) 
0

>  <r_epik_Ionization_Penalty_Neutral>  (196) 
0.000535837

>  <r_epik_State_Penalty>  (196) 
0.000334791

>  <r_epik_Charging_Adjusted_Penalty>  (196) 
0.000334791

>  <i_epik_Tot_Q>  (196) 
0

>  <i_epik_Tot_abs_Q>  (196) 
0

>  <s_lp_Force_Field>  (196) 
OPLS3e

>  <r_lp_Energy>  (196) 
91.5875

>  <b_lp_Chiralities_Consistent>  (196) 
1

>  <s_lp_Variant>  (196) 
59:0-1

>  <s_i_glide_gridfile>  (196) 
pfpi4k_grid

>  <i_i_glide_lignum>  (196) 
9

>  <i_i_glide_rotatable_bonds>  (196) 
7

>  <r_i_docking_score>  (196) 
-3.09929

>  <r_i_glide_ligand_efficiency>  (196) 
-0.0911556

>  <r_i_glide_ligand_efficiency_sa>  (196) 
-0.295309

>  <r_i_glide_ligand_efficiency_ln>  (196) 
-0.68472

>  <r_i_glide_gscore>  (196) 
-3.09929

>  <r_i_glide_lipo>  (196) 
-0.688886

>  <r_i_glide_hbond>  (196) 
0

>  <r_i_glide_metal>  (196) 
-0

>  <r_i_glide_rewards>  (196) 
-0.220929

>  <r_i_glide_evdw>  (196) 
-29.6832

>  <r_i_glide_ecoul>  (196) 
-6.47023

>  <r_i_glide_erotb>  (196) 
0.276933

>  <r_i_glide_esite>  (196) 
-0.011715

>  <r_i_glide_emodel>  (196) 
-39.0774

>  <r_i_glide_energy>  (196) 
-36.1534

>  <r_i_glide_einternal>  (196) 
8.98579

>  <r_i_glide_intrahb_reward>  (196) 
-0

>  <i_i_glide_confnum>  (196) 
3

>  <i_i_glide_posenum>  (196) 
38

>  <r_i_glide_eff_state_penalty>  (196) 
0

>  <ligand_id>  (196) 
59

>  <original_smiles>  (196) 
COC1=CC2C34CC(O)C(C)(C=C3C3CC(C)(C)CC(O)C32C(O)C1CNc1ccccc1)O4

>  <smiles>  (196) 
[H]OC1([H])C([H])([H])C23OC1(C([H])([H])[H])C([H])=C2C1([H])C([H])([H])C(C([H])([H])[H])(C([H])([H])[H])C([H])([H])C([H])(O[H])C12C([H])(O[H])C([H])(C([H])([H])N([H])c1c([H])c([H])c([H])c([H])c1[H])C(OC([H])([H])[H])=C([H])C32[H]

$$$$
60:0:0
     RDKit          3D

 30 31  0  0  1  0  0  0  0  0999 V2000
   -7.8008   -7.4931   -8.8631 C   0  0  0  0  0  0  0  0  0  0  0  0
   -7.0930   -8.8090   -8.4929 C   0  0  0  0  0  0  0  0  0  0  0  0
   -7.7467   -9.9112   -9.3647 C   0  0  0  0  0  0  0  0  0  0  0  0
   -7.0418   -9.1994   -6.9611 C   0  0  2  0  0  0  0  0  0  0  0  0
   -6.2325   -8.2213   -6.0489 C   0  0  0  0  0  0  0  0  0  0  0  0
   -5.1570   -8.5947   -5.5779 O   0  0  0  0  0  0  0  0  0  0  0  0
   -6.7329   -6.8777   -5.7694 C   0  0  0  0  0  0  0  0  0  0  0  0
   -7.8604   -6.2402   -6.1974 C   0  0  0  0  0  0  0  0  0  0  0  0
   -7.9108   -4.8883   -5.7748 C   0  0  0  0  0  0  0  0  0  0  0  0
   -6.8887   -4.5227   -4.9348 C   0  0  0  0  0  0  0  0  0  0  0  0
   -5.7623   -5.8290   -4.7297 S   0  0  0  0  0  0  0  0  0  0  0  0
   -6.6330  -10.5973   -6.7653 N   0  0  0  0  0  0  0  0  0  0  0  0
   -5.3373  -11.1006   -6.7891 C   0  0  0  0  0  0  0  0  0  0  0  0
   -5.3974  -12.4406   -6.4935 C   0  0  0  0  0  0  0  0  0  0  0  0
   -6.7412  -12.8099   -6.3208 N   0  0  0  0  0  0  0  0  0  0  0  0
   -7.4069  -11.6685   -6.5182 C   0  0  0  0  0  0  0  0  0  0  0  0
   -8.8380   -7.5006   -8.4914 H   0  0  0  0  0  0  0  0  0  0  0  0
   -7.8483   -7.3386   -9.9305 H   0  0  0  0  0  0  0  0  0  0  0  0
   -7.3161   -6.6399   -8.3840 H   0  0  0  0  0  0  0  0  0  0  0  0
   -6.0587   -8.7173   -8.8331 H   0  0  0  0  0  0  0  0  0  0  0  0
   -8.7737  -10.1045   -9.0482 H   0  0  0  0  0  0  0  0  0  0  0  0
   -7.1963  -10.8546   -9.3439 H   0  0  0  0  0  0  0  0  0  0  0  0
   -7.7912   -9.5968  -10.4094 H   0  0  0  0  0  0  0  0  0  0  0  0
   -8.0636   -9.1465   -6.5943 H   0  0  0  0  0  0  0  0  0  0  0  0
   -8.6367   -6.6967   -6.8107 H   0  0  0  0  0  0  0  0  0  0  0  0
   -8.7057   -4.2353   -6.0811 H   0  0  0  0  0  0  0  0  0  0  0  0
   -6.7009   -3.5719   -4.4297 H   0  0  0  0  0  0  0  0  0  0  0  0
   -4.4747  -10.4702   -6.9665 H   0  0  0  0  0  0  0  0  0  0  0  0
   -4.6077  -13.1382   -6.3597 H   0  0  0  0  0  0  0  0  0  0  0  0
   -8.4811  -11.6137   -6.4390 H   0  0  0  0  0  0  0  0  0  0  0  0
  1  2  1  0
  1 17  1  0
  1 18  1  0
  1 19  1  0
  2  3  1  0
  2  4  1  0
  2 20  1  0
  3 21  1  0
  3 22  1  0
  3 23  1  0
  4  5  1  0
  4 12  1  0
  4 24  1  1
  5  6  2  0
  5  7  1  0
  7 11  1  0
  7  8  2  0
  8  9  1  0
  8 25  1  0
  9 10  2  0
  9 26  1  0
 10 11  1  0
 10 27  1  0
 12 16  1  0
 12 13  1  0
 13 14  2  0
 13 28  1  0
 14 15  1  0
 14 29  1  0
 15 16  2  0
 16 30  1  0
M  END
>  <i_m_ct_stereo_status>  (197) 
1

>  <s_m_source_file>  (197) 
/var/tmp/pbs.5076255.sched01/tmp7qb2j_xu/82up84z1qn.sdf

>  <i_m_source_file_index>  (197) 
10

>  <i_lp_mmshare_version>  (197) 
48012

>  <i_f3d_flags>  (197) 
0

>  <s_epik_input>  (197) 
W2NIXTFuW2NIXVtjSF1uMVtDQEhdKFtDSF0oW0NIM10pW0NIM10pQyg9TyljMltjSF1bY0hdW2NIXXMy

>  <s_epik_cmdline>  (197) 
J2VwaWtfcHl0aG9uJywgJy1waHQnLCAnMi4wJywgJy1waCcsICc3LjAnLCAnLXRuJywgJzgnLCAnLW1hJywgJzIwMCcsICctaW1hZScsICc8aW5maWxlLm1hZT4nLCAnLW9tYWUnLCAnPG91dGZpbGUubWFlPic=

>  <r_lp_tautomer_probability>  (197) 
1

>  <r_epik_Ionization_Penalty>  (197) 
0.31459

>  <r_epik_Ionization_Penalty_Charging>  (197) 
0.31459

>  <r_epik_Ionization_Penalty_Neutral>  (197) 
0

>  <r_epik_State_Penalty>  (197) 
0.308804

>  <r_epik_Charging_Adjusted_Penalty>  (197) 
0.623395

>  <i_epik_Tot_Q>  (197) 
0

>  <i_epik_Tot_abs_Q>  (197) 
0

>  <s_lp_Force_Field>  (197) 
OPLS3e

>  <r_lp_Energy>  (197) 
17.6914

>  <b_lp_Chiralities_Consistent>  (197) 
1

>  <s_lp_Variant>  (197) 
60:0-1

>  <s_i_glide_gridfile>  (197) 
pfpi4k_grid

>  <i_i_glide_lignum>  (197) 
10

>  <i_i_glide_rotatable_bonds>  (197) 
4

>  <r_i_docking_score>  (197) 
-5.96191

>  <r_i_glide_ligand_efficiency>  (197) 
-0.372619

>  <r_i_glide_ligand_efficiency_sa>  (197) 
-0.938941

>  <r_i_glide_ligand_efficiency_ln>  (197) 
-1.58032

>  <r_i_glide_gscore>  (197) 
-5.96191

>  <r_i_glide_lipo>  (197) 
-2.23709

>  <r_i_glide_hbond>  (197) 
0

>  <r_i_glide_metal>  (197) 
-0

>  <r_i_glide_rewards>  (197) 
-3.04914

>  <r_i_glide_evdw>  (197) 
-28.7129

>  <r_i_glide_ecoul>  (197) 
-1.18858

>  <r_i_glide_erotb>  (197) 
0.938255

>  <r_i_glide_esite>  (197) 
0

>  <r_i_glide_emodel>  (197) 
-34.5804

>  <r_i_glide_energy>  (197) 
-29.9015

>  <r_i_glide_einternal>  (197) 
7.26259

>  <r_i_glide_intrahb_reward>  (197) 
-0

>  <i_i_glide_confnum>  (197) 
5

>  <i_i_glide_posenum>  (197) 
11

>  <r_i_glide_eff_state_penalty>  (197) 
0

>  <ligand_id>  (197) 
60

>  <original_smiles>  (197) 
CC(C)C(C(=O)c1cccs1)n1ccnc1

>  <smiles>  (197) 
[H]c1nc([H])n(C([H])(C(=O)c2sc([H])c([H])c2[H])C([H])(C([H])([H])[H])C([H])([H])[H])c1[H]

$$$$
60:0:1
     RDKit          3D

 30 31  0  0  1  0  0  0  0  0999 V2000
   -7.4337   -8.1536   -9.9545 C   0  0  0  0  0  0  0  0  0  0  0  0
   -8.4117   -7.8926   -8.7885 C   0  0  0  0  0  0  0  0  0  0  0  0
   -8.6844   -6.3729   -8.7506 C   0  0  0  0  0  0  0  0  0  0  0  0
   -8.0130   -8.5808   -7.4108 C   0  0  2  0  0  0  0  0  0  0  0  0
   -6.7508   -7.9871   -6.7062 C   0  0  0  0  0  0  0  0  0  0  0  0
   -5.6880   -8.5962   -6.7771 O   0  0  0  0  0  0  0  0  0  0  0  0
   -6.8598   -6.7118   -5.9726 C   0  0  0  0  0  0  0  0  0  0  0  0
   -7.8708   -5.8253   -5.8764 C   0  0  0  0  0  0  0  0  0  0  0  0
   -7.4914   -4.6292   -5.2041 C   0  0  0  0  0  0  0  0  0  0  0  0
   -6.2105   -4.6504   -4.6920 C   0  0  0  0  0  0  0  0  0  0  0  0
   -5.4022   -6.1430   -5.0959 S   0  0  0  0  0  0  0  0  0  0  0  0
   -7.9187  -10.0578   -7.4930 N   0  0  0  0  0  0  0  0  0  0  0  0
   -7.0730  -10.8070   -8.3162 C   0  0  0  0  0  0  0  0  0  0  0  0
   -7.3027  -12.1251   -8.0501 C   0  0  0  0  0  0  0  0  0  0  0  0
   -8.2340  -12.2409   -6.9989 N   0  0  0  0  0  0  0  0  0  0  0  0
   -8.5535  -10.9660   -6.7425 C   0  0  0  0  0  0  0  0  0  0  0  0
   -6.4158   -7.8756   -9.6611 H   0  0  0  0  0  0  0  0  0  0  0  0
   -7.7113   -7.5325  -10.8151 H   0  0  0  0  0  0  0  0  0  0  0  0
   -7.4495   -9.2036  -10.2701 H   0  0  0  0  0  0  0  0  0  0  0  0
   -9.3653   -8.3535   -9.0705 H   0  0  0  0  0  0  0  0  0  0  0  0
   -7.8006   -5.8517   -8.3806 H   0  0  0  0  0  0  0  0  0  0  0  0
   -9.5178   -6.1562   -8.0761 H   0  0  0  0  0  0  0  0  0  0  0  0
   -8.8896   -5.9797   -9.7525 H   0  0  0  0  0  0  0  0  0  0  0  0
   -8.8271   -8.3824   -6.7099 H   0  0  0  0  0  0  0  0  0  0  0  0
   -8.8990   -5.9297   -6.2752 H   0  0  0  0  0  0  0  0  0  0  0  0
   -8.1552   -3.7879   -5.1225 H   0  0  0  0  0  0  0  0  0  0  0  0
   -5.6931   -3.8882   -4.0883 H   0  0  0  0  0  0  0  0  0  0  0  0
   -6.3722  -10.3389   -9.0039 H   0  0  0  0  0  0  0  0  0  0  0  0
   -6.8326  -12.9884   -8.4766 H   0  0  0  0  0  0  0  0  0  0  0  0
   -9.2205  -10.7006   -5.9166 H   0  0  0  0  0  0  0  0  0  0  0  0
  1  2  1  0
  1 17  1  0
  1 18  1  0
  1 19  1  0
  2  3  1  0
  2  4  1  0
  2 20  1  0
  3 21  1  0
  3 22  1  0
  3 23  1  0
  4  5  1  0
  4 12  1  0
  4 24  1  1
  5  6  2  0
  5  7  1  0
  7 11  1  0
  7  8  2  0
  8  9  1  0
  8 25  1  0
  9 10  2  0
  9 26  1  0
 10 11  1  0
 10 27  1  0
 12 16  1  0
 12 13  1  0
 13 14  2  0
 13 28  1  0
 14 15  1  0
 14 29  1  0
 15 16  2  0
 16 30  1  0
M  END
>  <i_m_ct_stereo_status>  (198) 
1

>  <s_m_source_file>  (198) 
/var/tmp/pbs.5076255.sched01/tmp7qb2j_xu/82up84z1qn.sdf

>  <i_m_source_file_index>  (198) 
10

>  <i_lp_mmshare_version>  (198) 
48012

>  <i_f3d_flags>  (198) 
0

>  <s_epik_input>  (198) 
W2NIXTFuW2NIXVtjSF1uMVtDQEhdKFtDSF0oW0NIM10pW0NIM10pQyg9TyljMltjSF1bY0hdW2NIXXMy

>  <s_epik_cmdline>  (198) 
J2VwaWtfcHl0aG9uJywgJy1waHQnLCAnMi4wJywgJy1waCcsICc3LjAnLCAnLXRuJywgJzgnLCAnLW1hJywgJzIwMCcsICctaW1hZScsICc8aW5maWxlLm1hZT4nLCAnLW9tYWUnLCAnPG91dGZpbGUubWFlPic=

>  <r_lp_tautomer_probability>  (198) 
1

>  <r_epik_Ionization_Penalty>  (198) 
0.31459

>  <r_epik_Ionization_Penalty_Charging>  (198) 
0.31459

>  <r_epik_Ionization_Penalty_Neutral>  (198) 
0

>  <r_epik_State_Penalty>  (198) 
0.308804

>  <r_epik_Charging_Adjusted_Penalty>  (198) 
0.623395

>  <i_epik_Tot_Q>  (198) 
0

>  <i_epik_Tot_abs_Q>  (198) 
0

>  <s_lp_Force_Field>  (198) 
OPLS3e

>  <r_lp_Energy>  (198) 
17.6914

>  <b_lp_Chiralities_Consistent>  (198) 
1

>  <s_lp_Variant>  (198) 
60:0-1

>  <s_i_glide_gridfile>  (198) 
pfpi4k_grid

>  <i_i_glide_lignum>  (198) 
10

>  <i_i_glide_rotatable_bonds>  (198) 
4

>  <r_i_docking_score>  (198) 
-5.54811

>  <r_i_glide_ligand_efficiency>  (198) 
-0.346757

>  <r_i_glide_ligand_efficiency_sa>  (198) 
-0.873773

>  <r_i_glide_ligand_efficiency_ln>  (198) 
-1.47064

>  <r_i_glide_gscore>  (198) 
-5.54811

>  <r_i_glide_lipo>  (198) 
-1.95942

>  <r_i_glide_hbond>  (198) 
0

>  <r_i_glide_metal>  (198) 
-0

>  <r_i_glide_rewards>  (198) 
-2.93523

>  <r_i_glide_evdw>  (198) 
-27.1298

>  <r_i_glide_ecoul>  (198) 
-1.56819

>  <r_i_glide_erotb>  (198) 
0.938255

>  <r_i_glide_esite>  (198) 
0

>  <r_i_glide_emodel>  (198) 
-34.5002

>  <r_i_glide_energy>  (198) 
-28.6979

>  <r_i_glide_einternal>  (198) 
5.17515

>  <r_i_glide_intrahb_reward>  (198) 
-0

>  <i_i_glide_confnum>  (198) 
5

>  <i_i_glide_posenum>  (198) 
14

>  <r_i_glide_eff_state_penalty>  (198) 
0

>  <ligand_id>  (198) 
60

>  <original_smiles>  (198) 
CC(C)C(C(=O)c1cccs1)n1ccnc1

>  <smiles>  (198) 
[H]c1nc([H])n(C([H])(C(=O)c2sc([H])c([H])c2[H])C([H])(C([H])([H])[H])C([H])([H])[H])c1[H]

$$$$
60:0:2
     RDKit          3D

 30 31  0  0  1  0  0  0  0  0999 V2000
   -8.2793   -7.7023  -10.4639 C   0  0  0  0  0  0  0  0  0  0  0  0
   -9.2391   -7.9553   -9.2742 C   0  0  0  0  0  0  0  0  0  0  0  0
  -10.5914   -7.2257   -9.5209 C   0  0  0  0  0  0  0  0  0  0  0  0
   -8.5865   -7.7548   -7.8543 C   0  0  2  0  0  0  0  0  0  0  0  0
   -8.2637   -6.2733   -7.4766 C   0  0  0  0  0  0  0  0  0  0  0  0
   -8.6357   -5.3755   -8.2330 O   0  0  0  0  0  0  0  0  0  0  0  0
   -7.5455   -5.8919   -6.2442 C   0  0  0  0  0  0  0  0  0  0  0  0
   -7.4448   -4.6434   -5.6777 C   0  0  0  0  0  0  0  0  0  0  0  0
   -6.5836   -4.5975   -4.5414 C   0  0  0  0  0  0  0  0  0  0  0  0
   -6.0621   -5.8256   -4.2605 C   0  0  0  0  0  0  0  0  0  0  0  0
   -6.6068   -7.0358   -5.3264 S   0  0  0  0  0  0  0  0  0  0  0  0
   -7.4666   -8.6884   -7.6584 N   0  0  0  0  0  0  0  0  0  0  0  0
   -7.4018   -9.7093   -6.7090 C   0  0  0  0  0  0  0  0  0  0  0  0
   -6.0968  -10.1666   -6.7314 C   0  0  0  0  0  0  0  0  0  0  0  0
   -5.3813   -9.5039   -7.7097 N   0  0  0  0  0  0  0  0  0  0  0  0
   -6.2482   -8.6521   -8.2149 C   0  0  0  0  0  0  0  0  0  0  0  0
   -7.8552   -6.6972  -10.4085 H   0  0  0  0  0  0  0  0  0  0  0  0
   -8.7799   -7.8093  -11.4290 H   0  0  0  0  0  0  0  0  0  0  0  0
   -7.4551   -8.4127  -10.4806 H   0  0  0  0  0  0  0  0  0  0  0  0
   -9.4897   -9.0184   -9.3338 H   0  0  0  0  0  0  0  0  0  0  0  0
  -10.4957   -6.1392   -9.4828 H   0  0  0  0  0  0  0  0  0  0  0  0
  -11.3438   -7.5339   -8.7908 H   0  0  0  0  0  0  0  0  0  0  0  0
  -10.9901   -7.4885  -10.5092 H   0  0  0  0  0  0  0  0  0  0  0  0
   -9.3633   -8.0542   -7.1446 H   0  0  0  0  0  0  0  0  0  0  0  0
   -7.9385   -3.7702   -6.0669 H   0  0  0  0  0  0  0  0  0  0  0  0
   -6.3949   -3.6692   -3.9889 H   0  0  0  0  0  0  0  0  0  0  0  0
   -5.3958   -6.1008   -3.5153 H   0  0  0  0  0  0  0  0  0  0  0  0
   -8.1967   -9.9556   -6.0222 H   0  0  0  0  0  0  0  0  0  0  0  0
   -5.5860  -10.8281   -6.0628 H   0  0  0  0  0  0  0  0  0  0  0  0
   -5.9980   -7.8644   -8.9178 H   0  0  0  0  0  0  0  0  0  0  0  0
  1  2  1  0
  1 17  1  0
  1 18  1  0
  1 19  1  0
  2  3  1  0
  2  4  1  0
  2 20  1  0
  3 21  1  0
  3 22  1  0
  3 23  1  0
  4  5  1  0
  4 12  1  0
  4 24  1  1
  5  6  2  0
  5  7  1  0
  7 11  1  0
  7  8  2  0
  8  9  1  0
  8 25  1  0
  9 10  2  0
  9 26  1  0
 10 11  1  0
 10 27  1  0
 12 16  1  0
 12 13  1  0
 13 14  2  0
 13 28  1  0
 14 15  1  0
 14 29  1  0
 15 16  2  0
 16 30  1  0
M  END
>  <i_m_ct_stereo_status>  (199) 
1

>  <s_m_source_file>  (199) 
/var/tmp/pbs.5076255.sched01/tmp7qb2j_xu/82up84z1qn.sdf

>  <i_m_source_file_index>  (199) 
10

>  <i_lp_mmshare_version>  (199) 
48012

>  <i_f3d_flags>  (199) 
0

>  <s_epik_input>  (199) 
W2NIXTFuW2NIXVtjSF1uMVtDQEhdKFtDSF0oW0NIM10pW0NIM10pQyg9TyljMltjSF1bY0hdW2NIXXMy

>  <s_epik_cmdline>  (199) 
J2VwaWtfcHl0aG9uJywgJy1waHQnLCAnMi4wJywgJy1waCcsICc3LjAnLCAnLXRuJywgJzgnLCAnLW1hJywgJzIwMCcsICctaW1hZScsICc8aW5maWxlLm1hZT4nLCAnLW9tYWUnLCAnPG91dGZpbGUubWFlPic=

>  <r_lp_tautomer_probability>  (199) 
1

>  <r_epik_Ionization_Penalty>  (199) 
0.31459

>  <r_epik_Ionization_Penalty_Charging>  (199) 
0.31459

>  <r_epik_Ionization_Penalty_Neutral>  (199) 
0

>  <r_epik_State_Penalty>  (199) 
0.308804

>  <r_epik_Charging_Adjusted_Penalty>  (199) 
0.623395

>  <i_epik_Tot_Q>  (199) 
0

>  <i_epik_Tot_abs_Q>  (199) 
0

>  <s_lp_Force_Field>  (199) 
OPLS3e

>  <r_lp_Energy>  (199) 
17.6914

>  <b_lp_Chiralities_Consistent>  (199) 
1

>  <s_lp_Variant>  (199) 
60:0-1

>  <s_i_glide_gridfile>  (199) 
pfpi4k_grid

>  <i_i_glide_lignum>  (199) 
10

>  <i_i_glide_rotatable_bonds>  (199) 
4

>  <r_i_docking_score>  (199) 
-5.19391

>  <r_i_glide_ligand_efficiency>  (199) 
-0.324619

>  <r_i_glide_ligand_efficiency_sa>  (199) 
-0.81799

>  <r_i_glide_ligand_efficiency_ln>  (199) 
-1.37675

>  <r_i_glide_gscore>  (199) 
-5.19391

>  <r_i_glide_lipo>  (199) 
-2.13953

>  <r_i_glide_hbond>  (199) 
0

>  <r_i_glide_metal>  (199) 
-0

>  <r_i_glide_rewards>  (199) 
-2.5076

>  <r_i_glide_evdw>  (199) 
-25.2304

>  <r_i_glide_ecoul>  (199) 
-1.49013

>  <r_i_glide_erotb>  (199) 
0.938255

>  <r_i_glide_esite>  (199) 
0

>  <r_i_glide_emodel>  (199) 
-33.5582

>  <r_i_glide_energy>  (199) 
-26.7206

>  <r_i_glide_einternal>  (199) 
1.36752

>  <r_i_glide_intrahb_reward>  (199) 
-0

>  <i_i_glide_confnum>  (199) 
6

>  <i_i_glide_posenum>  (199) 
16

>  <r_i_glide_eff_state_penalty>  (199) 
0

>  <ligand_id>  (199) 
60

>  <original_smiles>  (199) 
CC(C)C(C(=O)c1cccs1)n1ccnc1

>  <smiles>  (199) 
[H]c1nc([H])n(C([H])(C(=O)c2sc([H])c([H])c2[H])C([H])(C([H])([H])[H])C([H])([H])[H])c1[H]

$$$$
60:1:0
     RDKit          3D

 31 32  0  0  1  0  0  0  0  0999 V2000
  -11.9852   -7.4730   -9.1145 C   0  0  0  0  0  0  0  0  0  0  0  0
  -10.8960   -6.3818   -9.1508 C   0  0  0  0  0  0  0  0  0  0  0  0
  -10.3546   -6.2756  -10.5882 C   0  0  0  0  0  0  0  0  0  0  0  0
   -9.7856   -6.5743   -8.0445 C   0  0  2  0  0  0  0  0  0  0  0  0
   -9.2577   -5.2628   -7.4009 C   0  0  0  0  0  0  0  0  0  0  0  0
   -9.7317   -4.1943   -7.7783 O   0  0  0  0  0  0  0  0  0  0  0  0
   -8.2288   -5.2519   -6.3269 C   0  0  0  0  0  0  0  0  0  0  0  0
   -7.9166   -4.2341   -5.4605 C   0  0  0  0  0  0  0  0  0  0  0  0
   -6.8339   -4.5359   -4.5747 C   0  0  0  0  0  0  0  0  0  0  0  0
   -6.3359   -5.7925   -4.7727 C   0  0  0  0  0  0  0  0  0  0  0  0
   -7.1646   -6.6081   -6.0388 S   0  0  0  0  0  0  0  0  0  0  0  0
   -8.7004   -7.4949   -8.4573 N   0  0  0  0  0  0  0  0  0  0  0  0
   -8.2907   -8.6312   -7.7709 C   0  0  0  0  0  0  0  0  0  0  0  0
   -7.1635   -9.0835   -8.4101 C   0  0  0  0  0  0  0  0  0  0  0  0
   -7.0081   -8.3118   -9.5187 N   0  0  0  0  0  0  0  0  0  0  0  0
   -7.8962   -7.3010   -9.5152 C   0  0  0  0  0  0  0  0  0  0  0  0
  -11.5615   -8.4712   -9.2291 H   0  0  0  0  0  0  0  0  0  0  0  0
  -12.6963   -7.3174   -9.9290 H   0  0  0  0  0  0  0  0  0  0  0  0
  -12.5629   -7.4448   -8.1875 H   0  0  0  0  0  0  0  0  0  0  0  0
  -11.4289   -5.4519   -8.9444 H   0  0  0  0  0  0  0  0  0  0  0  0
   -9.8515   -7.2039  -10.8752 H   0  0  0  0  0  0  0  0  0  0  0  0
   -9.6295   -5.4650  -10.6565 H   0  0  0  0  0  0  0  0  0  0  0  0
  -11.1465   -6.0787  -11.3112 H   0  0  0  0  0  0  0  0  0  0  0  0
  -10.3100   -7.0882   -7.2444 H   0  0  0  0  0  0  0  0  0  0  0  0
   -8.4185   -3.2733   -5.4426 H   0  0  0  0  0  0  0  0  0  0  0  0
   -6.4621   -3.8340   -3.8433 H   0  0  0  0  0  0  0  0  0  0  0  0
   -5.5376   -6.2886   -4.2566 H   0  0  0  0  0  0  0  0  0  0  0  0
   -8.7498   -8.9481   -6.8364 H   0  0  0  0  0  0  0  0  0  0  0  0
   -6.4739   -9.9068   -8.1590 H   0  0  0  0  0  0  0  0  0  0  0  0
   -7.9150   -6.4687  -10.2039 H   0  0  0  0  0  0  0  0  0  0  0  0
   -6.2552   -8.4084  -10.2007 H   0  0  0  0  0  0  0  0  0  0  0  0
  1  2  1  0
  1 17  1  0
  1 18  1  0
  1 19  1  0
  2  3  1  0
  2  4  1  0
  2 20  1  0
  3 21  1  0
  3 22  1  0
  3 23  1  0
  4  5  1  0
  4 12  1  0
  4 24  1  1
  5  6  2  0
  5  7  1  0
  7 11  1  0
  7  8  2  0
  8  9  1  0
  8 25  1  0
  9 10  2  0
  9 26  1  0
 10 11  1  0
 10 27  1  0
 12 16  1  0
 12 13  1  0
 13 14  2  0
 13 28  1  0
 14 15  1  0
 14 29  1  0
 15 16  2  0
 15 31  1  0
 16 30  1  0
M  CHG  1  15   1
M  END
>  <i_m_ct_stereo_status>  (200) 
1

>  <s_m_source_file>  (200) 
/var/tmp/pbs.5076255.sched01/tmp7qb2j_xu/82up84z1qn.sdf

>  <i_m_source_file_index>  (200) 
11

>  <i_lp_mmshare_version>  (200) 
48012

>  <i_f3d_flags>  (200) 
0

>  <s_epik_input>  (200) 
W2NIXTFuW2NIXVtjSF1uMVtDQEhdKFtDSF0oW0NIM10pW0NIM10pQyg9TyljMltjSF1bY0hdW2NIXXMy

>  <s_epik_cmdline>  (200) 
J2VwaWtfcHl0aG9uJywgJy1waHQnLCAnMi4wJywgJy1waCcsICc3LjAnLCAnLXRuJywgJzgnLCAnLW1hJywgJzIwMCcsICctaW1hZScsICc8aW5maWxlLm1hZT4nLCAnLW9tYWUnLCAnPG91dGZpbGUubWFlPic=

>  <r_lp_tautomer_probability>  (200) 
1

>  <r_epik_Ionization_Penalty>  (200) 
0.525428

>  <r_epik_Ionization_Penalty_Charging>  (200) 
0

>  <r_epik_Ionization_Penalty_Neutral>  (200) 
0.525428

>  <r_epik_State_Penalty>  (200) 
0.533786

>  <r_epik_Charging_Adjusted_Penalty>  (200) 
0.533786

>  <i_epik_Tot_Q>  (200) 
1

>  <i_epik_Tot_abs_Q>  (200) 
1

>  <s_lp_Force_Field>  (200) 
OPLS3e

>  <r_lp_Energy>  (200) 
23.745

>  <b_lp_Chiralities_Consistent>  (200) 
1

>  <s_lp_Variant>  (200) 
60:0-2

>  <s_i_glide_gridfile>  (200) 
pfpi4k_grid

>  <i_i_glide_lignum>  (200) 
11

>  <i_i_glide_rotatable_bonds>  (200) 
4

>  <r_i_docking_score>  (200) 
-5.47644

>  <r_i_glide_ligand_efficiency>  (200) 
-0.342277

>  <r_i_glide_ligand_efficiency_sa>  (200) 
-0.862485

>  <r_i_glide_ligand_efficiency_ln>  (200) 
-1.45164

>  <r_i_glide_gscore>  (200) 
-5.47644

>  <r_i_glide_lipo>  (200) 
-1.81337

>  <r_i_glide_hbond>  (200) 
0

>  <r_i_glide_metal>  (200) 
-0

>  <r_i_glide_rewards>  (200) 
-2.98775

>  <r_i_glide_evdw>  (200) 
-23.5852

>  <r_i_glide_ecoul>  (200) 
-2.8499

>  <r_i_glide_erotb>  (200) 
0.931428

>  <r_i_glide_esite>  (200) 
0

>  <r_i_glide_emodel>  (200) 
-29.1855

>  <r_i_glide_energy>  (200) 
-26.4351

>  <r_i_glide_einternal>  (200) 
4.16319

>  <r_i_glide_intrahb_reward>  (200) 
-0

>  <i_i_glide_confnum>  (200) 
4

>  <i_i_glide_posenum>  (200) 
2

>  <r_i_glide_eff_state_penalty>  (200) 
0

>  <ligand_id>  (200) 
60

>  <original_smiles>  (200) 
CC(C)C(C(=O)c1cccs1)n1ccnc1

>  <smiles>  (200) 
[H]c1sc(C(=O)C([H])(n2c([H])c([H])[n+]([H])c2[H])C([H])(C([H])([H])[H])C([H])([H])[H])c([H])c1[H]

$$$$
60:1:1
     RDKit          3D

 31 32  0  0  1  0  0  0  0  0999 V2000
   -7.3848   -7.5744  -10.2532 C   0  0  0  0  0  0  0  0  0  0  0  0
   -8.4070   -8.3458   -9.4027 C   0  0  0  0  0  0  0  0  0  0  0  0
   -9.8332   -8.1209   -9.9573 C   0  0  0  0  0  0  0  0  0  0  0  0
   -8.2474   -8.0717   -7.8656 C   0  0  2  0  0  0  0  0  0  0  0  0
   -8.3575   -6.5678   -7.4404 C   0  0  0  0  0  0  0  0  0  0  0  0
   -9.0305   -5.8132   -8.1362 O   0  0  0  0  0  0  0  0  0  0  0  0
   -7.7309   -5.9991   -6.2290 C   0  0  0  0  0  0  0  0  0  0  0  0
   -7.8283   -4.7234   -5.7351 C   0  0  0  0  0  0  0  0  0  0  0  0
   -6.9868   -4.4912   -4.5924 C   0  0  0  0  0  0  0  0  0  0  0  0
   -6.2646   -5.5957   -4.2644 C   0  0  0  0  0  0  0  0  0  0  0  0
   -6.7429   -6.9282   -5.1409 S   0  0  0  0  0  0  0  0  0  0  0  0
   -7.0811   -8.8187   -7.3515 N   0  0  0  0  0  0  0  0  0  0  0  0
   -7.1121   -9.8055   -6.3851 C   0  0  0  0  0  0  0  0  0  0  0  0
   -5.8071  -10.0294   -6.0137 C   0  0  0  0  0  0  0  0  0  0  0  0
   -5.0321   -9.1758   -6.7584 N   0  0  0  0  0  0  0  0  0  0  0  0
   -5.8103   -8.4743   -7.5861 C   0  0  0  0  0  0  0  0  0  0  0  0
   -7.4727   -6.4975  -10.1182 H   0  0  0  0  0  0  0  0  0  0  0  0
   -7.5342   -7.7839  -11.3067 H   0  0  0  0  0  0  0  0  0  0  0  0
   -6.3595   -7.8583  -10.0273 H   0  0  0  0  0  0  0  0  0  0  0  0
   -8.2110   -9.4120   -9.5546 H   0  0  0  0  0  0  0  0  0  0  0  0
  -10.1674   -7.0925   -9.8511 H   0  0  0  0  0  0  0  0  0  0  0  0
  -10.5658   -8.7624   -9.4665 H   0  0  0  0  0  0  0  0  0  0  0  0
   -9.8657   -8.3408  -11.0257 H   0  0  0  0  0  0  0  0  0  0  0  0
   -9.1096   -8.5526   -7.4025 H   0  0  0  0  0  0  0  0  0  0  0  0
   -8.4697   -3.9625   -6.1705 H   0  0  0  0  0  0  0  0  0  0  0  0
   -6.9626   -3.5407   -4.0791 H   0  0  0  0  0  0  0  0  0  0  0  0
   -5.5389   -5.7866   -3.5284 H   0  0  0  0  0  0  0  0  0  0  0  0
   -8.0361  -10.1732   -5.9672 H   0  0  0  0  0  0  0  0  0  0  0  0
   -5.3757  -10.6107   -5.2058 H   0  0  0  0  0  0  0  0  0  0  0  0
   -5.4784   -7.6139   -8.1502 H   0  0  0  0  0  0  0  0  0  0  0  0
   -4.0499   -8.9950   -6.5938 H   0  0  0  0  0  0  0  0  0  0  0  0
  1  2  1  0
  1 17  1  0
  1 18  1  0
  1 19  1  0
  2  3  1  0
  2  4  1  0
  2 20  1  0
  3 21  1  0
  3 22  1  0
  3 23  1  0
  4  5  1  0
  4 12  1  0
  4 24  1  1
  5  6  2  0
  5  7  1  0
  7 11  1  0
  7  8  2  0
  8  9  1  0
  8 25  1  0
  9 10  2  0
  9 26  1  0
 10 11  1  0
 10 27  1  0
 12 16  1  0
 12 13  1  0
 13 14  2  0
 13 28  1  0
 14 15  1  0
 14 29  1  0
 15 16  2  0
 15 31  1  0
 16 30  1  0
M  CHG  1  15   1
M  END
>  <i_m_ct_stereo_status>  (201) 
1

>  <s_m_source_file>  (201) 
/var/tmp/pbs.5076255.sched01/tmp7qb2j_xu/82up84z1qn.sdf

>  <i_m_source_file_index>  (201) 
11

>  <i_lp_mmshare_version>  (201) 
48012

>  <i_f3d_flags>  (201) 
0

>  <s_epik_input>  (201) 
W2NIXTFuW2NIXVtjSF1uMVtDQEhdKFtDSF0oW0NIM10pW0NIM10pQyg9TyljMltjSF1bY0hdW2NIXXMy

>  <s_epik_cmdline>  (201) 
J2VwaWtfcHl0aG9uJywgJy1waHQnLCAnMi4wJywgJy1waCcsICc3LjAnLCAnLXRuJywgJzgnLCAnLW1hJywgJzIwMCcsICctaW1hZScsICc8aW5maWxlLm1hZT4nLCAnLW9tYWUnLCAnPG91dGZpbGUubWFlPic=

>  <r_lp_tautomer_probability>  (201) 
1

>  <r_epik_Ionization_Penalty>  (201) 
0.525428

>  <r_epik_Ionization_Penalty_Charging>  (201) 
0

>  <r_epik_Ionization_Penalty_Neutral>  (201) 
0.525428

>  <r_epik_State_Penalty>  (201) 
0.533786

>  <r_epik_Charging_Adjusted_Penalty>  (201) 
0.533786

>  <i_epik_Tot_Q>  (201) 
1

>  <i_epik_Tot_abs_Q>  (201) 
1

>  <s_lp_Force_Field>  (201) 
OPLS3e

>  <r_lp_Energy>  (201) 
23.745

>  <b_lp_Chiralities_Consistent>  (201) 
1

>  <s_lp_Variant>  (201) 
60:0-2

>  <s_i_glide_gridfile>  (201) 
pfpi4k_grid

>  <i_i_glide_lignum>  (201) 
11

>  <i_i_glide_rotatable_bonds>  (201) 
4

>  <r_i_docking_score>  (201) 
-5.3417

>  <r_i_glide_ligand_efficiency>  (201) 
-0.333856

>  <r_i_glide_ligand_efficiency_sa>  (201) 
-0.841265

>  <r_i_glide_ligand_efficiency_ln>  (201) 
-1.41592

>  <r_i_glide_gscore>  (201) 
-5.3417

>  <r_i_glide_lipo>  (201) 
-2.11821

>  <r_i_glide_hbond>  (201) 
0

>  <r_i_glide_metal>  (201) 
-0

>  <r_i_glide_rewards>  (201) 
-2.86279

>  <r_i_glide_evdw>  (201) 
-21.4872

>  <r_i_glide_ecoul>  (201) 
-1.45176

>  <r_i_glide_erotb>  (201) 
0.931428

>  <r_i_glide_esite>  (201) 
0

>  <r_i_glide_emodel>  (201) 
-27.5915

>  <r_i_glide_energy>  (201) 
-22.939

>  <r_i_glide_einternal>  (201) 
2.70315

>  <r_i_glide_intrahb_reward>  (201) 
-0

>  <i_i_glide_confnum>  (201) 
4

>  <i_i_glide_posenum>  (201) 
29

>  <r_i_glide_eff_state_penalty>  (201) 
0

>  <ligand_id>  (201) 
60

>  <original_smiles>  (201) 
CC(C)C(C(=O)c1cccs1)n1ccnc1

>  <smiles>  (201) 
[H]c1sc(C(=O)C([H])(n2c([H])c([H])[n+]([H])c2[H])C([H])(C([H])([H])[H])C([H])([H])[H])c([H])c1[H]

$$$$
60:1:2
     RDKit          3D

 31 32  0  0  1  0  0  0  0  0999 V2000
  -12.1412   -7.4982   -9.2815 C   0  0  0  0  0  0  0  0  0  0  0  0
  -11.0514   -6.4089   -9.2059 C   0  0  0  0  0  0  0  0  0  0  0  0
  -10.3819   -6.2773  -10.5854 C   0  0  0  0  0  0  0  0  0  0  0  0
  -10.0652   -6.6397   -7.9830 C   0  0  2  0  0  0  0  0  0  0  0  0
   -9.5599   -5.3479   -7.2511 C   0  0  0  0  0  0  0  0  0  0  0  0
  -10.1470   -4.2937   -7.4978 O   0  0  0  0  0  0  0  0  0  0  0  0
   -8.4317   -5.3296   -6.2584 C   0  0  0  0  0  0  0  0  0  0  0  0
   -8.0278   -4.2784   -5.4457 C   0  0  0  0  0  0  0  0  0  0  0  0
   -6.8462   -4.5514   -4.6852 C   0  0  0  0  0  0  0  0  0  0  0  0
   -6.3689   -5.7947   -4.9425 C   0  0  0  0  0  0  0  0  0  0  0  0
   -7.3727   -6.7134   -5.9799 S   0  0  0  0  0  0  0  0  0  0  0  0
   -8.9696   -7.5604   -8.3817 N   0  0  0  0  0  0  0  0  0  0  0  0
   -7.8822   -7.2345   -9.1420 C   0  0  0  0  0  0  0  0  0  0  0  0
   -7.0451   -8.3070   -9.1215 C   0  0  0  0  0  0  0  0  0  0  0  0
   -7.6795   -9.2949   -8.3884 N   0  0  0  0  0  0  0  0  0  0  0  0
   -8.8622   -8.8266   -7.9261 C   0  0  0  0  0  0  0  0  0  0  0  0
  -11.7260   -8.5051   -9.3738 H   0  0  0  0  0  0  0  0  0  0  0  0
  -12.7858   -7.3186  -10.1500 H   0  0  0  0  0  0  0  0  0  0  0  0
  -12.7936   -7.4686   -8.4008 H   0  0  0  0  0  0  0  0  0  0  0  0
  -11.6164   -5.4858   -9.0417 H   0  0  0  0  0  0  0  0  0  0  0  0
   -9.8664   -7.1865  -10.8842 H   0  0  0  0  0  0  0  0  0  0  0  0
   -9.6468   -5.4594  -10.5544 H   0  0  0  0  0  0  0  0  0  0  0  0
  -11.0878   -6.0625  -11.3840 H   0  0  0  0  0  0  0  0  0  0  0  0
  -10.6657   -7.1528   -7.2502 H   0  0  0  0  0  0  0  0  0  0  0  0
   -8.5421   -3.3313   -5.4074 H   0  0  0  0  0  0  0  0  0  0  0  0
   -6.4141   -3.8106   -4.0013 H   0  0  0  0  0  0  0  0  0  0  0  0
   -5.4627   -6.2417   -4.5246 H   0  0  0  0  0  0  0  0  0  0  0  0
   -7.7516   -6.2522   -9.5945 H   0  0  0  0  0  0  0  0  0  0  0  0
   -6.0418   -8.3812   -9.5076 H   0  0  0  0  0  0  0  0  0  0  0  0
   -9.5229   -9.3321   -7.2622 H   0  0  0  0  0  0  0  0  0  0  0  0
   -7.2203  -10.1259   -8.0337 H   0  0  0  0  0  0  0  0  0  0  0  0
  1  2  1  0
  1 17  1  0
  1 18  1  0
  1 19  1  0
  2  3  1  0
  2  4  1  0
  2 20  1  0
  3 21  1  0
  3 22  1  0
  3 23  1  0
  4  5  1  0
  4 12  1  0
  4 24  1  1
  5  6  2  0
  5  7  1  0
  7 11  1  0
  7  8  2  0
  8  9  1  0
  8 25  1  0
  9 10  2  0
  9 26  1  0
 10 11  1  0
 10 27  1  0
 12 16  1  0
 12 13  1  0
 13 14  2  0
 13 28  1  0
 14 15  1  0
 14 29  1  0
 15 16  2  0
 15 31  1  0
 16 30  1  0
M  CHG  1  15   1
M  END
>  <i_m_ct_stereo_status>  (202) 
1

>  <s_m_source_file>  (202) 
/var/tmp/pbs.5076255.sched01/tmp7qb2j_xu/82up84z1qn.sdf

>  <i_m_source_file_index>  (202) 
11

>  <i_lp_mmshare_version>  (202) 
48012

>  <i_f3d_flags>  (202) 
0

>  <s_epik_input>  (202) 
W2NIXTFuW2NIXVtjSF1uMVtDQEhdKFtDSF0oW0NIM10pW0NIM10pQyg9TyljMltjSF1bY0hdW2NIXXMy

>  <s_epik_cmdline>  (202) 
J2VwaWtfcHl0aG9uJywgJy1waHQnLCAnMi4wJywgJy1waCcsICc3LjAnLCAnLXRuJywgJzgnLCAnLW1hJywgJzIwMCcsICctaW1hZScsICc8aW5maWxlLm1hZT4nLCAnLW9tYWUnLCAnPG91dGZpbGUubWFlPic=

>  <r_lp_tautomer_probability>  (202) 
1

>  <r_epik_Ionization_Penalty>  (202) 
0.525428

>  <r_epik_Ionization_Penalty_Charging>  (202) 
0

>  <r_epik_Ionization_Penalty_Neutral>  (202) 
0.525428

>  <r_epik_State_Penalty>  (202) 
0.533786

>  <r_epik_Charging_Adjusted_Penalty>  (202) 
0.533786

>  <i_epik_Tot_Q>  (202) 
1

>  <i_epik_Tot_abs_Q>  (202) 
1

>  <s_lp_Force_Field>  (202) 
OPLS3e

>  <r_lp_Energy>  (202) 
23.745

>  <b_lp_Chiralities_Consistent>  (202) 
1

>  <s_lp_Variant>  (202) 
60:0-2

>  <s_i_glide_gridfile>  (202) 
pfpi4k_grid

>  <i_i_glide_lignum>  (202) 
11

>  <i_i_glide_rotatable_bonds>  (202) 
4

>  <r_i_docking_score>  (202) 
-5.18066

>  <r_i_glide_ligand_efficiency>  (202) 
-0.323791

>  <r_i_glide_ligand_efficiency_sa>  (202) 
-0.815903

>  <r_i_glide_ligand_efficiency_ln>  (202) 
-1.37324

>  <r_i_glide_gscore>  (202) 
-5.18066

>  <r_i_glide_lipo>  (202) 
-1.86917

>  <r_i_glide_hbond>  (202) 
0

>  <r_i_glide_metal>  (202) 
-0

>  <r_i_glide_rewards>  (202) 
-2.76767

>  <r_i_glide_evdw>  (202) 
-22.8517

>  <r_i_glide_ecoul>  (202) 
-2.21776

>  <r_i_glide_erotb>  (202) 
0.931428

>  <r_i_glide_esite>  (202) 
0

>  <r_i_glide_emodel>  (202) 
-28.045

>  <r_i_glide_energy>  (202) 
-25.0694

>  <r_i_glide_einternal>  (202) 
4.91254

>  <r_i_glide_intrahb_reward>  (202) 
-0

>  <i_i_glide_confnum>  (202) 
4

>  <i_i_glide_posenum>  (202) 
21

>  <r_i_glide_eff_state_penalty>  (202) 
0

>  <ligand_id>  (202) 
60

>  <original_smiles>  (202) 
CC(C)C(C(=O)c1cccs1)n1ccnc1

>  <smiles>  (202) 
[H]c1sc(C(=O)C([H])(n2c([H])c([H])[n+]([H])c2[H])C([H])(C([H])([H])[H])C([H])([H])[H])c([H])c1[H]

$$$$
62:0:0
     RDKit          3D

 24 26  0  0  1  0  0  0  0  0999 V2000
    6.4694   -1.0914   -0.0884 O   0  0  0  0  0  0  0  0  0  0  0  0
    5.7701   -2.0363   -0.4542 C   0  0  0  0  0  0  0  0  0  0  0  0
    4.8127   -1.9258   -1.5964 C   0  0  0  0  0  0  0  0  0  0  0  0
    4.6728   -0.7166   -2.3166 C   0  0  0  0  0  0  0  0  0  0  0  0
    3.7802   -0.6313   -3.4050 C   0  0  0  0  0  0  0  0  0  0  0  0
    3.6561    0.5394   -4.0946 O   0  0  0  0  0  0  0  0  0  0  0  0
    3.0135   -1.7458   -3.7721 C   0  0  0  0  0  0  0  0  0  0  0  0
    3.1359   -2.9570   -3.0653 C   0  0  0  0  0  0  0  0  0  0  0  0
    4.0371   -3.0448   -1.9812 C   0  0  0  0  0  0  0  0  0  0  0  0
    4.1663   -4.2415   -1.2834 N   0  0  0  0  0  0  0  0  0  0  0  0
    5.0241   -4.4364   -0.2155 C   0  0  0  0  0  0  0  0  0  0  0  0
    5.0250   -5.6595    0.3509 N   0  0  0  0  0  0  0  0  0  0  0  0
    5.8621   -5.8674    1.3850 C   0  0  0  0  0  0  0  0  0  0  0  0
    6.7212   -4.8734    1.8820 C   0  0  0  0  0  0  0  0  0  0  0  0
    6.7144   -3.6028    1.2780 C   0  0  0  0  0  0  0  0  0  0  0  0
    5.8404   -3.3682    0.2069 C   0  0  0  0  0  0  0  0  0  0  0  0
    3.6275   -5.0392   -1.6226 H   0  0  0  0  0  0  0  0  0  0  0  0
    5.2632    0.1427   -2.0461 H   0  0  0  0  0  0  0  0  0  0  0  0
    3.1603    1.1922   -3.5987 H   0  0  0  0  0  0  0  0  0  0  0  0
    2.3158   -1.6514   -4.5867 H   0  0  0  0  0  0  0  0  0  0  0  0
    2.5264   -3.8041   -3.3499 H   0  0  0  0  0  0  0  0  0  0  0  0
    5.8453   -6.8520    1.8290 H   0  0  0  0  0  0  0  0  0  0  0  0
    7.3636   -5.0785    2.7215 H   0  0  0  0  0  0  0  0  0  0  0  0
    7.3477   -2.8095    1.6508 H   0  0  0  0  0  0  0  0  0  0  0  0
  1  2  2  0
  2 16  1  0
  2  3  1  0
  3  9  2  0
  3  4  1  0
  4  5  2  0
  4 18  1  0
  5  6  1  0
  5  7  1  0
  6 19  1  0
  7  8  2  0
  7 20  1  0
  8  9  1  0
  8 21  1  0
  9 10  1  0
 10 17  1  0
 10 11  1  0
 11 16  2  0
 11 12  1  0
 12 13  2  0
 13 14  1  0
 13 22  1  0
 14 15  2  0
 14 23  1  0
 15 16  1  0
 15 24  1  0
M  END
>  <i_m_ct_stereo_status>  (203) 
1

>  <s_m_source_file>  (203) 
/var/tmp/pbs.5076255.sched01/tmp7qb2j_xu/82up84z1qn.sdf

>  <i_m_source_file_index>  (203) 
13

>  <i_lp_mmshare_version>  (203) 
48012

>  <i_f3d_flags>  (203) 
0

>  <s_epik_input>  (203) 
bjFbY0hdW2NIXVtjSF1jKGMyPU8pYzFbbkhdYyhjMjMpW2NIXVtjSF1jKFtjSF0zKVtPSF0=

>  <s_epik_cmdline>  (203) 
J2VwaWtfcHl0aG9uJywgJy1waHQnLCAnMi4wJywgJy1waCcsICc3LjAnLCAnLXRuJywgJzgnLCAnLW1hJywgJzIwMCcsICctaW1hZScsICc8aW5maWxlLm1hZT4nLCAnLW9tYWUnLCAnPG91dGZpbGUubWFlPic=

>  <r_epik_Ionization_Penalty>  (203) 
0.0185798

>  <r_epik_Ionization_Penalty_Charging>  (203) 
0.0102247

>  <r_epik_Ionization_Penalty_Neutral>  (203) 
0.00835511

>  <r_epik_State_Penalty>  (203) 
0.0140164

>  <r_epik_Charging_Adjusted_Penalty>  (203) 
0.0242411

>  <i_epik_Tot_Q>  (203) 
0

>  <i_epik_Tot_abs_Q>  (203) 
0

>  <s_lp_Force_Field>  (203) 
OPLS3e

>  <r_lp_Energy>  (203) 
15.368

>  <b_lp_Chiralities_Consistent>  (203) 
1

>  <s_lp_Variant>  (203) 
62:0-1

>  <s_i_glide_gridfile>  (203) 
pfpi4k_grid

>  <i_i_glide_lignum>  (203) 
13

>  <i_i_glide_rotatable_bonds>  (203) 
1

>  <r_i_docking_score>  (203) 
-5.96835

>  <r_i_glide_ligand_efficiency>  (203) 
-0.373022

>  <r_i_glide_ligand_efficiency_sa>  (203) 
-0.939956

>  <r_i_glide_ligand_efficiency_ln>  (203) 
-1.58203

>  <r_i_glide_gscore>  (203) 
-5.96835

>  <r_i_glide_lipo>  (203) 
-0.6805

>  <r_i_glide_hbond>  (203) 
-0.66909

>  <r_i_glide_metal>  (203) 
-0

>  <r_i_glide_rewards>  (203) 
-2.0288

>  <r_i_glide_evdw>  (203) 
-16.4905

>  <r_i_glide_ecoul>  (203) 
-11.4459

>  <r_i_glide_erotb>  (203) 
0

>  <r_i_glide_esite>  (203) 
-0.0485562

>  <r_i_glide_emodel>  (203) 
-36.2792

>  <r_i_glide_energy>  (203) 
-27.9363

>  <r_i_glide_einternal>  (203) 
3.18911

>  <r_i_glide_intrahb_reward>  (203) 
-0

>  <i_i_glide_confnum>  (203) 
1

>  <i_i_glide_posenum>  (203) 
11

>  <r_i_glide_eff_state_penalty>  (203) 
0

>  <ligand_id>  (203) 
62

>  <original_smiles>  (203) 
O=c1c2cc(O)ccc2[nH]c2ncccc12

>  <smiles>  (203) 
[H]Oc1c([H])c([H])c2c(c1[H])c(=O)c1c([H])c([H])c([H])nc1n2[H]

$$$$
62:0:1
     RDKit          3D

 24 26  0  0  1  0  0  0  0  0999 V2000
    6.1683   -1.0586   -0.1361 O   0  0  0  0  0  0  0  0  0  0  0  0
    5.2902   -1.8830   -0.3917 C   0  0  0  0  0  0  0  0  0  0  0  0
    4.4086   -1.7632   -1.5917 C   0  0  0  0  0  0  0  0  0  0  0  0
    4.5410   -0.6614   -2.4693 C   0  0  0  0  0  0  0  0  0  0  0  0
    3.7238   -0.5558   -3.6065 C   0  0  0  0  0  0  0  0  0  0  0  0
    3.8079    0.5492   -4.4074 O   0  0  0  0  0  0  0  0  0  0  0  0
    2.7860   -1.5573   -3.8870 C   0  0  0  0  0  0  0  0  0  0  0  0
    2.6338   -2.6565   -3.0244 C   0  0  0  0  0  0  0  0  0  0  0  0
    3.4379   -2.7576   -1.8692 C   0  0  0  0  0  0  0  0  0  0  0  0
    3.2828   -3.8367   -1.0003 N   0  0  0  0  0  0  0  0  0  0  0  0
    4.0854   -4.0366    0.1204 C   0  0  0  0  0  0  0  0  0  0  0  0
    3.8590   -5.1553    0.8290 N   0  0  0  0  0  0  0  0  0  0  0  0
    4.6126   -5.3621    1.9289 C   0  0  0  0  0  0  0  0  0  0  0  0
    5.6133   -4.4706    2.3625 C   0  0  0  0  0  0  0  0  0  0  0  0
    5.8510   -3.3056    1.6083 C   0  0  0  0  0  0  0  0  0  0  0  0
    5.0739   -3.0830    0.4542 C   0  0  0  0  0  0  0  0  0  0  0  0
    2.6839   -4.5997   -1.2918 H   0  0  0  0  0  0  0  0  0  0  0  0
    5.2539    0.1280   -2.2615 H   0  0  0  0  0  0  0  0  0  0  0  0
    3.3205    1.2853   -4.0424 H   0  0  0  0  0  0  0  0  0  0  0  0
    2.1150   -1.4344   -4.7162 H   0  0  0  0  0  0  0  0  0  0  0  0
    1.8760   -3.4094   -3.2282 H   0  0  0  0  0  0  0  0  0  0  0  0
    4.3998   -6.2624    2.4853 H   0  0  0  0  0  0  0  0  0  0  0  0
    6.1837   -4.6830    3.2556 H   0  0  0  0  0  0  0  0  0  0  0  0
    6.6162   -2.5983    1.9133 H   0  0  0  0  0  0  0  0  0  0  0  0
  1  2  2  0
  2 16  1  0
  2  3  1  0
  3  9  2  0
  3  4  1  0
  4  5  2  0
  4 18  1  0
  5  6  1  0
  5  7  1  0
  6 19  1  0
  7  8  2  0
  7 20  1  0
  8  9  1  0
  8 21  1  0
  9 10  1  0
 10 17  1  0
 10 11  1  0
 11 16  2  0
 11 12  1  0
 12 13  2  0
 13 14  1  0
 13 22  1  0
 14 15  2  0
 14 23  1  0
 15 16  1  0
 15 24  1  0
M  END
>  <i_m_ct_stereo_status>  (204) 
1

>  <s_m_source_file>  (204) 
/var/tmp/pbs.5076255.sched01/tmp7qb2j_xu/82up84z1qn.sdf

>  <i_m_source_file_index>  (204) 
13

>  <i_lp_mmshare_version>  (204) 
48012

>  <i_f3d_flags>  (204) 
0

>  <s_epik_input>  (204) 
bjFbY0hdW2NIXVtjSF1jKGMyPU8pYzFbbkhdYyhjMjMpW2NIXVtjSF1jKFtjSF0zKVtPSF0=

>  <s_epik_cmdline>  (204) 
J2VwaWtfcHl0aG9uJywgJy1waHQnLCAnMi4wJywgJy1waCcsICc3LjAnLCAnLXRuJywgJzgnLCAnLW1hJywgJzIwMCcsICctaW1hZScsICc8aW5maWxlLm1hZT4nLCAnLW9tYWUnLCAnPG91dGZpbGUubWFlPic=

>  <r_epik_Ionization_Penalty>  (204) 
0.0185798

>  <r_epik_Ionization_Penalty_Charging>  (204) 
0.0102247

>  <r_epik_Ionization_Penalty_Neutral>  (204) 
0.00835511

>  <r_epik_State_Penalty>  (204) 
0.0140164

>  <r_epik_Charging_Adjusted_Penalty>  (204) 
0.0242411

>  <i_epik_Tot_Q>  (204) 
0

>  <i_epik_Tot_abs_Q>  (204) 
0

>  <s_lp_Force_Field>  (204) 
OPLS3e

>  <r_lp_Energy>  (204) 
15.368

>  <b_lp_Chiralities_Consistent>  (204) 
1

>  <s_lp_Variant>  (204) 
62:0-1

>  <s_i_glide_gridfile>  (204) 
pfpi4k_grid

>  <i_i_glide_lignum>  (204) 
13

>  <i_i_glide_rotatable_bonds>  (204) 
1

>  <r_i_docking_score>  (204) 
-5.09692

>  <r_i_glide_ligand_efficiency>  (204) 
-0.318557

>  <r_i_glide_ligand_efficiency_sa>  (204) 
-0.802714

>  <r_i_glide_ligand_efficiency_ln>  (204) 
-1.35104

>  <r_i_glide_gscore>  (204) 
-5.09692

>  <r_i_glide_lipo>  (204) 
-0.526798

>  <r_i_glide_hbond>  (204) 
-0.503957

>  <r_i_glide_metal>  (204) 
-0

>  <r_i_glide_rewards>  (204) 
-1.96666

>  <r_i_glide_evdw>  (204) 
-21.0126

>  <r_i_glide_ecoul>  (204) 
-6.95093

>  <r_i_glide_erotb>  (204) 
0

>  <r_i_glide_esite>  (204) 
-0.00623628

>  <r_i_glide_emodel>  (204) 
-34.9193

>  <r_i_glide_energy>  (204) 
-27.9635

>  <r_i_glide_einternal>  (204) 
3.30949

>  <r_i_glide_intrahb_reward>  (204) 
-0

>  <i_i_glide_confnum>  (204) 
2

>  <i_i_glide_posenum>  (204) 
17

>  <r_i_glide_eff_state_penalty>  (204) 
0

>  <ligand_id>  (204) 
62

>  <original_smiles>  (204) 
O=c1c2cc(O)ccc2[nH]c2ncccc12

>  <smiles>  (204) 
[H]Oc1c([H])c([H])c2c(c1[H])c(=O)c1c([H])c([H])c([H])nc1n2[H]

$$$$
62:0:2
     RDKit          3D

 24 26  0  0  1  0  0  0  0  0999 V2000
    4.8423   -0.2953    0.4972 O   0  0  0  0  0  0  0  0  0  0  0  0
    4.3990   -1.3829    0.1274 C   0  0  0  0  0  0  0  0  0  0  0  0
    4.0332   -1.6580   -1.2948 C   0  0  0  0  0  0  0  0  0  0  0  0
    4.1825   -0.6607   -2.2867 C   0  0  0  0  0  0  0  0  0  0  0  0
    3.7877   -0.9047   -3.6159 C   0  0  0  0  0  0  0  0  0  0  0  0
    3.8117    0.0827   -4.5539 O   0  0  0  0  0  0  0  0  0  0  0  0
    3.3093   -2.1728   -3.9690 C   0  0  0  0  0  0  0  0  0  0  0  0
    3.1554   -3.1691   -3.0036 C   0  0  0  0  0  0  0  0  0  0  0  0
    3.5092   -2.9218   -1.6642 C   0  0  0  0  0  0  0  0  0  0  0  0
    3.3502   -3.9235   -0.7068 N   0  0  0  0  0  0  0  0  0  0  0  0
    3.6996   -3.7556    0.6328 C   0  0  0  0  0  0  0  0  0  0  0  0
    3.5194   -4.8175    1.4421 N   0  0  0  0  0  0  0  0  0  0  0  0
    3.8443   -4.6804    2.7456 C   0  0  0  0  0  0  0  0  0  0  0  0
    4.3561   -3.4887    3.2936 C   0  0  0  0  0  0  0  0  0  0  0  0
    4.5458   -2.3830    2.4431 C   0  0  0  0  0  0  0  0  0  0  0  0
    4.2130   -2.5159    1.0786 C   0  0  0  0  0  0  0  0  0  0  0  0
    3.0415   -4.8368   -1.0185 H   0  0  0  0  0  0  0  0  0  0  0  0
    4.5575    0.3082   -2.0178 H   0  0  0  0  0  0  0  0  0  0  0  0
    3.8518    0.9423   -4.1659 H   0  0  0  0  0  0  0  0  0  0  0  0
    3.0174   -2.3808   -4.9818 H   0  0  0  0  0  0  0  0  0  0  0  0
    2.7505   -4.1206   -3.3146 H   0  0  0  0  0  0  0  0  0  0  0  0
    3.6850   -5.5489    3.3682 H   0  0  0  0  0  0  0  0  0  0  0  0
    4.5951   -3.4286    4.3440 H   0  0  0  0  0  0  0  0  0  0  0  0
    4.9382   -1.4534    2.8351 H   0  0  0  0  0  0  0  0  0  0  0  0
  1  2  2  0
  2 16  1  0
  2  3  1  0
  3  9  2  0
  3  4  1  0
  4  5  2  0
  4 18  1  0
  5  6  1  0
  5  7  1  0
  6 19  1  0
  7  8  2  0
  7 20  1  0
  8  9  1  0
  8 21  1  0
  9 10  1  0
 10 17  1  0
 10 11  1  0
 11 16  2  0
 11 12  1  0
 12 13  2  0
 13 14  1  0
 13 22  1  0
 14 15  2  0
 14 23  1  0
 15 16  1  0
 15 24  1  0
M  END
>  <i_m_ct_stereo_status>  (205) 
1

>  <s_m_source_file>  (205) 
/var/tmp/pbs.5076255.sched01/tmp7qb2j_xu/82up84z1qn.sdf

>  <i_m_source_file_index>  (205) 
13

>  <i_lp_mmshare_version>  (205) 
48012

>  <i_f3d_flags>  (205) 
0

>  <s_epik_input>  (205) 
bjFbY0hdW2NIXVtjSF1jKGMyPU8pYzFbbkhdYyhjMjMpW2NIXVtjSF1jKFtjSF0zKVtPSF0=

>  <s_epik_cmdline>  (205) 
J2VwaWtfcHl0aG9uJywgJy1waHQnLCAnMi4wJywgJy1waCcsICc3LjAnLCAnLXRuJywgJzgnLCAnLW1hJywgJzIwMCcsICctaW1hZScsICc8aW5maWxlLm1hZT4nLCAnLW9tYWUnLCAnPG91dGZpbGUubWFlPic=

>  <r_epik_Ionization_Penalty>  (205) 
0.0185798

>  <r_epik_Ionization_Penalty_Charging>  (205) 
0.0102247

>  <r_epik_Ionization_Penalty_Neutral>  (205) 
0.00835511

>  <r_epik_State_Penalty>  (205) 
0.0140164

>  <r_epik_Charging_Adjusted_Penalty>  (205) 
0.0242411

>  <i_epik_Tot_Q>  (205) 
0

>  <i_epik_Tot_abs_Q>  (205) 
0

>  <s_lp_Force_Field>  (205) 
OPLS3e

>  <r_lp_Energy>  (205) 
15.368

>  <b_lp_Chiralities_Consistent>  (205) 
1

>  <s_lp_Variant>  (205) 
62:0-1

>  <s_i_glide_gridfile>  (205) 
pfpi4k_grid

>  <i_i_glide_lignum>  (205) 
13

>  <i_i_glide_rotatable_bonds>  (205) 
1

>  <r_i_docking_score>  (205) 
-4.2621

>  <r_i_glide_ligand_efficiency>  (205) 
-0.266381

>  <r_i_glide_ligand_efficiency_sa>  (205) 
-0.671239

>  <r_i_glide_ligand_efficiency_ln>  (205) 
-1.12975

>  <r_i_glide_gscore>  (205) 
-4.2621

>  <r_i_glide_lipo>  (205) 
-0.380518

>  <r_i_glide_hbond>  (205) 
-0.2887

>  <r_i_glide_metal>  (205) 
-0

>  <r_i_glide_rewards>  (205) 
-1.96287

>  <r_i_glide_evdw>  (205) 
-19.6291

>  <r_i_glide_ecoul>  (205) 
-4.22018

>  <r_i_glide_erotb>  (205) 
0

>  <r_i_glide_esite>  (205) 
-0.0155295

>  <r_i_glide_emodel>  (205) 
-30.7774

>  <r_i_glide_energy>  (205) 
-23.8493

>  <r_i_glide_einternal>  (205) 
0.684155

>  <r_i_glide_intrahb_reward>  (205) 
-0

>  <i_i_glide_confnum>  (205) 
2

>  <i_i_glide_posenum>  (205) 
20

>  <r_i_glide_eff_state_penalty>  (205) 
0

>  <ligand_id>  (205) 
62

>  <original_smiles>  (205) 
O=c1c2cc(O)ccc2[nH]c2ncccc12

>  <smiles>  (205) 
[H]Oc1c([H])c([H])c2c(c1[H])c(=O)c1c([H])c([H])c([H])nc1n2[H]

$$$$
62:1:0
     RDKit          3D

 23 25  0  0  1  0  0  0  0  0999 V2000
    6.5900   -1.8674   -0.6585 O   0  0  0  0  0  0  0  0  0  0  0  0
    5.4031   -2.5620   -0.5543 C   0  0  0  0  0  0  0  0  0  0  0  0
    4.3994   -2.4436   -1.5479 C   0  0  0  0  0  0  0  0  0  0  0  0
    4.5447   -1.5879   -2.6632 C   0  0  0  0  0  0  0  0  0  0  0  0
    3.5474   -1.5257   -3.6557 C   0  0  0  0  0  0  0  0  0  0  0  0
    3.6763   -0.6948   -4.7297 O   0  0  0  0  0  0  0  0  0  0  0  0
    2.3974   -2.3196   -3.5357 C   0  0  0  0  0  0  0  0  0  0  0  0
    2.2361   -3.1387   -2.4128 C   0  0  0  0  0  0  0  0  0  0  0  0
    3.2151   -3.2146   -1.4069 C   0  0  0  0  0  0  0  0  0  0  0  0
    2.9978   -4.0259   -0.3574 N   0  0  0  0  0  0  0  0  0  0  0  0
    3.9297   -4.1763    0.5974 C   0  0  0  0  0  0  0  0  0  0  0  0
    3.6779   -5.0343    1.6099 N   0  0  0  0  0  0  0  0  0  0  0  0
    4.5795   -5.1996    2.5917 C   0  0  0  0  0  0  0  0  0  0  0  0
    5.7942   -4.5085    2.6230 C   0  0  0  0  0  0  0  0  0  0  0  0
    6.0837   -3.6133    1.5787 C   0  0  0  0  0  0  0  0  0  0  0  0
    5.1494   -3.4425    0.5349 C   0  0  0  0  0  0  0  0  0  0  0  0
    5.4166   -0.9677   -2.7353 H   0  0  0  0  0  0  0  0  0  0  0  0
    2.8912   -0.6938   -5.2618 H   0  0  0  0  0  0  0  0  0  0  0  0
    1.6073   -2.2827   -4.2774 H   0  0  0  0  0  0  0  0  0  0  0  0
    1.3430   -3.7346   -2.3191 H   0  0  0  0  0  0  0  0  0  0  0  0
    4.3178   -5.8881    3.3816 H   0  0  0  0  0  0  0  0  0  0  0  0
    6.4804   -4.6608    3.4413 H   0  0  0  0  0  0  0  0  0  0  0  0
    7.0038   -3.0526    1.5813 H   0  0  0  0  0  0  0  0  0  0  0  0
  1  2  1  0
  2 16  2  0
  2  3  1  0
  3  9  2  0
  3  4  1  0
  4  5  2  0
  4 17  1  0
  5  6  1  0
  5  7  1  0
  6 18  1  0
  7  8  2  0
  7 19  1  0
  8  9  1  0
  8 20  1  0
  9 10  1  0
 10 11  2  0
 11 16  1  0
 11 12  1  0
 12 13  2  0
 13 14  1  0
 13 21  1  0
 14 15  2  0
 14 22  1  0
 15 16  1  0
 15 23  1  0
M  CHG  1   1  -1
M  END
>  <i_m_ct_stereo_status>  (206) 
1

>  <s_m_source_file>  (206) 
/var/tmp/pbs.5076255.sched01/tmp7qb2j_xu/82up84z1qn.sdf

>  <i_m_source_file_index>  (206) 
14

>  <i_lp_mmshare_version>  (206) 
48012

>  <i_f3d_flags>  (206) 
0

>  <s_epik_input>  (206) 
bjFbY0hdW2NIXVtjSF1jKGMyPU8pYzFbbkhdYyhjMjMpW2NIXVtjSF1jKFtjSF0zKVtPSF0=

>  <s_epik_cmdline>  (206) 
J2VwaWtfcHl0aG9uJywgJy1waHQnLCAnMi4wJywgJy1waCcsICc3LjAnLCAnLXRuJywgJzgnLCAnLW1hJywgJzIwMCcsICctaW1hZScsICc8aW5maWxlLm1hZT4nLCAnLW9tYWUnLCAnPG91dGZpbGUubWFlPic=

>  <r_epik_Ionization_Penalty>  (206) 
2.42826

>  <r_epik_Ionization_Penalty_Charging>  (206) 
0.0166392

>  <r_epik_Ionization_Penalty_Neutral>  (206) 
2.41162

>  <r_epik_State_Penalty>  (206) 
2.57519

>  <r_epik_Charging_Adjusted_Penalty>  (206) 
2.59183

>  <i_epik_Tot_Q>  (206) 
-1

>  <i_epik_Tot_abs_Q>  (206) 
1

>  <s_lp_Force_Field>  (206) 
OPLS3e

>  <r_lp_Energy>  (206) 
24.586

>  <b_lp_Chiralities_Consistent>  (206) 
1

>  <s_lp_Variant>  (206) 
62:0-2

>  <s_i_glide_gridfile>  (206) 
pfpi4k_grid

>  <i_i_glide_lignum>  (206) 
14

>  <i_i_glide_rotatable_bonds>  (206) 
1

>  <r_i_docking_score>  (206) 
-4.42506

>  <r_i_glide_ligand_efficiency>  (206) 
-0.276566

>  <r_i_glide_ligand_efficiency_sa>  (206) 
-0.696903

>  <r_i_glide_ligand_efficiency_ln>  (206) 
-1.17295

>  <r_i_glide_gscore>  (206) 
-4.42506

>  <r_i_glide_lipo>  (206) 
-0.794325

>  <r_i_glide_hbond>  (206) 
-0.414782

>  <r_i_glide_metal>  (206) 
-0

>  <r_i_glide_rewards>  (206) 
-1.98872

>  <r_i_glide_evdw>  (206) 
-18.5575

>  <r_i_glide_ecoul>  (206) 
-1.99568

>  <r_i_glide_erotb>  (206) 
0

>  <r_i_glide_esite>  (206) 
0

>  <r_i_glide_emodel>  (206) 
-30.1465

>  <r_i_glide_energy>  (206) 
-20.5532

>  <r_i_glide_einternal>  (206) 
0.0280735

>  <r_i_glide_intrahb_reward>  (206) 
-0

>  <i_i_glide_confnum>  (206) 
1

>  <i_i_glide_posenum>  (206) 
4

>  <r_i_glide_eff_state_penalty>  (206) 
0

>  <ligand_id>  (206) 
62

>  <original_smiles>  (206) 
O=c1c2cc(O)ccc2[nH]c2ncccc12

>  <smiles>  (206) 
[H]Oc1c([H])c([H])c2nc3nc([H])c([H])c([H])c3c([O-])c2c1[H]

$$$$
62:1:1
     RDKit          3D

 23 25  0  0  1  0  0  0  0  0999 V2000
    0.9117   -0.0723    2.5760 O   0  0  0  0  0  0  0  0  0  0  0  0
    0.1225   -0.0659    3.6955 C   0  0  0  0  0  0  0  0  0  0  0  0
   -0.6280    1.0814    4.0540 C   0  0  0  0  0  0  0  0  0  0  0  0
   -0.6150    2.2728    3.2808 C   0  0  0  0  0  0  0  0  0  0  0  0
   -1.3813    3.3944    3.6744 C   0  0  0  0  0  0  0  0  0  0  0  0
   -1.3869    4.5530    2.9347 O   0  0  0  0  0  0  0  0  0  0  0  0
   -2.1502    3.3185    4.8502 C   0  0  0  0  0  0  0  0  0  0  0  0
   -2.1563    2.1463    5.6174 C   0  0  0  0  0  0  0  0  0  0  0  0
   -1.4154    1.0139    5.2334 C   0  0  0  0  0  0  0  0  0  0  0  0
   -1.4851   -0.0937    5.9986 N   0  0  0  0  0  0  0  0  0  0  0  0
   -0.7820   -1.1975    5.6788 C   0  0  0  0  0  0  0  0  0  0  0  0
   -0.8788   -2.2838    6.4799 N   0  0  0  0  0  0  0  0  0  0  0  0
   -0.1812   -3.3989    6.1896 C   0  0  0  0  0  0  0  0  0  0  0  0
    0.6501   -3.5090    5.0661 C   0  0  0  0  0  0  0  0  0  0  0  0
    0.7611   -2.3933    4.2169 C   0  0  0  0  0  0  0  0  0  0  0  0
    0.0399   -1.2157    4.5196 C   0  0  0  0  0  0  0  0  0  0  0  0
   -0.0161    2.3240    2.3815 H   0  0  0  0  0  0  0  0  0  0  0  0
   -0.7859    4.5321    2.1814 H   0  0  0  0  0  0  0  0  0  0  0  0
   -2.7538    4.1443    5.1835 H   0  0  0  0  0  0  0  0  0  0  0  0
   -2.7621    2.1060    6.5076 H   0  0  0  0  0  0  0  0  0  0  0  0
   -0.2972   -4.2218    6.8756 H   0  0  0  0  0  0  0  0  0  0  0  0
    1.1904   -4.4223    4.8646 H   0  0  0  0  0  0  0  0  0  0  0  0
    1.3921   -2.4471    3.3424 H   0  0  0  0  0  0  0  0  0  0  0  0
  1  2  1  0
  2 16  2  0
  2  3  1  0
  3  9  2  0
  3  4  1  0
  4  5  2  0
  4 17  1  0
  5  6  1  0
  5  7  1  0
  6 18  1  0
  7  8  2  0
  7 19  1  0
  8  9  1  0
  8 20  1  0
  9 10  1  0
 10 11  2  0
 11 16  1  0
 11 12  1  0
 12 13  2  0
 13 14  1  0
 13 21  1  0
 14 15  2  0
 14 22  1  0
 15 16  1  0
 15 23  1  0
M  CHG  1   1  -1
M  END
>  <i_m_ct_stereo_status>  (207) 
1

>  <s_m_source_file>  (207) 
/var/tmp/pbs.5076255.sched01/tmp7qb2j_xu/82up84z1qn.sdf

>  <i_m_source_file_index>  (207) 
14

>  <i_lp_mmshare_version>  (207) 
48012

>  <i_f3d_flags>  (207) 
0

>  <s_epik_input>  (207) 
bjFbY0hdW2NIXVtjSF1jKGMyPU8pYzFbbkhdYyhjMjMpW2NIXVtjSF1jKFtjSF0zKVtPSF0=

>  <s_epik_cmdline>  (207) 
J2VwaWtfcHl0aG9uJywgJy1waHQnLCAnMi4wJywgJy1waCcsICc3LjAnLCAnLXRuJywgJzgnLCAnLW1hJywgJzIwMCcsICctaW1hZScsICc8aW5maWxlLm1hZT4nLCAnLW9tYWUnLCAnPG91dGZpbGUubWFlPic=

>  <r_epik_Ionization_Penalty>  (207) 
2.42826

>  <r_epik_Ionization_Penalty_Charging>  (207) 
0.0166392

>  <r_epik_Ionization_Penalty_Neutral>  (207) 
2.41162

>  <r_epik_State_Penalty>  (207) 
2.57519

>  <r_epik_Charging_Adjusted_Penalty>  (207) 
2.59183

>  <i_epik_Tot_Q>  (207) 
-1

>  <i_epik_Tot_abs_Q>  (207) 
1

>  <s_lp_Force_Field>  (207) 
OPLS3e

>  <r_lp_Energy>  (207) 
24.586

>  <b_lp_Chiralities_Consistent>  (207) 
1

>  <s_lp_Variant>  (207) 
62:0-2

>  <s_i_glide_gridfile>  (207) 
pfpi4k_grid

>  <i_i_glide_lignum>  (207) 
14

>  <i_i_glide_rotatable_bonds>  (207) 
1

>  <r_i_docking_score>  (207) 
-4.23708

>  <r_i_glide_ligand_efficiency>  (207) 
-0.264818

>  <r_i_glide_ligand_efficiency_sa>  (207) 
-0.667298

>  <r_i_glide_ligand_efficiency_ln>  (207) 
-1.12312

>  <r_i_glide_gscore>  (207) 
-4.23708

>  <r_i_glide_lipo>  (207) 
-0.0342698

>  <r_i_glide_hbond>  (207) 
-0.313286

>  <r_i_glide_metal>  (207) 
-0

>  <r_i_glide_rewards>  (207) 
-1.96912

>  <r_i_glide_evdw>  (207) 
-14.2142

>  <r_i_glide_ecoul>  (207) 
-7.77766

>  <r_i_glide_erotb>  (207) 
0

>  <r_i_glide_esite>  (207) 
-0.0430488

>  <r_i_glide_emodel>  (207) 
-31.2287

>  <r_i_glide_energy>  (207) 
-21.9919

>  <r_i_glide_einternal>  (207) 
0.00351981

>  <r_i_glide_intrahb_reward>  (207) 
-0

>  <i_i_glide_confnum>  (207) 
1

>  <i_i_glide_posenum>  (207) 
2

>  <r_i_glide_eff_state_penalty>  (207) 
0

>  <ligand_id>  (207) 
62

>  <original_smiles>  (207) 
O=c1c2cc(O)ccc2[nH]c2ncccc12

>  <smiles>  (207) 
[H]Oc1c([H])c([H])c2nc3nc([H])c([H])c([H])c3c([O-])c2c1[H]

$$$$
62:1:2
     RDKit          3D

 23 25  0  0  1  0  0  0  0  0999 V2000
   -0.5808    5.3424    5.9094 O   0  0  0  0  0  0  0  0  0  0  0  0
   -0.9957    4.0787    6.2741 C   0  0  0  0  0  0  0  0  0  0  0  0
   -0.8763    2.9904    5.3743 C   0  0  0  0  0  0  0  0  0  0  0  0
   -0.3205    3.1356    4.0793 C   0  0  0  0  0  0  0  0  0  0  0  0
   -0.2145    2.0273    3.2170 C   0  0  0  0  0  0  0  0  0  0  0  0
    0.3157    2.1427    1.9733 O   0  0  0  0  0  0  0  0  0  0  0  0
   -0.6594    0.7662    3.6367 C   0  0  0  0  0  0  0  0  0  0  0  0
   -1.2205    0.6137    4.9120 C   0  0  0  0  0  0  0  0  0  0  0  0
   -1.3354    1.7054    5.7938 C   0  0  0  0  0  0  0  0  0  0  0  0
   -1.8817    1.4990    7.0056 N   0  0  0  0  0  0  0  0  0  0  0  0
   -2.0011    2.5110    7.8833 C   0  0  0  0  0  0  0  0  0  0  0  0
   -2.5554    2.2559    9.0861 N   0  0  0  0  0  0  0  0  0  0  0  0
   -2.6943    3.2375    9.9953 C   0  0  0  0  0  0  0  0  0  0  0  0
   -2.2945    4.5580    9.7598 C   0  0  0  0  0  0  0  0  0  0  0  0
   -1.7163    4.8481    8.5131 C   0  0  0  0  0  0  0  0  0  0  0  0
   -1.5616    3.8279    7.5480 C   0  0  0  0  0  0  0  0  0  0  0  0
    0.0393    4.1033    3.7491 H   0  0  0  0  0  0  0  0  0  0  0  0
    0.2264    3.0257    1.5761 H   0  0  0  0  0  0  0  0  0  0  0  0
   -0.5770   -0.0858    2.9692 H   0  0  0  0  0  0  0  0  0  0  0  0
   -1.5702   -0.3552    5.2227 H   0  0  0  0  0  0  0  0  0  0  0  0
   -3.1471    2.9496   10.9333 H   0  0  0  0  0  0  0  0  0  0  0  0
   -2.4306    5.3115   10.5154 H   0  0  0  0  0  0  0  0  0  0  0  0
   -1.3994    5.8648    8.3033 H   0  0  0  0  0  0  0  0  0  0  0  0
  1  2  1  0
  2 16  2  0
  2  3  1  0
  3  9  2  0
  3  4  1  0
  4  5  2  0
  4 17  1  0
  5  6  1  0
  5  7  1  0
  6 18  1  0
  7  8  2  0
  7 19  1  0
  8  9  1  0
  8 20  1  0
  9 10  1  0
 10 11  2  0
 11 16  1  0
 11 12  1  0
 12 13  2  0
 13 14  1  0
 13 21  1  0
 14 15  2  0
 14 22  1  0
 15 16  1  0
 15 23  1  0
M  CHG  1   1  -1
M  END
>  <i_m_ct_stereo_status>  (208) 
1

>  <s_m_source_file>  (208) 
/var/tmp/pbs.5076255.sched01/tmp7qb2j_xu/82up84z1qn.sdf

>  <i_m_source_file_index>  (208) 
14

>  <i_lp_mmshare_version>  (208) 
48012

>  <i_f3d_flags>  (208) 
0

>  <s_epik_input>  (208) 
bjFbY0hdW2NIXVtjSF1jKGMyPU8pYzFbbkhdYyhjMjMpW2NIXVtjSF1jKFtjSF0zKVtPSF0=

>  <s_epik_cmdline>  (208) 
J2VwaWtfcHl0aG9uJywgJy1waHQnLCAnMi4wJywgJy1waCcsICc3LjAnLCAnLXRuJywgJzgnLCAnLW1hJywgJzIwMCcsICctaW1hZScsICc8aW5maWxlLm1hZT4nLCAnLW9tYWUnLCAnPG91dGZpbGUubWFlPic=

>  <r_epik_Ionization_Penalty>  (208) 
2.42826

>  <r_epik_Ionization_Penalty_Charging>  (208) 
0.0166392

>  <r_epik_Ionization_Penalty_Neutral>  (208) 
2.41162

>  <r_epik_State_Penalty>  (208) 
2.57519

>  <r_epik_Charging_Adjusted_Penalty>  (208) 
2.59183

>  <i_epik_Tot_Q>  (208) 
-1

>  <i_epik_Tot_abs_Q>  (208) 
1

>  <s_lp_Force_Field>  (208) 
OPLS3e

>  <r_lp_Energy>  (208) 
24.586

>  <b_lp_Chiralities_Consistent>  (208) 
1

>  <s_lp_Variant>  (208) 
62:0-2

>  <s_i_glide_gridfile>  (208) 
pfpi4k_grid

>  <i_i_glide_lignum>  (208) 
14

>  <i_i_glide_rotatable_bonds>  (208) 
1

>  <r_i_docking_score>  (208) 
-4.21548

>  <r_i_glide_ligand_efficiency>  (208) 
-0.263467

>  <r_i_glide_ligand_efficiency_sa>  (208) 
-0.663896

>  <r_i_glide_ligand_efficiency_ln>  (208) 
-1.1174

>  <r_i_glide_gscore>  (208) 
-4.21548

>  <r_i_glide_lipo>  (208) 
-0.0219108

>  <r_i_glide_hbond>  (208) 
-0.185493

>  <r_i_glide_metal>  (208) 
-0

>  <r_i_glide_rewards>  (208) 
-1.96912

>  <r_i_glide_evdw>  (208) 
-13.6969

>  <r_i_glide_ecoul>  (208) 
-8.99519

>  <r_i_glide_erotb>  (208) 
0

>  <r_i_glide_esite>  (208) 
-0.00483697

>  <r_i_glide_emodel>  (208) 
-31.2378

>  <r_i_glide_energy>  (208) 
-22.6921

>  <r_i_glide_einternal>  (208) 
0.7509

>  <r_i_glide_intrahb_reward>  (208) 
-0

>  <i_i_glide_confnum>  (208) 
2

>  <i_i_glide_posenum>  (208) 
16

>  <r_i_glide_eff_state_penalty>  (208) 
0

>  <ligand_id>  (208) 
62

>  <original_smiles>  (208) 
O=c1c2cc(O)ccc2[nH]c2ncccc12

>  <smiles>  (208) 
[H]Oc1c([H])c([H])c2nc3nc([H])c([H])c([H])c3c([O-])c2c1[H]

$$$$
62:2:0
     RDKit          3D

 23 25  0  0  1  0  0  0  0  0999 V2000
    6.6945   -2.8909   -0.6049 O   0  0  0  0  0  0  0  0  0  0  0  0
    5.5296   -3.2886   -0.5111 C   0  0  0  0  0  0  0  0  0  0  0  0
    4.4959   -2.9869   -1.5428 C   0  0  0  0  0  0  0  0  0  0  0  0
    4.8333   -2.2265   -2.6814 C   0  0  0  0  0  0  0  0  0  0  0  0
    3.8779   -1.9085   -3.6634 C   0  0  0  0  0  0  0  0  0  0  0  0
    4.2103   -1.1109   -4.7200 O   0  0  0  0  0  0  0  0  0  0  0  0
    2.5710   -2.3975   -3.5238 C   0  0  0  0  0  0  0  0  0  0  0  0
    2.2074   -3.1438   -2.3860 C   0  0  0  0  0  0  0  0  0  0  0  0
    3.1649   -3.4324   -1.3973 C   0  0  0  0  0  0  0  0  0  0  0  0
    2.8053   -4.1719   -0.2693 N   0  0  0  0  0  0  0  0  0  0  0  0
    3.7069   -4.5194    0.7314 C   0  0  0  0  0  0  0  0  0  0  0  0
    3.2135   -5.2496    1.7500 N   0  0  0  0  0  0  0  0  0  0  0  0
    4.0632   -5.5876    2.7407 C   0  0  0  0  0  0  0  0  0  0  0  0
    5.4214   -5.2145    2.7594 C   0  0  0  0  0  0  0  0  0  0  0  0
    5.9316   -4.4553    1.6911 C   0  0  0  0  0  0  0  0  0  0  0  0
    5.0584   -4.0964    0.6481 C   0  0  0  0  0  0  0  0  0  0  0  0
    1.8633   -4.5157   -0.2152 H   0  0  0  0  0  0  0  0  0  0  0  0
    5.8296   -1.8567   -2.7709 H   0  0  0  0  0  0  0  0  0  0  0  0
    1.8284   -2.1661   -4.2711 H   0  0  0  0  0  0  0  0  0  0  0  0
    1.1866   -3.4823   -2.2844 H   0  0  0  0  0  0  0  0  0  0  0  0
    3.6444   -6.1688    3.5464 H   0  0  0  0  0  0  0  0  0  0  0  0
    6.0604   -5.5058    3.5752 H   0  0  0  0  0  0  0  0  0  0  0  0
    6.9707   -4.1509    1.6744 H   0  0  0  0  0  0  0  0  0  0  0  0
  1  2  2  0
  2 16  1  0
  2  3  1  0
  3  9  2  0
  3  4  1  0
  4  5  2  0
  4 18  1  0
  5  6  1  0
  5  7  1  0
  7  8  2  0
  7 19  1  0
  8  9  1  0
  8 20  1  0
  9 10  1  0
 10 17  1  0
 10 11  1  0
 11 16  2  0
 11 12  1  0
 12 13  2  0
 13 14  1  0
 13 21  1  0
 14 15  2  0
 14 22  1  0
 15 16  1  0
 15 23  1  0
M  CHG  1   6  -1
M  END
>  <i_m_ct_stereo_status>  (209) 
1

>  <s_m_source_file>  (209) 
/var/tmp/pbs.5076255.sched01/tmp7qb2j_xu/82up84z1qn.sdf

>  <i_m_source_file_index>  (209) 
15

>  <i_lp_mmshare_version>  (209) 
48012

>  <i_f3d_flags>  (209) 
0

>  <s_epik_input>  (209) 
bjFbY0hdW2NIXVtjSF1jKGMyPU8pYzFbbkhdYyhjMjMpW2NIXVtjSF1jKFtjSF0zKVtPSF0=

>  <s_epik_cmdline>  (209) 
J2VwaWtfcHl0aG9uJywgJy1waHQnLCAnMi4wJywgJy1waCcsICc3LjAnLCAnLXRuJywgJzgnLCAnLW1hJywgJzIwMCcsICctaW1hZScsICc8aW5maWxlLm1hZT4nLCAnLW9tYWUnLCAnPG91dGZpbGUubWFlPic=

>  <r_epik_Ionization_Penalty>  (209) 
2.52919

>  <r_epik_Ionization_Penalty_Charging>  (209) 
2.52919

>  <r_epik_Ionization_Penalty_Neutral>  (209) 
2.77748e-07

>  <r_epik_State_Penalty>  (209) 
2.70377

>  <r_epik_Charging_Adjusted_Penalty>  (209) 
5.23297

>  <i_epik_Tot_Q>  (209) 
-1

>  <i_epik_Tot_abs_Q>  (209) 
1

>  <s_lp_Force_Field>  (209) 
OPLS3e

>  <r_lp_Energy>  (209) 
18.8656

>  <b_lp_Chiralities_Consistent>  (209) 
1

>  <s_lp_Variant>  (209) 
62:0-3

>  <s_i_glide_gridfile>  (209) 
pfpi4k_grid

>  <i_i_glide_lignum>  (209) 
15

>  <i_i_glide_rotatable_bonds>  (209) 
0

>  <r_i_docking_score>  (209) 
-4.27811

>  <r_i_glide_ligand_efficiency>  (209) 
-0.267382

>  <r_i_glide_ligand_efficiency_sa>  (209) 
-0.67376

>  <r_i_glide_ligand_efficiency_ln>  (209) 
-1.134

>  <r_i_glide_gscore>  (209) 
-4.27811

>  <r_i_glide_lipo>  (209) 
-0.967628

>  <r_i_glide_hbond>  (209) 
-0.16

>  <r_i_glide_metal>  (209) 
-0

>  <r_i_glide_rewards>  (209) 
-1.97286

>  <r_i_glide_evdw>  (209) 
-18.7481

>  <r_i_glide_ecoul>  (209) 
-1.33188

>  <r_i_glide_erotb>  (209) 
0

>  <r_i_glide_esite>  (209) 
-0.0404321

>  <r_i_glide_emodel>  (209) 
-29.2232

>  <r_i_glide_energy>  (209) 
-20.0799

>  <r_i_glide_einternal>  (209) 
0

>  <r_i_glide_intrahb_reward>  (209) 
-0

>  <i_i_glide_confnum>  (209) 
2

>  <i_i_glide_posenum>  (209) 
23

>  <r_i_glide_eff_state_penalty>  (209) 
0

>  <ligand_id>  (209) 
62

>  <original_smiles>  (209) 
O=c1c2cc(O)ccc2[nH]c2ncccc12

>  <smiles>  (209) 
[H]c1nc2c(c([H])c1[H])c(=O)c1c([H])c([O-])c([H])c([H])c1n2[H]

$$$$
62:2:1
     RDKit          3D

 23 25  0  0  1  0  0  0  0  0999 V2000
    5.9255   -0.6843    0.0625 O   0  0  0  0  0  0  0  0  0  0  0  0
    5.0142   -1.5165    0.0429 C   0  0  0  0  0  0  0  0  0  0  0  0
    4.2823   -1.8905   -1.2028 C   0  0  0  0  0  0  0  0  0  0  0  0
    4.6009   -1.2643   -2.4217 C   0  0  0  0  0  0  0  0  0  0  0  0
    3.9069   -1.6119   -3.5892 C   0  0  0  0  0  0  0  0  0  0  0  0
    4.2005   -0.9680   -4.7420 O   0  0  0  0  0  0  0  0  0  0  0  0
    2.8975   -2.5876   -3.5667 C   0  0  0  0  0  0  0  0  0  0  0  0
    2.5641   -3.2083   -2.3527 C   0  0  0  0  0  0  0  0  0  0  0  0
    3.2575   -2.8687   -1.1770 C   0  0  0  0  0  0  0  0  0  0  0  0
    2.9363   -3.4987    0.0211 N   0  0  0  0  0  0  0  0  0  0  0  0
    3.5567   -3.1994    1.2294 C   0  0  0  0  0  0  0  0  0  0  0  0
    3.1297   -3.8842    2.3088 N   0  0  0  0  0  0  0  0  0  0  0  0
    3.7248   -3.6268    3.4908 C   0  0  0  0  0  0  0  0  0  0  0  0
    4.7613   -2.6837    3.6470 C   0  0  0  0  0  0  0  0  0  0  0  0
    5.2020   -1.9675    2.5141 C   0  0  0  0  0  0  0  0  0  0  0  0
    4.5874   -2.2294    1.2738 C   0  0  0  0  0  0  0  0  0  0  0  0
    2.2331   -4.2155    0.0133 H   0  0  0  0  0  0  0  0  0  0  0  0
    5.3670   -0.5076   -2.4678 H   0  0  0  0  0  0  0  0  0  0  0  0
    2.3664   -2.8645   -4.4652 H   0  0  0  0  0  0  0  0  0  0  0  0
    1.7815   -3.9567   -2.3310 H   0  0  0  0  0  0  0  0  0  0  0  0
    3.3600   -4.1936    4.3324 H   0  0  0  0  0  0  0  0  0  0  0  0
    5.2059   -2.5160    4.6152 H   0  0  0  0  0  0  0  0  0  0  0  0
    6.0002   -1.2389    2.5992 H   0  0  0  0  0  0  0  0  0  0  0  0
  1  2  2  0
  2 16  1  0
  2  3  1  0
  3  9  2  0
  3  4  1  0
  4  5  2  0
  4 18  1  0
  5  6  1  0
  5  7  1  0
  7  8  2  0
  7 19  1  0
  8  9  1  0
  8 20  1  0
  9 10  1  0
 10 17  1  0
 10 11  1  0
 11 16  2  0
 11 12  1  0
 12 13  2  0
 13 14  1  0
 13 21  1  0
 14 15  2  0
 14 22  1  0
 15 16  1  0
 15 23  1  0
M  CHG  1   6  -1
M  END
>  <i_m_ct_stereo_status>  (210) 
1

>  <s_m_source_file>  (210) 
/var/tmp/pbs.5076255.sched01/tmp7qb2j_xu/82up84z1qn.sdf

>  <i_m_source_file_index>  (210) 
15

>  <i_lp_mmshare_version>  (210) 
48012

>  <i_f3d_flags>  (210) 
0

>  <s_epik_input>  (210) 
bjFbY0hdW2NIXVtjSF1jKGMyPU8pYzFbbkhdYyhjMjMpW2NIXVtjSF1jKFtjSF0zKVtPSF0=

>  <s_epik_cmdline>  (210) 
J2VwaWtfcHl0aG9uJywgJy1waHQnLCAnMi4wJywgJy1waCcsICc3LjAnLCAnLXRuJywgJzgnLCAnLW1hJywgJzIwMCcsICctaW1hZScsICc8aW5maWxlLm1hZT4nLCAnLW9tYWUnLCAnPG91dGZpbGUubWFlPic=

>  <r_epik_Ionization_Penalty>  (210) 
2.52919

>  <r_epik_Ionization_Penalty_Charging>  (210) 
2.52919

>  <r_epik_Ionization_Penalty_Neutral>  (210) 
2.77748e-07

>  <r_epik_State_Penalty>  (210) 
2.70377

>  <r_epik_Charging_Adjusted_Penalty>  (210) 
5.23297

>  <i_epik_Tot_Q>  (210) 
-1

>  <i_epik_Tot_abs_Q>  (210) 
1

>  <s_lp_Force_Field>  (210) 
OPLS3e

>  <r_lp_Energy>  (210) 
18.8656

>  <b_lp_Chiralities_Consistent>  (210) 
1

>  <s_lp_Variant>  (210) 
62:0-3

>  <s_i_glide_gridfile>  (210) 
pfpi4k_grid

>  <i_i_glide_lignum>  (210) 
15

>  <i_i_glide_rotatable_bonds>  (210) 
0

>  <r_i_docking_score>  (210) 
-3.9569

>  <r_i_glide_ligand_efficiency>  (210) 
-0.247306

>  <r_i_glide_ligand_efficiency_sa>  (210) 
-0.623173

>  <r_i_glide_ligand_efficiency_ln>  (210) 
-1.04886

>  <r_i_glide_gscore>  (210) 
-3.9569

>  <r_i_glide_lipo>  (210) 
-0.661408

>  <r_i_glide_hbond>  (210) 
-0.16

>  <r_i_glide_metal>  (210) 
-0

>  <r_i_glide_rewards>  (210) 
-1.96912

>  <r_i_glide_evdw>  (210) 
-19.9123

>  <r_i_glide_ecoul>  (210) 
-1.04806

>  <r_i_glide_erotb>  (210) 
0

>  <r_i_glide_esite>  (210) 
-0.0135541

>  <r_i_glide_emodel>  (210) 
-29.423

>  <r_i_glide_energy>  (210) 
-20.9604

>  <r_i_glide_einternal>  (210) 
0

>  <r_i_glide_intrahb_reward>  (210) 
-0

>  <i_i_glide_confnum>  (210) 
1

>  <i_i_glide_posenum>  (210) 
10

>  <r_i_glide_eff_state_penalty>  (210) 
0

>  <ligand_id>  (210) 
62

>  <original_smiles>  (210) 
O=c1c2cc(O)ccc2[nH]c2ncccc12

>  <smiles>  (210) 
[H]c1nc2c(c([H])c1[H])c(=O)c1c([H])c([O-])c([H])c([H])c1n2[H]

$$$$
62:2:2
     RDKit          3D

 23 25  0  0  1  0  0  0  0  0999 V2000
    6.1678   -1.3426   -0.1791 O   0  0  0  0  0  0  0  0  0  0  0  0
    5.1872   -2.0853   -0.2609 C   0  0  0  0  0  0  0  0  0  0  0  0
    4.3221   -2.1391   -1.4712 C   0  0  0  0  0  0  0  0  0  0  0  0
    4.5983   -1.3023   -2.5743 C   0  0  0  0  0  0  0  0  0  0  0  0
    3.7983   -1.3659   -3.7262 C   0  0  0  0  0  0  0  0  0  0  0  0
    4.0591   -0.5400   -4.7697 O   0  0  0  0  0  0  0  0  0  0  0  0
    2.7139   -2.2554   -3.7809 C   0  0  0  0  0  0  0  0  0  0  0  0
    2.4160   -3.0700   -2.6795 C   0  0  0  0  0  0  0  0  0  0  0  0
    3.2197   -3.0216   -1.5315 C   0  0  0  0  0  0  0  0  0  0  0  0
    2.9243   -3.8541   -0.4526 N   0  0  0  0  0  0  0  0  0  0  0  0
    3.6786   -3.8656    0.7178 C   0  0  0  0  0  0  0  0  0  0  0  0
    3.2826   -4.7278    1.6773 N   0  0  0  0  0  0  0  0  0  0  0  0
    3.9970   -4.7644    2.8210 C   0  0  0  0  0  0  0  0  0  0  0  0
    5.1209   -3.9488    3.0548 C   0  0  0  0  0  0  0  0  0  0  0  0
    5.5294   -3.0508    2.0464 C   0  0  0  0  0  0  0  0  0  0  0  0
    4.7959   -3.0066    0.8453 C   0  0  0  0  0  0  0  0  0  0  0  0
    2.1800   -4.5223   -0.5484 H   0  0  0  0  0  0  0  0  0  0  0  0
    5.4106   -0.5952   -2.5354 H   0  0  0  0  0  0  0  0  0  0  0  0
    2.0876   -2.3022   -4.6509 H   0  0  0  0  0  0  0  0  0  0  0  0
    1.5753   -3.7431   -2.7193 H   0  0  0  0  0  0  0  0  0  0  0  0
    3.6538   -5.4631    3.5683 H   0  0  0  0  0  0  0  0  0  0  0  0
    5.6579   -4.0118    3.9880 H   0  0  0  0  0  0  0  0  0  0  0  0
    6.3905   -2.4120    2.1932 H   0  0  0  0  0  0  0  0  0  0  0  0
  1  2  2  0
  2 16  1  0
  2  3  1  0
  3  9  2  0
  3  4  1  0
  4  5  2  0
  4 18  1  0
  5  6  1  0
  5  7  1  0
  7  8  2  0
  7 19  1  0
  8  9  1  0
  8 20  1  0
  9 10  1  0
 10 17  1  0
 10 11  1  0
 11 16  2  0
 11 12  1  0
 12 13  2  0
 13 14  1  0
 13 21  1  0
 14 15  2  0
 14 22  1  0
 15 16  1  0
 15 23  1  0
M  CHG  1   6  -1
M  END
>  <i_m_ct_stereo_status>  (211) 
1

>  <s_m_source_file>  (211) 
/var/tmp/pbs.5076255.sched01/tmp7qb2j_xu/82up84z1qn.sdf

>  <i_m_source_file_index>  (211) 
15

>  <i_lp_mmshare_version>  (211) 
48012

>  <i_f3d_flags>  (211) 
0

>  <s_epik_input>  (211) 
bjFbY0hdW2NIXVtjSF1jKGMyPU8pYzFbbkhdYyhjMjMpW2NIXVtjSF1jKFtjSF0zKVtPSF0=

>  <s_epik_cmdline>  (211) 
J2VwaWtfcHl0aG9uJywgJy1waHQnLCAnMi4wJywgJy1waCcsICc3LjAnLCAnLXRuJywgJzgnLCAnLW1hJywgJzIwMCcsICctaW1hZScsICc8aW5maWxlLm1hZT4nLCAnLW9tYWUnLCAnPG91dGZpbGUubWFlPic=

>  <r_epik_Ionization_Penalty>  (211) 
2.52919

>  <r_epik_Ionization_Penalty_Charging>  (211) 
2.52919

>  <r_epik_Ionization_Penalty_Neutral>  (211) 
2.77748e-07

>  <r_epik_State_Penalty>  (211) 
2.70377

>  <r_epik_Charging_Adjusted_Penalty>  (211) 
5.23297

>  <i_epik_Tot_Q>  (211) 
-1

>  <i_epik_Tot_abs_Q>  (211) 
1

>  <s_lp_Force_Field>  (211) 
OPLS3e

>  <r_lp_Energy>  (211) 
18.8656

>  <b_lp_Chiralities_Consistent>  (211) 
1

>  <s_lp_Variant>  (211) 
62:0-3

>  <s_i_glide_gridfile>  (211) 
pfpi4k_grid

>  <i_i_glide_lignum>  (211) 
15

>  <i_i_glide_rotatable_bonds>  (211) 
0

>  <r_i_docking_score>  (211) 
-3.87255

>  <r_i_glide_ligand_efficiency>  (211) 
-0.242034

>  <r_i_glide_ligand_efficiency_sa>  (211) 
-0.609889

>  <r_i_glide_ligand_efficiency_ln>  (211) 
-1.0265

>  <r_i_glide_gscore>  (211) 
-3.87255

>  <r_i_glide_lipo>  (211) 
-0.5594

>  <r_i_glide_hbond>  (211) 
-0.0773704

>  <r_i_glide_metal>  (211) 
-0

>  <r_i_glide_rewards>  (211) 
-1.96994

>  <r_i_glide_evdw>  (211) 
-18.4482

>  <r_i_glide_ecoul>  (211) 
-2.13352

>  <r_i_glide_erotb>  (211) 
0

>  <r_i_glide_esite>  (211) 
-0.0234007

>  <r_i_glide_emodel>  (211) 
-28.8569

>  <r_i_glide_energy>  (211) 
-20.5818

>  <r_i_glide_einternal>  (211) 
0

>  <r_i_glide_intrahb_reward>  (211) 
-0

>  <i_i_glide_confnum>  (211) 
2

>  <i_i_glide_posenum>  (211) 
12

>  <r_i_glide_eff_state_penalty>  (211) 
0

>  <ligand_id>  (211) 
62

>  <original_smiles>  (211) 
O=c1c2cc(O)ccc2[nH]c2ncccc12

>  <smiles>  (211) 
[H]c1nc2c(c([H])c1[H])c(=O)c1c([H])c([O-])c([H])c([H])c1n2[H]

$$$$
63:0:0
     RDKit          3D

 83 87  0  0  1  0  0  0  0  0999 V2000
    3.1794    0.2506    2.4098 C   0  0  0  0  0  0  0  0  0  0  0  0
    4.3753   -0.6609    2.0716 C   0  0  2  0  0  0  0  0  0  0  0  0
    4.4630   -0.8270    0.5569 C   0  0  0  0  0  0  0  0  0  0  0  0
    5.6349   -1.7346    0.2043 C   0  0  0  0  0  0  0  0  0  0  0  0
    5.4495   -3.1925    0.6864 C   0  0  2  0  0  0  0  0  0  0  0  0
    6.8250   -3.8749    0.4342 C   0  0  0  0  0  0  0  0  0  0  0  0
    4.3359   -3.9068   -0.1272 C   0  0  1  0  0  0  0  0  0  0  0  0
    4.6511   -3.9511   -1.5055 O   0  0  0  0  0  0  0  0  0  0  0  0
    4.0996   -5.3493    0.3476 C   0  0  0  0  0  0  0  0  0  0  0  0
    3.6281   -5.4759    1.8251 C   0  0  2  0  0  0  0  0  0  0  0  0
    2.2343   -4.7829    1.9193 C   0  0  0  0  0  0  0  0  0  0  0  0
    4.5641   -4.6136    2.7593 C   0  0  1  0  0  0  0  0  0  0  0  0
    5.6538   -5.4579    3.3994 C   0  0  0  0  0  0  0  0  0  0  0  0
    5.0570   -6.5481    4.2909 C   0  0  0  0  0  0  0  0  0  0  0  0
    3.7310   -7.2269    3.8127 C   0  0  2  0  0  0  0  0  0  0  0  0
    3.6209   -8.7149    4.3741 C   0  0  2  0  0  0  0  0  0  0  0  0
    2.1431   -9.2004    4.3015 C   0  0  0  0  0  0  0  0  0  0  0  0
    4.0081   -8.7862    5.8883 C   0  0  0  0  0  0  0  0  0  0  0  0
    4.1659  -10.2143    6.4445 C   0  0  0  0  0  0  0  0  0  0  0  0
    5.1557  -11.0370    5.6085 C   0  0  0  0  0  0  0  0  0  0  0  0
    4.7938  -11.0980    4.1055 C   0  0  0  0  0  0  0  0  0  0  0  0
    5.9761  -11.7892    3.3876 C   0  0  0  0  0  0  0  0  0  0  0  0
    3.5589  -12.0051    3.9018 C   0  0  0  0  0  0  0  0  0  0  0  0
    4.6268   -9.6274    3.5781 C   0  0  1  0  0  0  0  0  0  0  0  0
    4.4780   -9.4697    2.0485 C   0  0  0  0  0  0  0  0  0  0  0  0
    4.5309   -7.9997    1.5687 C   0  0  0  0  0  0  0  0  0  0  0  0
    3.5063   -7.0403    2.2553 C   0  0  2  0  0  0  0  0  0  0  0  0
    2.1055   -7.5330    1.7702 C   0  0  0  0  0  0  0  0  0  0  0  0
    5.1167   -3.2258    2.2220 C   0  0  2  0  0  0  0  0  0  0  0  0
    4.3058   -2.0155    2.8296 C   0  0  1  0  0  0  0  0  0  0  0  0
    4.7470   -1.7832    4.2946 C   0  0  0  0  0  0  0  0  0  0  0  0
    2.2353   -0.2099    2.1140 H   0  0  0  0  0  0  0  0  0  0  0  0
    3.2541    1.2046    1.8854 H   0  0  0  0  0  0  0  0  0  0  0  0
    3.1190    0.4763    3.4736 H   0  0  0  0  0  0  0  0  0  0  0  0
    5.2825   -0.1407    2.3809 H   0  0  0  0  0  0  0  0  0  0  0  0
    3.5247   -1.2038    0.1508 H   0  0  0  0  0  0  0  0  0  0  0  0
    4.6195    0.1445    0.0922 H   0  0  0  0  0  0  0  0  0  0  0  0
    5.8030   -1.7032   -0.8713 H   0  0  0  0  0  0  0  0  0  0  0  0
    6.5339   -1.3106    0.6542 H   0  0  0  0  0  0  0  0  0  0  0  0
    6.8546   -4.9145    0.7448 H   0  0  0  0  0  0  0  0  0  0  0  0
    7.6274   -3.3676    0.9697 H   0  0  0  0  0  0  0  0  0  0  0  0
    7.0948   -3.8509   -0.6214 H   0  0  0  0  0  0  0  0  0  0  0  0
    3.4014   -3.3564   -0.0615 H   0  0  0  0  0  0  0  0  0  0  0  0
    3.9982   -4.4842   -1.9425 H   0  0  0  0  0  0  0  0  0  0  0  0
    3.3678   -5.8181   -0.3092 H   0  0  0  0  0  0  0  0  0  0  0  0
    5.0191   -5.9026    0.1821 H   0  0  0  0  0  0  0  0  0  0  0  0
    1.7792   -4.9212    2.8999 H   0  0  0  0  0  0  0  0  0  0  0  0
    1.5378   -5.1390    1.1653 H   0  0  0  0  0  0  0  0  0  0  0  0
    2.2755   -3.7140    1.7427 H   0  0  0  0  0  0  0  0  0  0  0  0
    3.9412   -4.3586    3.6185 H   0  0  0  0  0  0  0  0  0  0  0  0
    6.3177   -5.8754    2.6482 H   0  0  0  0  0  0  0  0  0  0  0  0
    6.2782   -4.8358    4.0360 H   0  0  0  0  0  0  0  0  0  0  0  0
    5.8579   -7.2697    4.4333 H   0  0  0  0  0  0  0  0  0  0  0  0
    4.8704   -6.1225    5.2784 H   0  0  0  0  0  0  0  0  0  0  0  0
    2.9408   -6.6488    4.2928 H   0  0  0  0  0  0  0  0  0  0  0  0
    1.8448   -9.8074    5.1522 H   0  0  0  0  0  0  0  0  0  0  0  0
    1.9432   -9.8156    3.4291 H   0  0  0  0  0  0  0  0  0  0  0  0
    1.4344   -8.3747    4.3059 H   0  0  0  0  0  0  0  0  0  0  0  0
    4.9639   -8.3104    6.0876 H   0  0  0  0  0  0  0  0  0  0  0  0
    3.2818   -8.2407    6.4900 H   0  0  0  0  0  0  0  0  0  0  0  0
    4.5363  -10.1612    7.4672 H   0  0  0  0  0  0  0  0  0  0  0  0
    3.2138  -10.7361    6.5188 H   0  0  0  0  0  0  0  0  0  0  0  0
    6.1479  -10.5948    5.7214 H   0  0  0  0  0  0  0  0  0  0  0  0
    5.2317  -12.0446    6.0208 H   0  0  0  0  0  0  0  0  0  0  0  0
    5.7396  -12.0204    2.3483 H   0  0  0  0  0  0  0  0  0  0  0  0
    6.2290  -12.7347    3.8677 H   0  0  0  0  0  0  0  0  0  0  0  0
    6.8719  -11.1669    3.4009 H   0  0  0  0  0  0  0  0  0  0  0  0
    3.1823  -11.9632    2.8805 H   0  0  0  0  0  0  0  0  0  0  0  0
    2.7365  -11.7673    4.5713 H   0  0  0  0  0  0  0  0  0  0  0  0
    3.8056  -13.0466    4.1070 H   0  0  0  0  0  0  0  0  0  0  0  0
    5.6159   -9.2122    3.7627 H   0  0  0  0  0  0  0  0  0  0  0  0
    5.2974   -9.9843    1.5500 H   0  0  0  0  0  0  0  0  0  0  0  0
    3.5857   -9.9798    1.6937 H   0  0  0  0  0  0  0  0  0  0  0  0
    5.5479   -7.6464    1.7158 H   0  0  0  0  0  0  0  0  0  0  0  0
    4.3797   -8.0119    0.4899 H   0  0  0  0  0  0  0  0  0  0  0  0
    1.9906   -8.6074    1.7191 H   0  0  0  0  0  0  0  0  0  0  0  0
    1.9006   -7.2144    0.7514 H   0  0  0  0  0  0  0  0  0  0  0  0
    1.2903   -7.1648    2.3930 H   0  0  0  0  0  0  0  0  0  0  0  0
    6.0980   -3.0821    2.6737 H   0  0  0  0  0  0  0  0  0  0  0  0
    3.2560   -2.2846    2.8617 H   0  0  0  0  0  0  0  0  0  0  0  0
    5.7781   -1.4306    4.3379 H   0  0  0  0  0  0  0  0  0  0  0  0
    4.6936   -2.6901    4.8950 H   0  0  0  0  0  0  0  0  0  0  0  0
    4.1337   -1.0349    4.7944 H   0  0  0  0  0  0  0  0  0  0  0  0
  1  2  1  0
  1 32  1  0
  1 33  1  0
  1 34  1  0
  2 30  1  0
  2  3  1  0
  2 35  1  1
  3  4  1  0
  3 36  1  0
  3 37  1  0
  4  5  1  0
  4 38  1  0
  4 39  1  0
  5 29  1  0
  5  6  1  1
  5  7  1  0
  6 40  1  0
  6 41  1  0
  6 42  1  0
  7  8  1  0
  7  9  1  0
  7 43  1  6
  8 44  1  0
  9 10  1  0
  9 45  1  0
  9 46  1  0
 10 27  1  0
 10 11  1  6
 10 12  1  0
 11 47  1  0
 11 48  1  0
 11 49  1  0
 12 13  1  0
 12 29  1  0
 12 50  1  1
 13 14  1  0
 13 51  1  0
 13 52  1  0
 14 15  1  0
 14 53  1  0
 14 54  1  0
 15 27  1  0
 15 16  1  0
 15 55  1  1
 16 24  1  0
 16 17  1  1
 16 18  1  0
 17 56  1  0
 17 57  1  0
 17 58  1  0
 18 19  1  0
 18 59  1  0
 18 60  1  0
 19 20  1  0
 19 61  1  0
 19 62  1  0
 20 21  1  0
 20 63  1  0
 20 64  1  0
 21 22  1  0
 21 23  1  0
 21 24  1  0
 22 65  1  0
 22 66  1  0
 22 67  1  0
 23 68  1  0
 23 69  1  0
 23 70  1  0
 24 25  1  0
 24 71  1  1
 25 26  1  0
 25 72  1  0
 25 73  1  0
 26 27  1  0
 26 74  1  0
 26 75  1  0
 27 28  1  1
 28 76  1  0
 28 77  1  0
 28 78  1  0
 29 30  1  0
 29 79  1  1
 30 31  1  0
 30 80  1  1
 31 81  1  0
 31 82  1  0
 31 83  1  0
M  END
>  <i_m_ct_stereo_status>  (212) 
1

>  <s_m_source_file>  (212) 
/var/tmp/pbs.5076255.sched01/tmp7qb2j_xu/82up84z1qn.sdf

>  <i_m_source_file_index>  (212) 
16

>  <i_lp_mmshare_version>  (212) 
48012

>  <i_f3d_flags>  (212) 
0

>  <s_epik_input>  (212) 
W0NIMl0xW0NIMl1bQ0BASF0oW0NIM10pW0NASF0oW0NIM10pW0NASF0oW0NAXTEyW0NIM10pW0NASF0zW0NAQF0oW0NIM10pKFtDSDJdW0NAQEhdMltPSF0pW0NAXTQoW0NIM10pW0NASF0oW0NIMl1bQ0gyXTMpW0NAQF01KFtDSDNdKVtDQEhdKFtDSDJdW0NIMl00KUMoW0NIM10pKFtDSDNdKVtDSDJdW0NIMl1bQ0gyXTU=

>  <s_epik_cmdline>  (212) 
J2VwaWtfcHl0aG9uJywgJy1waHQnLCAnMi4wJywgJy1waCcsICc3LjAnLCAnLXRuJywgJzgnLCAnLW1hJywgJzIwMCcsICctaW1hZScsICc8aW5maWxlLm1hZT4nLCAnLW9tYWUnLCAnPG91dGZpbGUubWFlPic=

>  <r_lp_tautomer_probability>  (212) 
1

>  <r_epik_Ionization_Penalty>  (212) 
2.66414e-06

>  <r_epik_Ionization_Penalty_Charging>  (212) 
0

>  <r_epik_Ionization_Penalty_Neutral>  (212) 
2.66414e-06

>  <r_epik_State_Penalty>  (212) 
-0

>  <r_epik_Charging_Adjusted_Penalty>  (212) 
0

>  <i_epik_Tot_Q>  (212) 
0

>  <i_epik_Tot_abs_Q>  (212) 
0

>  <s_lp_Force_Field>  (212) 
OPLS3e

>  <r_lp_Energy>  (212) 
118.53

>  <b_lp_Chiralities_Consistent>  (212) 
1

>  <s_lp_Variant>  (212) 
63:0-1

>  <s_i_glide_gridfile>  (212) 
pfpi4k_grid

>  <i_i_glide_lignum>  (212) 
16

>  <i_i_glide_rotatable_bonds>  (212) 
1

>  <r_i_docking_score>  (212) 
-3.28395

>  <r_i_glide_ligand_efficiency>  (212) 
-0.105934

>  <r_i_glide_ligand_efficiency_sa>  (212) 
-0.332778

>  <r_i_glide_ligand_efficiency_ln>  (212) 
-0.740631

>  <r_i_glide_gscore>  (212) 
-3.28395

>  <r_i_glide_lipo>  (212) 
-0.588561

>  <r_i_glide_hbond>  (212) 
-0.316645

>  <r_i_glide_metal>  (212) 
-0

>  <r_i_glide_rewards>  (212) 
-0.485909

>  <r_i_glide_evdw>  (212) 
-28.9905

>  <r_i_glide_ecoul>  (212) 
-2.95538

>  <r_i_glide_erotb>  (212) 
0

>  <r_i_glide_esite>  (212) 
0

>  <r_i_glide_emodel>  (212) 
-38.1044

>  <r_i_glide_energy>  (212) 
-31.9459

>  <r_i_glide_einternal>  (212) 
0.458034

>  <r_i_glide_intrahb_reward>  (212) 
-0

>  <i_i_glide_confnum>  (212) 
1

>  <i_i_glide_posenum>  (212) 
1

>  <r_i_glide_eff_state_penalty>  (212) 
0

>  <ligand_id>  (212) 
63

>  <original_smiles>  (212) 
CC1CCC2(C)C(O)CC3(C)C(CCC4C5(C)CCCC(C)(C)C5CCC43C)C2C1C

>  <smiles>  (212) 
[H]OC1([H])C([H])([H])C2(C([H])([H])[H])C([H])(C([H])([H])C([H])([H])C3([H])C4(C([H])([H])[H])C([H])([H])C([H])([H])C([H])([H])C(C([H])([H])[H])(C([H])([H])[H])C4([H])C([H])([H])C([H])([H])C32C([H])([H])[H])C2([H])C([H])(C([H])([H])[H])C([H])(C([H])([H])[H])C([H])([H])C([H])([H])C12C([H])([H])[H]

$$$$
63:0:1
     RDKit          3D

 83 87  0  0  1  0  0  0  0  0999 V2000
    4.0211   -2.1116   -3.4146 C   0  0  0  0  0  0  0  0  0  0  0  0
    3.5254   -1.9279   -1.9684 C   0  0  2  0  0  0  0  0  0  0  0  0
    4.5108   -1.0741   -1.1844 C   0  0  0  0  0  0  0  0  0  0  0  0
    4.0044   -0.8885    0.2438 C   0  0  0  0  0  0  0  0  0  0  0  0
    3.9842   -2.2002    1.0634 C   0  0  2  0  0  0  0  0  0  0  0  0
    3.2518   -1.8425    2.3871 C   0  0  0  0  0  0  0  0  0  0  0  0
    5.4295   -2.6800    1.3535 C   0  0  1  0  0  0  0  0  0  0  0  0
    6.1669   -1.7078    2.0750 O   0  0  0  0  0  0  0  0  0  0  0  0
    5.4610   -4.0017    2.1399 C   0  0  0  0  0  0  0  0  0  0  0  0
    4.8114   -5.2036    1.3996 C   0  0  2  0  0  0  0  0  0  0  0  0
    5.6591   -5.4568    0.1221 C   0  0  0  0  0  0  0  0  0  0  0  0
    3.3966   -4.7915    0.8490 C   0  0  1  0  0  0  0  0  0  0  0  0
    2.3052   -5.2250    1.8070 C   0  0  0  0  0  0  0  0  0  0  0  0
    2.2398   -6.7418    1.9528 C   0  0  0  0  0  0  0  0  0  0  0  0
    3.6001   -7.5026    1.9712 C   0  0  2  0  0  0  0  0  0  0  0  0
    3.4739   -8.8455    2.8183 C   0  0  2  0  0  0  0  0  0  0  0  0
    4.6466   -9.8025    2.4582 C   0  0  0  0  0  0  0  0  0  0  0  0
    2.1667   -9.6301    2.4599 C   0  0  0  0  0  0  0  0  0  0  0  0
    1.8472  -10.8114    3.3958 C   0  0  0  0  0  0  0  0  0  0  0  0
    1.8099  -10.3705    4.8637 C   0  0  0  0  0  0  0  0  0  0  0  0
    3.1067   -9.6658    5.3345 C   0  0  0  0  0  0  0  0  0  0  0  0
    2.8305   -9.1196    6.7517 C   0  0  0  0  0  0  0  0  0  0  0  0
    4.2483  -10.7014    5.4679 C   0  0  0  0  0  0  0  0  0  0  0  0
    3.4057   -8.4768    4.3462 C   0  0  1  0  0  0  0  0  0  0  0  0
    4.5387   -7.5148    4.7709 C   0  0  0  0  0  0  0  0  0  0  0  0
    4.6443   -6.2563    3.8762 C   0  0  0  0  0  0  0  0  0  0  0  0
    4.8003   -6.5326    2.3456 C   0  0  2  0  0  0  0  0  0  0  0  0
    6.2045   -7.1985    2.2022 C   0  0  0  0  0  0  0  0  0  0  0  0
    3.1838   -3.3132    0.3050 C   0  0  2  0  0  0  0  0  0  0  0  0
    3.1868   -3.2769   -1.2682 C   0  0  1  0  0  0  0  0  0  0  0  0
    1.8190   -3.7731   -1.7876 C   0  0  0  0  0  0  0  0  0  0  0  0
    4.9561   -2.6728   -3.4444 H   0  0  0  0  0  0  0  0  0  0  0  0
    4.1977   -1.1429   -3.8848 H   0  0  0  0  0  0  0  0  0  0  0  0
    3.2938   -2.6367   -4.0325 H   0  0  0  0  0  0  0  0  0  0  0  0
    2.6150   -1.3295   -2.0285 H   0  0  0  0  0  0  0  0  0  0  0  0
    5.5098   -1.5036   -1.2146 H   0  0  0  0  0  0  0  0  0  0  0  0
    4.5856   -0.1004   -1.6646 H   0  0  0  0  0  0  0  0  0  0  0  0
    4.5942   -0.1195    0.7423 H   0  0  0  0  0  0  0  0  0  0  0  0
    2.9930   -0.4830    0.1978 H   0  0  0  0  0  0  0  0  0  0  0  0
    3.1474   -2.6851    3.0635 H   0  0  0  0  0  0  0  0  0  0  0  0
    2.2451   -1.4698    2.1986 H   0  0  0  0  0  0  0  0  0  0  0  0
    3.7740   -1.0587    2.9349 H   0  0  0  0  0  0  0  0  0  0  0  0
    5.9793   -2.8112    0.4259 H   0  0  0  0  0  0  0  0  0  0  0  0
    6.2354   -0.9288    1.5384 H   0  0  0  0  0  0  0  0  0  0  0  0
    6.4971   -4.2396    2.3741 H   0  0  0  0  0  0  0  0  0  0  0  0
    4.9811   -3.8255    3.0987 H   0  0  0  0  0  0  0  0  0  0  0  0
    5.3091   -6.3496   -0.3929 H   0  0  0  0  0  0  0  0  0  0  0  0
    6.7241   -5.5644    0.3233 H   0  0  0  0  0  0  0  0  0  0  0  0
    5.6083   -4.6466   -0.5980 H   0  0  0  0  0  0  0  0  0  0  0  0
    3.2212   -5.4415   -0.0093 H   0  0  0  0  0  0  0  0  0  0  0  0
    2.3867   -4.7222    2.7666 H   0  0  0  0  0  0  0  0  0  0  0  0
    1.3588   -4.9373    1.3911 H   0  0  0  0  0  0  0  0  0  0  0  0
    1.6532   -6.9200    2.8502 H   0  0  0  0  0  0  0  0  0  0  0  0
    1.6469   -7.1468    1.1337 H   0  0  0  0  0  0  0  0  0  0  0  0
    3.7656   -7.7944    0.9334 H   0  0  0  0  0  0  0  0  0  0  0  0
    4.3516  -10.8476    2.4262 H   0  0  0  0  0  0  0  0  0  0  0  0
    5.4645   -9.7554    3.1703 H   0  0  0  0  0  0  0  0  0  0  0  0
    5.0443   -9.6089    1.4626 H   0  0  0  0  0  0  0  0  0  0  0  0
    1.2820   -9.0016    2.5097 H   0  0  0  0  0  0  0  0  0  0  0  0
    2.2135   -9.9798    1.4288 H   0  0  0  0  0  0  0  0  0  0  0  0
    0.8748  -11.2250    3.1335 H   0  0  0  0  0  0  0  0  0  0  0  0
    2.5455  -11.6356    3.2661 H   0  0  0  0  0  0  0  0  0  0  0  0
    0.9639   -9.6935    4.9970 H   0  0  0  0  0  0  0  0  0  0  0  0
    1.5987  -11.2307    5.5019 H   0  0  0  0  0  0  0  0  0  0  0  0
    3.7387   -8.7453    7.2274 H   0  0  0  0  0  0  0  0  0  0  0  0
    2.4365   -9.9037    7.4014 H   0  0  0  0  0  0  0  0  0  0  0  0
    2.0983   -8.3120    6.7345 H   0  0  0  0  0  0  0  0  0  0  0  0
    5.2122  -10.2269    5.6517 H   0  0  0  0  0  0  0  0  0  0  0  0
    4.3494  -11.3367    4.5927 H   0  0  0  0  0  0  0  0  0  0  0  0
    4.0573  -11.3804    6.3009 H   0  0  0  0  0  0  0  0  0  0  0  0
    2.5156   -7.8632    4.4679 H   0  0  0  0  0  0  0  0  0  0  0  0
    4.3481   -7.1571    5.7776 H   0  0  0  0  0  0  0  0  0  0  0  0
    5.4843   -8.0426    4.8368 H   0  0  0  0  0  0  0  0  0  0  0  0
    3.7687   -5.6462    4.0733 H   0  0  0  0  0  0  0  0  0  0  0  0
    5.4898   -5.6740    4.2406 H   0  0  0  0  0  0  0  0  0  0  0  0
    6.4390   -7.9251    2.9686 H   0  0  0  0  0  0  0  0  0  0  0  0
    7.0052   -6.4651    2.3018 H   0  0  0  0  0  0  0  0  0  0  0  0
    6.3279   -7.7082    1.2474 H   0  0  0  0  0  0  0  0  0  0  0  0
    2.1506   -3.0436    0.5232 H   0  0  0  0  0  0  0  0  0  0  0  0
    3.9344   -3.9813   -1.6261 H   0  0  0  0  0  0  0  0  0  0  0  0
    1.0130   -3.0808   -1.5550 H   0  0  0  0  0  0  0  0  0  0  0  0
    1.5347   -4.7343   -1.3653 H   0  0  0  0  0  0  0  0  0  0  0  0
    1.8233   -3.8928   -2.8690 H   0  0  0  0  0  0  0  0  0  0  0  0
  1  2  1  0
  1 32  1  0
  1 33  1  0
  1 34  1  0
  2 30  1  0
  2  3  1  0
  2 35  1  6
  3  4  1  0
  3 36  1  0
  3 37  1  0
  4  5  1  0
  4 38  1  0
  4 39  1  0
  5 29  1  0
  5  6  1  1
  5  7  1  0
  6 40  1  0
  6 41  1  0
  6 42  1  0
  7  8  1  0
  7  9  1  0
  7 43  1  6
  8 44  1  0
  9 10  1  0
  9 45  1  0
  9 46  1  0
 10 27  1  0
 10 11  1  6
 10 12  1  0
 11 47  1  0
 11 48  1  0
 11 49  1  0
 12 13  1  0
 12 29  1  0
 12 50  1  6
 13 14  1  0
 13 51  1  0
 13 52  1  0
 14 15  1  0
 14 53  1  0
 14 54  1  0
 15 27  1  0
 15 16  1  0
 15 55  1  6
 16 24  1  0
 16 17  1  1
 16 18  1  0
 17 56  1  0
 17 57  1  0
 17 58  1  0
 18 19  1  0
 18 59  1  0
 18 60  1  0
 19 20  1  0
 19 61  1  0
 19 62  1  0
 20 21  1  0
 20 63  1  0
 20 64  1  0
 21 22  1  0
 21 23  1  0
 21 24  1  0
 22 65  1  0
 22 66  1  0
 22 67  1  0
 23 68  1  0
 23 69  1  0
 23 70  1  0
 24 25  1  0
 24 71  1  6
 25 26  1  0
 25 72  1  0
 25 73  1  0
 26 27  1  0
 26 74  1  0
 26 75  1  0
 27 28  1  1
 28 76  1  0
 28 77  1  0
 28 78  1  0
 29 30  1  0
 29 79  1  1
 30 31  1  0
 30 80  1  6
 31 81  1  0
 31 82  1  0
 31 83  1  0
M  END
>  <i_m_ct_stereo_status>  (213) 
1

>  <s_m_source_file>  (213) 
/var/tmp/pbs.5076255.sched01/tmp7qb2j_xu/82up84z1qn.sdf

>  <i_m_source_file_index>  (213) 
16

>  <i_lp_mmshare_version>  (213) 
48012

>  <i_f3d_flags>  (213) 
0

>  <s_epik_input>  (213) 
W0NIMl0xW0NIMl1bQ0BASF0oW0NIM10pW0NASF0oW0NIM10pW0NASF0oW0NAXTEyW0NIM10pW0NASF0zW0NAQF0oW0NIM10pKFtDSDJdW0NAQEhdMltPSF0pW0NAXTQoW0NIM10pW0NASF0oW0NIMl1bQ0gyXTMpW0NAQF01KFtDSDNdKVtDQEhdKFtDSDJdW0NIMl00KUMoW0NIM10pKFtDSDNdKVtDSDJdW0NIMl1bQ0gyXTU=

>  <s_epik_cmdline>  (213) 
J2VwaWtfcHl0aG9uJywgJy1waHQnLCAnMi4wJywgJy1waCcsICc3LjAnLCAnLXRuJywgJzgnLCAnLW1hJywgJzIwMCcsICctaW1hZScsICc8aW5maWxlLm1hZT4nLCAnLW9tYWUnLCAnPG91dGZpbGUubWFlPic=

>  <r_lp_tautomer_probability>  (213) 
1

>  <r_epik_Ionization_Penalty>  (213) 
2.66414e-06

>  <r_epik_Ionization_Penalty_Charging>  (213) 
0

>  <r_epik_Ionization_Penalty_Neutral>  (213) 
2.66414e-06

>  <r_epik_State_Penalty>  (213) 
-0

>  <r_epik_Charging_Adjusted_Penalty>  (213) 
0

>  <i_epik_Tot_Q>  (213) 
0

>  <i_epik_Tot_abs_Q>  (213) 
0

>  <s_lp_Force_Field>  (213) 
OPLS3e

>  <r_lp_Energy>  (213) 
118.53

>  <b_lp_Chiralities_Consistent>  (213) 
1

>  <s_lp_Variant>  (213) 
63:0-1

>  <s_i_glide_gridfile>  (213) 
pfpi4k_grid

>  <i_i_glide_lignum>  (213) 
16

>  <i_i_glide_rotatable_bonds>  (213) 
1

>  <r_i_docking_score>  (213) 
-2.82592

>  <r_i_glide_ligand_efficiency>  (213) 
-0.0911587

>  <r_i_glide_ligand_efficiency_sa>  (213) 
-0.286364

>  <r_i_glide_ligand_efficiency_ln>  (213) 
-0.637332

>  <r_i_glide_gscore>  (213) 
-2.82592

>  <r_i_glide_lipo>  (213) 
-0.70129

>  <r_i_glide_hbond>  (213) 
0

>  <r_i_glide_metal>  (213) 
-0

>  <r_i_glide_rewards>  (213) 
-0.485909

>  <r_i_glide_evdw>  (213) 
-30.4341

>  <r_i_glide_ecoul>  (213) 
-0.78012

>  <r_i_glide_erotb>  (213) 
0

>  <r_i_glide_esite>  (213) 
0

>  <r_i_glide_emodel>  (213) 
-36.3773

>  <r_i_glide_energy>  (213) 
-31.2142

>  <r_i_glide_einternal>  (213) 
0.322726

>  <r_i_glide_intrahb_reward>  (213) 
-0

>  <i_i_glide_confnum>  (213) 
1

>  <i_i_glide_posenum>  (213) 
30

>  <r_i_glide_eff_state_penalty>  (213) 
0

>  <ligand_id>  (213) 
63

>  <original_smiles>  (213) 
CC1CCC2(C)C(O)CC3(C)C(CCC4C5(C)CCCC(C)(C)C5CCC43C)C2C1C

>  <smiles>  (213) 
[H]OC1([H])C([H])([H])C2(C([H])([H])[H])C([H])(C([H])([H])C([H])([H])C3([H])C4(C([H])([H])[H])C([H])([H])C([H])([H])C([H])([H])C(C([H])([H])[H])(C([H])([H])[H])C4([H])C([H])([H])C([H])([H])C32C([H])([H])[H])C2([H])C([H])(C([H])([H])[H])C([H])(C([H])([H])[H])C([H])([H])C([H])([H])C12C([H])([H])[H]

$$$$
63:0:2
     RDKit          3D

 83 87  0  0  1  0  0  0  0  0999 V2000
    4.0402   -2.0777   -3.4240 C   0  0  0  0  0  0  0  0  0  0  0  0
    3.5290   -1.8969   -1.9802 C   0  0  2  0  0  0  0  0  0  0  0  0
    4.5256   -1.0598   -1.1906 C   0  0  0  0  0  0  0  0  0  0  0  0
    4.0247   -0.8697    0.2364 C   0  0  0  0  0  0  0  0  0  0  0  0
    3.9875   -2.1816    1.0525 C   0  0  2  0  0  0  0  0  0  0  0  0
    3.2530   -1.8163    2.3742 C   0  0  0  0  0  0  0  0  0  0  0  0
    5.4266   -2.6768    1.3467 C   0  0  1  0  0  0  0  0  0  0  0  0
    6.1578   -1.6968    2.0566 O   0  0  0  0  0  0  0  0  0  0  0  0
    5.4404   -3.9997    2.1338 C   0  0  0  0  0  0  0  0  0  0  0  0
    4.7807   -5.1935    1.3843 C   0  0  2  0  0  0  0  0  0  0  0  0
    5.6301   -5.4554    0.1083 C   0  0  0  0  0  0  0  0  0  0  0  0
    3.3746   -4.7648    0.8285 C   0  0  1  0  0  0  0  0  0  0  0  0
    2.2774   -5.1893    1.7825 C   0  0  0  0  0  0  0  0  0  0  0  0
    2.1890   -6.7053    1.9234 C   0  0  0  0  0  0  0  0  0  0  0  0
    3.5383   -7.4823    1.9431 C   0  0  2  0  0  0  0  0  0  0  0  0
    3.3900   -8.8242    2.7868 C   0  0  2  0  0  0  0  0  0  0  0  0
    4.5527   -9.7941    2.4303 C   0  0  0  0  0  0  0  0  0  0  0  0
    2.0728   -9.5902    2.4213 C   0  0  0  0  0  0  0  0  0  0  0  0
    1.7353  -10.7722    3.3523 C   0  0  0  0  0  0  0  0  0  0  0  0
    1.6969  -10.3337    4.8217 C   0  0  0  0  0  0  0  0  0  0  0  0
    2.9987   -9.6446    5.2987 C   0  0  0  0  0  0  0  0  0  0  0  0
    2.7222   -9.0983    6.7173 C   0  0  0  0  0  0  0  0  0  0  0  0
    4.1278  -10.6967    5.4342 C   0  0  0  0  0  0  0  0  0  0  0  0
    3.3169   -8.4585    4.3153 C   0  0  1  0  0  0  0  0  0  0  0  0
    4.4588   -7.5124    4.7483 C   0  0  0  0  0  0  0  0  0  0  0  0
    4.5844   -6.2520    3.8570 C   0  0  0  0  0  0  0  0  0  0  0  0
    4.7468   -6.5274    2.3252 C   0  0  2  0  0  0  0  0  0  0  0  0
    6.1440   -7.2106    2.1887 C   0  0  0  0  0  0  0  0  0  0  0  0
    3.1751   -3.2850    0.2866 C   0  0  2  0  0  0  0  0  0  0  0  0
    3.1883   -3.2438   -1.2882 C   0  0  1  0  0  0  0  0  0  0  0  0
    1.8191   -3.7331   -1.8252 C   0  0  0  0  0  0  0  0  0  0  0  0
    4.9696   -2.6492   -3.4457 H   0  0  0  0  0  0  0  0  0  0  0  0
    4.2388   -1.1112   -3.8901 H   0  0  0  0  0  0  0  0  0  0  0  0
    3.3170   -2.5935   -4.0555 H   0  0  0  0  0  0  0  0  0  0  0  0
    2.6168   -1.3018   -2.0413 H   0  0  0  0  0  0  0  0  0  0  0  0
    5.5195   -1.5026   -1.2196 H   0  0  0  0  0  0  0  0  0  0  0  0
    4.6154   -0.0845   -1.6670 H   0  0  0  0  0  0  0  0  0  0  0  0
    4.6313   -0.1138    0.7348 H   0  0  0  0  0  0  0  0  0  0  0  0
    3.0202   -0.4483    0.1895 H   0  0  0  0  0  0  0  0  0  0  0  0
    3.1338   -2.6596    3.0487 H   0  0  0  0  0  0  0  0  0  0  0  0
    2.2506   -1.4320    2.1799 H   0  0  0  0  0  0  0  0  0  0  0  0
    3.7759   -1.0351    2.9265 H   0  0  0  0  0  0  0  0  0  0  0  0
    5.9716   -2.8200    0.4190 H   0  0  0  0  0  0  0  0  0  0  0  0
    5.7117   -1.5320    2.8734 H   0  0  0  0  0  0  0  0  0  0  0  0
    6.4729   -4.2511    2.3743 H   0  0  0  0  0  0  0  0  0  0  0  0
    4.9532   -3.8288    3.0900 H   0  0  0  0  0  0  0  0  0  0  0  0
    5.2723   -6.3413   -0.4137 H   0  0  0  0  0  0  0  0  0  0  0  0
    6.6938   -5.5774    0.3137 H   0  0  0  0  0  0  0  0  0  0  0  0
    5.5922   -4.6428   -0.6087 H   0  0  0  0  0  0  0  0  0  0  0  0
    3.1941   -5.4086   -0.0338 H   0  0  0  0  0  0  0  0  0  0  0  0
    2.3551   -4.6872    2.7456 H   0  0  0  0  0  0  0  0  0  0  0  0
    1.3401   -4.8909    1.3570 H   0  0  0  0  0  0  0  0  0  0  0  0
    1.5901   -6.8766    2.8133 H   0  0  0  0  0  0  0  0  0  0  0  0
    1.5923   -7.0964    1.0989 H   0  0  0  0  0  0  0  0  0  0  0  0
    3.7033   -7.7730    0.9053 H   0  0  0  0  0  0  0  0  0  0  0  0
    4.2449  -10.8358    2.3923 H   0  0  0  0  0  0  0  0  0  0  0  0
    5.3663   -9.7594    3.1485 H   0  0  0  0  0  0  0  0  0  0  0  0
    4.9599   -9.6008    1.4386 H   0  0  0  0  0  0  0  0  0  0  0  0
    1.1952   -8.9502    2.4728 H   0  0  0  0  0  0  0  0  0  0  0  0
    2.1183   -9.9336    1.3874 H   0  0  0  0  0  0  0  0  0  0  0  0
    0.7582  -11.1737    3.0831 H   0  0  0  0  0  0  0  0  0  0  0  0
    2.4245  -11.6036    3.2217 H   0  0  0  0  0  0  0  0  0  0  0  0
    0.8588   -9.6481    4.9506 H   0  0  0  0  0  0  0  0  0  0  0  0
    1.4706  -11.1929    5.4552 H   0  0  0  0  0  0  0  0  0  0  0  0
    3.6323   -8.7367    7.1974 H   0  0  0  0  0  0  0  0  0  0  0  0
    2.3130   -9.8783    7.3622 H   0  0  0  0  0  0  0  0  0  0  0  0
    2.0010   -8.2817    6.6953 H   0  0  0  0  0  0  0  0  0  0  0  0
    5.0996  -10.2358    5.6226 H   0  0  0  0  0  0  0  0  0  0  0  0
    4.2264  -11.3323    4.5550 H   0  0  0  0  0  0  0  0  0  0  0  0
    3.9248  -11.3795    6.2645 H   0  0  0  0  0  0  0  0  0  0  0  0
    2.4339   -7.8369    4.4344 H   0  0  0  0  0  0  0  0  0  0  0  0
    4.2689   -7.1539    5.7571 H   0  0  0  0  0  0  0  0  0  0  0  0
    5.4002   -8.0496    4.8174 H   0  0  0  0  0  0  0  0  0  0  0  0
    3.7130   -5.6328    4.0498 H   0  0  0  0  0  0  0  0  0  0  0  0
    5.4335   -5.6797    4.2291 H   0  0  0  0  0  0  0  0  0  0  0  0
    6.3636   -7.9415    2.9548 H   0  0  0  0  0  0  0  0  0  0  0  0
    6.9519   -6.4854    2.2934 H   0  0  0  0  0  0  0  0  0  0  0  0
    6.2645   -7.7189    1.2317 H   0  0  0  0  0  0  0  0  0  0  0  0
    2.1462   -3.0029    0.5006 H   0  0  0  0  0  0  0  0  0  0  0  0
    3.9305   -3.9477   -1.6449 H   0  0  0  0  0  0  0  0  0  0  0  0
    1.0078   -3.0554   -1.5912 H   0  0  0  0  0  0  0  0  0  0  0  0
    1.5281   -4.6889   -1.4082 H   0  0  0  0  0  0  0  0  0  0  0  0
    1.8322   -3.8448   -2.9071 H   0  0  0  0  0  0  0  0  0  0  0  0
  1  2  1  0
  1 32  1  0
  1 33  1  0
  1 34  1  0
  2 30  1  0
  2  3  1  0
  2 35  1  6
  3  4  1  0
  3 36  1  0
  3 37  1  0
  4  5  1  0
  4 38  1  0
  4 39  1  0
  5 29  1  0
  5  6  1  1
  5  7  1  0
  6 40  1  0
  6 41  1  0
  6 42  1  0
  7  8  1  0
  7  9  1  0
  7 43  1  6
  8 44  1  0
  9 10  1  0
  9 45  1  0
  9 46  1  0
 10 27  1  0
 10 11  1  6
 10 12  1  0
 11 47  1  0
 11 48  1  0
 11 49  1  0
 12 13  1  0
 12 29  1  0
 12 50  1  6
 13 14  1  0
 13 51  1  0
 13 52  1  0
 14 15  1  0
 14 53  1  0
 14 54  1  0
 15 27  1  0
 15 16  1  0
 15 55  1  6
 16 24  1  0
 16 17  1  1
 16 18  1  0
 17 56  1  0
 17 57  1  0
 17 58  1  0
 18 19  1  0
 18 59  1  0
 18 60  1  0
 19 20  1  0
 19 61  1  0
 19 62  1  0
 20 21  1  0
 20 63  1  0
 20 64  1  0
 21 22  1  0
 21 23  1  0
 21 24  1  0
 22 65  1  0
 22 66  1  0
 22 67  1  0
 23 68  1  0
 23 69  1  0
 23 70  1  0
 24 25  1  0
 24 71  1  6
 25 26  1  0
 25 72  1  0
 25 73  1  0
 26 27  1  0
 26 74  1  0
 26 75  1  0
 27 28  1  1
 28 76  1  0
 28 77  1  0
 28 78  1  0
 29 30  1  0
 29 79  1  1
 30 31  1  0
 30 80  1  6
 31 81  1  0
 31 82  1  0
 31 83  1  0
M  END
>  <i_m_ct_stereo_status>  (214) 
1

>  <s_m_source_file>  (214) 
/var/tmp/pbs.5076255.sched01/tmp7qb2j_xu/82up84z1qn.sdf

>  <i_m_source_file_index>  (214) 
16

>  <i_lp_mmshare_version>  (214) 
48012

>  <i_f3d_flags>  (214) 
0

>  <s_epik_input>  (214) 
W0NIMl0xW0NIMl1bQ0BASF0oW0NIM10pW0NASF0oW0NIM10pW0NASF0oW0NAXTEyW0NIM10pW0NASF0zW0NAQF0oW0NIM10pKFtDSDJdW0NAQEhdMltPSF0pW0NAXTQoW0NIM10pW0NASF0oW0NIMl1bQ0gyXTMpW0NAQF01KFtDSDNdKVtDQEhdKFtDSDJdW0NIMl00KUMoW0NIM10pKFtDSDNdKVtDSDJdW0NIMl1bQ0gyXTU=

>  <s_epik_cmdline>  (214) 
J2VwaWtfcHl0aG9uJywgJy1waHQnLCAnMi4wJywgJy1waCcsICc3LjAnLCAnLXRuJywgJzgnLCAnLW1hJywgJzIwMCcsICctaW1hZScsICc8aW5maWxlLm1hZT4nLCAnLW9tYWUnLCAnPG91dGZpbGUubWFlPic=

>  <r_lp_tautomer_probability>  (214) 
1

>  <r_epik_Ionization_Penalty>  (214) 
2.66414e-06

>  <r_epik_Ionization_Penalty_Charging>  (214) 
0

>  <r_epik_Ionization_Penalty_Neutral>  (214) 
2.66414e-06

>  <r_epik_State_Penalty>  (214) 
-0

>  <r_epik_Charging_Adjusted_Penalty>  (214) 
0

>  <i_epik_Tot_Q>  (214) 
0

>  <i_epik_Tot_abs_Q>  (214) 
0

>  <s_lp_Force_Field>  (214) 
OPLS3e

>  <r_lp_Energy>  (214) 
118.53

>  <b_lp_Chiralities_Consistent>  (214) 
1

>  <s_lp_Variant>  (214) 
63:0-1

>  <s_i_glide_gridfile>  (214) 
pfpi4k_grid

>  <i_i_glide_lignum>  (214) 
16

>  <i_i_glide_rotatable_bonds>  (214) 
1

>  <r_i_docking_score>  (214) 
-2.76435

>  <r_i_glide_ligand_efficiency>  (214) 
-0.0891725

>  <r_i_glide_ligand_efficiency_sa>  (214) 
-0.280125

>  <r_i_glide_ligand_efficiency_ln>  (214) 
-0.623445

>  <r_i_glide_gscore>  (214) 
-2.76435

>  <r_i_glide_lipo>  (214) 
-0.719329

>  <r_i_glide_hbond>  (214) 
0

>  <r_i_glide_metal>  (214) 
-0

>  <r_i_glide_rewards>  (214) 
-0.485909

>  <r_i_glide_evdw>  (214) 
-30.6272

>  <r_i_glide_ecoul>  (214) 
-0.185

>  <r_i_glide_erotb>  (214) 
0

>  <r_i_glide_esite>  (214) 
0

>  <r_i_glide_emodel>  (214) 
-35.9967

>  <r_i_glide_energy>  (214) 
-30.8122

>  <r_i_glide_einternal>  (214) 
0.0200683

>  <r_i_glide_intrahb_reward>  (214) 
-0

>  <i_i_glide_confnum>  (214) 
2

>  <i_i_glide_posenum>  (214) 
9

>  <r_i_glide_eff_state_penalty>  (214) 
0

>  <ligand_id>  (214) 
63

>  <original_smiles>  (214) 
CC1CCC2(C)C(O)CC3(C)C(CCC4C5(C)CCCC(C)(C)C5CCC43C)C2C1C

>  <smiles>  (214) 
[H]OC1([H])C([H])([H])C2(C([H])([H])[H])C([H])(C([H])([H])C([H])([H])C3([H])C4(C([H])([H])[H])C([H])([H])C([H])([H])C([H])([H])C(C([H])([H])[H])(C([H])([H])[H])C4([H])C([H])([H])C([H])([H])C32C([H])([H])[H])C2([H])C([H])(C([H])([H])[H])C([H])(C([H])([H])[H])C([H])([H])C([H])([H])C12C([H])([H])[H]

$$$$
64:0:0
     RDKit          3D

 62 70  0  0  1  0  0  0  0  0999 V2000
    1.7753   -4.2539    3.8662 C   0  0  0  0  0  0  0  0  0  0  0  0
    3.0951   -4.3296    3.0516 C   0  0  2  0  0  0  0  0  0  0  0  0
    4.2445   -4.4113    4.1547 C   0  0  1  0  0  0  0  0  0  0  0  0
    4.1893   -5.6200    4.8863 O   0  0  0  0  0  0  0  0  0  0  0  0
    5.7435   -4.1326    3.8112 C   0  0  0  0  0  0  0  0  0  0  0  0
    6.1549   -4.6280    2.4330 C   0  0  1  0  0  0  0  0  0  0  0  0
    7.3696   -4.5447    1.6592 C   0  0  0  0  0  0  0  0  0  0  0  0
    8.1343   -3.7685    0.8422 C   0  0  0  0  0  0  0  0  0  0  0  0
    7.7148   -2.4191    0.3582 C   0  0  0  0  0  0  0  0  0  0  0  0
    8.5425   -1.5233    0.1909 O   0  0  0  0  0  0  0  0  0  0  0  0
    6.2508   -2.0962    0.0473 C   0  0  2  0  0  0  0  0  0  0  0  0
    5.8216   -0.7946    0.4759 O   0  0  0  0  0  0  0  0  0  0  0  0
    5.4595   -1.8729    1.3202 C   0  0  1  0  0  0  0  0  0  0  0  0
    4.1612   -2.5967    1.2084 C   0  0  2  0  0  0  0  0  0  0  0  0
    3.0534   -1.8885    0.5240 C   0  0  2  0  0  0  0  0  0  0  0  0
    2.1411   -2.7673    1.2521 O   0  0  0  0  0  0  0  0  0  0  0  0
    3.1649   -2.9399    2.2897 C   0  0  1  0  0  0  0  0  0  0  0  0
    3.1778   -1.8916   -1.0188 C   0  0  1  0  0  0  0  0  0  0  0  0
    3.9420   -0.7249   -1.3699 O   0  0  0  0  0  0  0  0  0  0  0  0
    4.9983   -1.2023   -2.2048 C   0  0  2  0  0  0  0  0  0  0  0  0
    4.3066   -2.2699   -3.0231 C   0  0  0  0  0  0  0  0  0  0  0  0
    4.0186   -2.5180   -4.1905 O   0  0  0  0  0  0  0  0  0  0  0  0
    4.1804   -2.8659   -1.6242 C   0  0  1  0  0  0  0  0  0  0  0  0
    5.6691   -2.3858   -1.4167 C   0  0  2  0  0  0  0  0  0  0  0  0
    6.7069   -3.2777   -2.1253 C   0  0  0  0  0  0  0  0  0  0  0  0
    7.1146   -5.8657    2.3013 C   0  0  2  0  0  0  0  0  0  0  0  0
    6.4858   -7.0788    1.5973 C   0  0  0  0  0  0  0  0  0  0  0  0
    4.9826   -6.9401    1.2323 C   0  0  0  0  0  0  0  0  0  0  0  0
    4.6012   -7.0812    0.0809 O   0  0  0  0  0  0  0  0  0  0  0  0
    4.1967   -6.5286    2.2772 O   0  0  0  0  0  0  0  0  0  0  0  0
    3.0915   -5.6132    2.0690 C   0  0  1  0  0  0  0  0  0  0  0  0
    1.8016   -6.4033    1.9999 C   0  0  0  0  0  0  0  0  0  0  0  0
    0.9681   -6.5562    0.8490 C   0  0  0  0  0  0  0  0  0  0  0  0
   -0.0656   -7.3493    1.2282 C   0  0  0  0  0  0  0  0  0  0  0  0
    0.0564   -7.7316    2.5198 O   0  0  0  0  0  0  0  0  0  0  0  0
    1.2091   -7.1732    2.9565 C   0  0  0  0  0  0  0  0  0  0  0  0
    1.6390   -5.1165    4.5145 H   0  0  0  0  0  0  0  0  0  0  0  0
    0.9051   -4.1745    3.2175 H   0  0  0  0  0  0  0  0  0  0  0  0
    1.7527   -3.3870    4.5209 H   0  0  0  0  0  0  0  0  0  0  0  0
    4.0131   -3.6580    4.9041 H   0  0  0  0  0  0  0  0  0  0  0  0
    4.4247   -6.3279    4.2977 H   0  0  0  0  0  0  0  0  0  0  0  0
    5.8851   -3.0643    3.8874 H   0  0  0  0  0  0  0  0  0  0  0  0
    6.3917   -4.5873    4.5647 H   0  0  0  0  0  0  0  0  0  0  0  0
    5.3586   -4.5571    1.7636 H   0  0  0  0  0  0  0  0  0  0  0  0
    9.0656   -4.1492    0.4521 H   0  0  0  0  0  0  0  0  0  0  0  0
    5.9398   -1.7905    2.2850 H   0  0  0  0  0  0  0  0  0  0  0  0
    4.2489   -3.4882    0.6150 H   0  0  0  0  0  0  0  0  0  0  0  0
    2.9564   -0.8708    0.8967 H   0  0  0  0  0  0  0  0  0  0  0  0
    3.1296   -2.1101    2.9979 H   0  0  0  0  0  0  0  0  0  0  0  0
    2.2520   -1.9526   -1.5883 H   0  0  0  0  0  0  0  0  0  0  0  0
    5.6538   -0.4914   -2.6996 H   0  0  0  0  0  0  0  0  0  0  0  0
    3.9669   -3.9353   -1.5778 H   0  0  0  0  0  0  0  0  0  0  0  0
    6.4115   -3.6888   -3.0919 H   0  0  0  0  0  0  0  0  0  0  0  0
    6.8050   -4.1119   -1.4469 H   0  0  0  0  0  0  0  0  0  0  0  0
    7.6756   -2.7955   -2.2712 H   0  0  0  0  0  0  0  0  0  0  0  0
    7.7195   -6.1413    3.1700 H   0  0  0  0  0  0  0  0  0  0  0  0
    7.0675   -7.2703    0.6970 H   0  0  0  0  0  0  0  0  0  0  0  0
    6.6021   -7.9476    2.2385 H   0  0  0  0  0  0  0  0  0  0  0  0
    3.1844   -5.2261    1.0538 H   0  0  0  0  0  0  0  0  0  0  0  0
    1.1349   -6.1551   -0.1421 H   0  0  0  0  0  0  0  0  0  0  0  0
   -0.9111   -7.7867    0.7060 H   0  0  0  0  0  0  0  0  0  0  0  0
    1.4508   -7.4113    3.9828 H   0  0  0  0  0  0  0  0  0  0  0  0
  2  1  1  1
  1 37  1  0
  1 38  1  0
  1 39  1  0
  2 17  1  0
  2 31  1  0
  2  3  1  0
  3  4  1  0
  3  5  1  0
  3 40  1  1
  4 41  1  0
  5  6  1  0
  5 42  1  0
  5 43  1  0
  6 26  1  0
  6  7  1  0
  6 44  1  6
  7  8  2  3
  7 26  1  0
  8  9  1  0
  8 45  1  0
  9 10  2  0
  9 11  1  0
 11 13  1  0
 11 24  1  0
 11 12  1  6
 12 13  1  0
 13 14  1  0
 13 46  1  1
 14 17  1  0
 14 15  1  0
 14 47  1  6
 15 16  1  0
 15 18  1  0
 15 48  1  1
 16 17  1  0
 17 49  1  1
 18 23  1  0
 18 19  1  0
 18 50  1  6
 19 20  1  0
 20 24  1  0
 20 21  1  0
 20 51  1  6
 21 22  2  0
 21 23  1  0
 23 24  1  0
 23 52  1  6
 24 25  1  6
 25 53  1  0
 25 54  1  0
 25 55  1  0
 26 27  1  0
 26 56  1  1
 27 28  1  0
 27 57  1  0
 27 58  1  0
 28 29  2  0
 28 30  1  0
 30 31  1  0
 31 32  1  0
 31 59  1  6
 32 36  2  0
 32 33  1  0
 33 34  2  0
 33 60  1  0
 34 35  1  0
 34 61  1  0
 35 36  1  0
 36 62  1  0
M  END
>  <i_m_ct_stereo_status>  (215) 
1

>  <s_m_source_file>  (215) 
/var/tmp/pbs.5076255.sched01/tmp7qb2j_xu/82up84z1qn.sdf

>  <i_m_source_file_index>  (215) 
17

>  <i_lp_mmshare_version>  (215) 
48012

>  <i_f3d_flags>  (215) 
0

>  <s_epik_input>  (215) 
Tz1DMVtDQEBIXShPMilbQ0BdMyhbQ0gzXSlbQ0BIXTFbQ0BIXTJbQ0BIXShbQ0BIXTRbQ0BASF0oW0NAXTM1NilPNilPW0NASF00W0NAXTcoW0NIM10pW0NAQEhdKFtPSF0pW0NIMl1bQ0hdOC9DKD1bQ0hdXEM1PU8pW0NIXThbQ0gyXUMoPU8pT1tDQEhdN2M5W2NIXVtjSF1vW2NIXTk=

>  <s_epik_cmdline>  (215) 
J2VwaWtfcHl0aG9uJywgJy1waHQnLCAnMi4wJywgJy1waCcsICc3LjAnLCAnLXRuJywgJzgnLCAnLW1hJywgJzIwMCcsICctaW1hZScsICc8aW5maWxlLm1hZT4nLCAnLW9tYWUnLCAnPG91dGZpbGUubWFlPic=

>  <r_lp_tautomer_probability>  (215) 
1

>  <r_epik_Ionization_Penalty>  (215) 
4.63503e-08

>  <r_epik_Ionization_Penalty_Charging>  (215) 
0

>  <r_epik_Ionization_Penalty_Neutral>  (215) 
4.63503e-08

>  <r_epik_State_Penalty>  (215) 
-0

>  <r_epik_Charging_Adjusted_Penalty>  (215) 
0

>  <i_epik_Tot_Q>  (215) 
0

>  <i_epik_Tot_abs_Q>  (215) 
0

>  <s_epik_Chemistry_Notes>  (215) 
This compound has an ester and may undergo hydrolysis at high or low pH.

>  <s_lp_Force_Field>  (215) 
OPLS3e

>  <r_lp_Energy>  (215) 
124.431

>  <b_lp_Chiralities_Consistent>  (215) 
1

>  <s_lp_Variant>  (215) 
64:0-1

>  <s_i_glide_gridfile>  (215) 
pfpi4k_grid

>  <i_i_glide_lignum>  (215) 
17

>  <i_i_glide_rotatable_bonds>  (215) 
2

>  <r_i_docking_score>  (215) 
-3.23907

>  <r_i_glide_ligand_efficiency>  (215) 
-0.0899742

>  <r_i_glide_ligand_efficiency_sa>  (215) 
-0.297088

>  <r_i_glide_ligand_efficiency_ln>  (215) 
-0.706678

>  <r_i_glide_gscore>  (215) 
-3.23907

>  <r_i_glide_lipo>  (215) 
-0.535051

>  <r_i_glide_hbond>  (215) 
-0.357826

>  <r_i_glide_metal>  (215) 
-0

>  <r_i_glide_rewards>  (215) 
-1.09214

>  <r_i_glide_evdw>  (215) 
-22.0478

>  <r_i_glide_ecoul>  (215) 
-1.56672

>  <r_i_glide_erotb>  (215) 
0.083342

>  <r_i_glide_esite>  (215) 
0

>  <r_i_glide_emodel>  (215) 
-33.9399

>  <r_i_glide_energy>  (215) 
-23.6146

>  <r_i_glide_einternal>  (215) 
0.370537

>  <r_i_glide_intrahb_reward>  (215) 
-0.5

>  <i_i_glide_confnum>  (215) 
3

>  <i_i_glide_posenum>  (215) 
15

>  <r_i_glide_eff_state_penalty>  (215) 
0

>  <ligand_id>  (215) 
64

>  <original_smiles>  (215) 
CC12C(O)CC3C(=CC(=O)C45OC4C4C(OC41)C1OC4C(=O)C1C45C)C3CC(=O)OC2c1ccoc1

>  <smiles>  (215) 
[H]OC1([H])C([H])([H])C2([H])C3=C([H])C(=O)C45OC4([H])C4([H])C([H])(OC4([H])C1(C([H])([H])[H])C([H])(c1c([H])oc([H])c1[H])OC(=O)C([H])([H])C32[H])C1([H])OC2([H])C(=O)C1([H])C25C([H])([H])[H]

$$$$
64:0:1
     RDKit          3D

 62 70  0  0  1  0  0  0  0  0999 V2000
    2.7425   -4.2441    0.8829 C   0  0  0  0  0  0  0  0  0  0  0  0
    3.2639   -5.4478    1.7144 C   0  0  2  0  0  0  0  0  0  0  0  0
    4.3924   -6.1230    0.7962 C   0  0  1  0  0  0  0  0  0  0  0  0
    5.5061   -5.2603    0.6315 O   0  0  0  0  0  0  0  0  0  0  0  0
    4.9417   -7.5689    1.0713 C   0  0  0  0  0  0  0  0  0  0  0  0
    5.0597   -7.8899    2.5419 C   0  0  1  0  0  0  0  0  0  0  0  0
    5.4302   -9.1092    3.2363 C   0  0  0  0  0  0  0  0  0  0  0  0
    5.0219  -10.3039    3.7097 C   0  0  0  0  0  0  0  0  0  0  0  0
    3.6208  -10.8139    3.6040 C   0  0  0  0  0  0  0  0  0  0  0  0
    3.4057  -12.0155    3.4726 O   0  0  0  0  0  0  0  0  0  0  0  0
    2.4218   -9.8567    3.6906 C   0  0  2  0  0  0  0  0  0  0  0  0
    1.3709  -10.1085    2.7464 O   0  0  0  0  0  0  0  0  0  0  0  0
    2.2497   -9.0522    2.4061 C   0  0  1  0  0  0  0  0  0  0  0  0
    1.9623   -7.6219    2.7388 C   0  0  2  0  0  0  0  0  0  0  0  0
    0.5390   -7.2729    2.9925 C   0  0  2  0  0  0  0  0  0  0  0  0
    0.8654   -5.8867    2.6266 O   0  0  0  0  0  0  0  0  0  0  0  0
    2.0043   -6.4048    1.8374 C   0  0  1  0  0  0  0  0  0  0  0  0
    0.0509   -7.6923    4.3982 C   0  0  1  0  0  0  0  0  0  0  0  0
   -0.4601   -9.0349    4.2953 O   0  0  0  0  0  0  0  0  0  0  0  0
    0.2424   -9.7980    5.2994 C   0  0  2  0  0  0  0  0  0  0  0  0
    0.2921   -8.8170    6.4500 C   0  0  0  0  0  0  0  0  0  0  0  0
   -0.1143   -8.6857    7.6039 O   0  0  0  0  0  0  0  0  0  0  0  0
    1.1376   -8.0781    5.4218 C   0  0  1  0  0  0  0  0  0  0  0  0
    1.7908   -9.4984    5.1221 C   0  0  2  0  0  0  0  0  0  0  0  0
    2.7940   -9.9988    6.2242 C   0  0  0  0  0  0  0  0  0  0  0  0
    6.4667   -8.0070    3.2239 C   0  0  2  0  0  0  0  0  0  0  0  0
    6.7009   -6.9754    4.3555 C   0  0  0  0  0  0  0  0  0  0  0  0
    5.5934   -5.9074    4.5543 C   0  0  0  0  0  0  0  0  0  0  0  0
    5.0715   -5.7280    5.6518 O   0  0  0  0  0  0  0  0  0  0  0  0
    5.2106   -5.2955    3.3880 O   0  0  0  0  0  0  0  0  0  0  0  0
    3.8295   -4.9433    3.1428 C   0  0  1  0  0  0  0  0  0  0  0  0
    3.6161   -3.4782    3.4770 C   0  0  0  0  0  0  0  0  0  0  0  0
    2.4254   -2.8760    3.9779 C   0  0  0  0  0  0  0  0  0  0  0  0
    2.7000   -1.5480    4.1514 C   0  0  0  0  0  0  0  0  0  0  0  0
    3.9837   -1.2750    3.8046 O   0  0  0  0  0  0  0  0  0  0  0  0
    4.5232   -2.4534    3.3973 C   0  0  0  0  0  0  0  0  0  0  0  0
    3.5208   -3.5093    0.6777 H   0  0  0  0  0  0  0  0  0  0  0  0
    1.9275   -3.7260    1.3877 H   0  0  0  0  0  0  0  0  0  0  0  0
    2.3479   -4.5663   -0.0811 H   0  0  0  0  0  0  0  0  0  0  0  0
    3.9820   -6.1877   -0.2113 H   0  0  0  0  0  0  0  0  0  0  0  0
    5.9384   -5.1715    1.4706 H   0  0  0  0  0  0  0  0  0  0  0  0
    4.3227   -8.3013    0.5662 H   0  0  0  0  0  0  0  0  0  0  0  0
    5.9213   -7.6880    0.6186 H   0  0  0  0  0  0  0  0  0  0  0  0
    4.2950   -7.4313    3.0889 H   0  0  0  0  0  0  0  0  0  0  0  0
    5.7057  -10.9132    4.2819 H   0  0  0  0  0  0  0  0  0  0  0  0
    2.8103   -9.2908    1.5105 H   0  0  0  0  0  0  0  0  0  0  0  0
    2.4593   -7.3282    3.6500 H   0  0  0  0  0  0  0  0  0  0  0  0
   -0.1084   -7.7082    2.2278 H   0  0  0  0  0  0  0  0  0  0  0  0
    1.6587   -6.7029    0.8424 H   0  0  0  0  0  0  0  0  0  0  0  0
   -0.7108   -7.0165    4.7986 H   0  0  0  0  0  0  0  0  0  0  0  0
   -0.0600  -10.8225    5.5122 H   0  0  0  0  0  0  0  0  0  0  0  0
    1.7924   -7.3006    5.8154 H   0  0  0  0  0  0  0  0  0  0  0  0
    2.5131   -9.7543    7.2505 H   0  0  0  0  0  0  0  0  0  0  0  0
    3.7818   -9.5548    6.0978 H   0  0  0  0  0  0  0  0  0  0  0  0
    2.9103  -11.0843    6.2170 H   0  0  0  0  0  0  0  0  0  0  0  0
    7.3400   -8.1461    2.5862 H   0  0  0  0  0  0  0  0  0  0  0  0
    6.8636   -7.5043    5.2963 H   0  0  0  0  0  0  0  0  0  0  0  0
    7.6256   -6.4423    4.1397 H   0  0  0  0  0  0  0  0  0  0  0  0
    3.2328   -5.4379    3.9088 H   0  0  0  0  0  0  0  0  0  0  0  0
    1.4822   -3.3562    4.1898 H   0  0  0  0  0  0  0  0  0  0  0  0
    2.1287   -0.7009    4.5010 H   0  0  0  0  0  0  0  0  0  0  0  0
    5.5594   -2.3937    3.0982 H   0  0  0  0  0  0  0  0  0  0  0  0
  2  1  1  6
  1 37  1  0
  1 38  1  0
  1 39  1  0
  2 17  1  0
  2 31  1  0
  2  3  1  0
  3  4  1  0
  3  5  1  0
  3 40  1  6
  4 41  1  0
  5  6  1  0
  5 42  1  0
  5 43  1  0
  6 26  1  0
  6  7  1  0
  6 44  1  1
  7  8  2  3
  7 26  1  0
  8  9  1  0
  8 45  1  0
  9 10  2  0
  9 11  1  0
 11 13  1  0
 11 24  1  0
 11 12  1  6
 12 13  1  0
 13 14  1  0
 13 46  1  6
 14 17  1  0
 14 15  1  0
 14 47  1  1
 15 16  1  0
 15 18  1  0
 15 48  1  6
 16 17  1  0
 17 49  1  6
 18 23  1  0
 18 19  1  0
 18 50  1  1
 19 20  1  0
 20 24  1  0
 20 21  1  0
 20 51  1  1
 21 22  2  0
 21 23  1  0
 23 24  1  0
 23 52  1  1
 24 25  1  1
 25 53  1  0
 25 54  1  0
 25 55  1  0
 26 27  1  0
 26 56  1  6
 27 28  1  0
 27 57  1  0
 27 58  1  0
 28 29  2  0
 28 30  1  0
 30 31  1  0
 31 32  1  0
 31 59  1  1
 32 36  2  0
 32 33  1  0
 33 34  2  0
 33 60  1  0
 34 35  1  0
 34 61  1  0
 35 36  1  0
 36 62  1  0
M  END
>  <i_m_ct_stereo_status>  (216) 
1

>  <s_m_source_file>  (216) 
/var/tmp/pbs.5076255.sched01/tmp7qb2j_xu/82up84z1qn.sdf

>  <i_m_source_file_index>  (216) 
17

>  <i_lp_mmshare_version>  (216) 
48012

>  <i_f3d_flags>  (216) 
0

>  <s_epik_input>  (216) 
Tz1DMVtDQEBIXShPMilbQ0BdMyhbQ0gzXSlbQ0BIXTFbQ0BIXTJbQ0BIXShbQ0BIXTRbQ0BASF0oW0NAXTM1NilPNilPW0NASF00W0NAXTcoW0NIM10pW0NAQEhdKFtPSF0pW0NIMl1bQ0hdOC9DKD1bQ0hdXEM1PU8pW0NIXThbQ0gyXUMoPU8pT1tDQEhdN2M5W2NIXVtjSF1vW2NIXTk=

>  <s_epik_cmdline>  (216) 
J2VwaWtfcHl0aG9uJywgJy1waHQnLCAnMi4wJywgJy1waCcsICc3LjAnLCAnLXRuJywgJzgnLCAnLW1hJywgJzIwMCcsICctaW1hZScsICc8aW5maWxlLm1hZT4nLCAnLW9tYWUnLCAnPG91dGZpbGUubWFlPic=

>  <r_lp_tautomer_probability>  (216) 
1

>  <r_epik_Ionization_Penalty>  (216) 
4.63503e-08

>  <r_epik_Ionization_Penalty_Charging>  (216) 
0

>  <r_epik_Ionization_Penalty_Neutral>  (216) 
4.63503e-08

>  <r_epik_State_Penalty>  (216) 
-0

>  <r_epik_Charging_Adjusted_Penalty>  (216) 
0

>  <i_epik_Tot_Q>  (216) 
0

>  <i_epik_Tot_abs_Q>  (216) 
0

>  <s_epik_Chemistry_Notes>  (216) 
This compound has an ester and may undergo hydrolysis at high or low pH.

>  <s_lp_Force_Field>  (216) 
OPLS3e

>  <r_lp_Energy>  (216) 
124.431

>  <b_lp_Chiralities_Consistent>  (216) 
1

>  <s_lp_Variant>  (216) 
64:0-1

>  <s_i_glide_gridfile>  (216) 
pfpi4k_grid

>  <i_i_glide_lignum>  (216) 
17

>  <i_i_glide_rotatable_bonds>  (216) 
2

>  <r_i_docking_score>  (216) 
-2.01588

>  <r_i_glide_ligand_efficiency>  (216) 
-0.0559968

>  <r_i_glide_ligand_efficiency_sa>  (216) 
-0.184897

>  <r_i_glide_ligand_efficiency_ln>  (216) 
-0.439811

>  <r_i_glide_gscore>  (216) 
-2.01588

>  <r_i_glide_lipo>  (216) 
-0.229928

>  <r_i_glide_hbond>  (216) 
-0.0010461

>  <r_i_glide_metal>  (216) 
-0

>  <r_i_glide_rewards>  (216) 
-0.537569

>  <r_i_glide_evdw>  (216) 
-24.1554

>  <r_i_glide_ecoul>  (216) 
-0.344114

>  <r_i_glide_erotb>  (216) 
0.083342

>  <r_i_glide_esite>  (216) 
-0.0712949

>  <r_i_glide_emodel>  (216) 
-33.5086

>  <r_i_glide_energy>  (216) 
-24.4995

>  <r_i_glide_einternal>  (216) 
0.0181833

>  <r_i_glide_intrahb_reward>  (216) 
-0.5

>  <i_i_glide_confnum>  (216) 
3

>  <i_i_glide_posenum>  (216) 
2

>  <r_i_glide_eff_state_penalty>  (216) 
0

>  <ligand_id>  (216) 
64

>  <original_smiles>  (216) 
CC12C(O)CC3C(=CC(=O)C45OC4C4C(OC41)C1OC4C(=O)C1C45C)C3CC(=O)OC2c1ccoc1

>  <smiles>  (216) 
[H]OC1([H])C([H])([H])C2([H])C3=C([H])C(=O)C45OC4([H])C4([H])C([H])(OC4([H])C1(C([H])([H])[H])C([H])(c1c([H])oc([H])c1[H])OC(=O)C([H])([H])C32[H])C1([H])OC2([H])C(=O)C1([H])C25C([H])([H])[H]

$$$$
64:0:2
     RDKit          3D

 62 70  0  0  1  0  0  0  0  0999 V2000
    1.7649   -5.2260    5.9217 C   0  0  0  0  0  0  0  0  0  0  0  0
    2.7908   -5.4812    4.7845 C   0  0  2  0  0  0  0  0  0  0  0  0
    4.1266   -5.9426    5.5442 C   0  0  1  0  0  0  0  0  0  0  0  0
    3.9490   -7.2023    6.1696 O   0  0  0  0  0  0  0  0  0  0  0  0
    5.5438   -5.9358    4.8616 C   0  0  0  0  0  0  0  0  0  0  0  0
    5.4914   -6.3247    3.4018 C   0  0  1  0  0  0  0  0  0  0  0  0
    6.5106   -6.3783    2.3827 C   0  0  0  0  0  0  0  0  0  0  0  0
    7.2023   -5.6907    1.4474 C   0  0  0  0  0  0  0  0  0  0  0  0
    7.0010   -4.2365    1.1506 C   0  0  0  0  0  0  0  0  0  0  0  0
    7.9504   -3.5233    0.8071 O   0  0  0  0  0  0  0  0  0  0  0  0
    5.6100   -3.5942    1.2591 C   0  0  2  0  0  0  0  0  0  0  0  0
    5.6015   -2.3039    1.8931 O   0  0  0  0  0  0  0  0  0  0  0  0
    5.1848   -3.3877    2.7032 C   0  0  1  0  0  0  0  0  0  0  0  0
    3.7649   -3.7904    2.8723 C   0  0  2  0  0  0  0  0  0  0  0  0
    2.7461   -2.7665    2.5681 C   0  0  2  0  0  0  0  0  0  0  0  0
    1.8174   -3.5248    3.4116 O   0  0  0  0  0  0  0  0  0  0  0  0
    2.9857   -4.0528    4.1365 C   0  0  1  0  0  0  0  0  0  0  0  0
    2.5112   -2.5533    1.0678 C   0  0  1  0  0  0  0  0  0  0  0  0
    3.4361   -1.5520    0.6041 O   0  0  0  0  0  0  0  0  0  0  0  0
    4.1329   -2.1541   -0.5120 C   0  0  2  0  0  0  0  0  0  0  0  0
    3.0397   -2.9389   -1.2124 C   0  0  0  0  0  0  0  0  0  0  0  0
    2.4778   -3.0035   -2.3073 O   0  0  0  0  0  0  0  0  0  0  0  0
    3.0697   -3.6462    0.1300 C   0  0  1  0  0  0  0  0  0  0  0  0
    4.6471   -3.5692   -0.0195 C   0  0  2  0  0  0  0  0  0  0  0  0
    5.2531   -4.5671   -1.0679 C   0  0  0  0  0  0  0  0  0  0  0  0
    6.0725   -7.7090    2.9198 C   0  0  2  0  0  0  0  0  0  0  0  0
    5.0155   -8.6422    2.2854 C   0  0  0  0  0  0  0  0  0  0  0  0
    3.5475   -8.1461    2.3361 C   0  0  0  0  0  0  0  0  0  0  0  0
    2.8743   -8.0572    1.3143 O   0  0  0  0  0  0  0  0  0  0  0  0
    3.1459   -7.7304    3.5827 O   0  0  0  0  0  0  0  0  0  0  0  0
    2.2572   -6.5955    3.7396 C   0  0  1  0  0  0  0  0  0  0  0  0
    0.8300   -7.0909    3.9213 C   0  0  0  0  0  0  0  0  0  0  0  0
   -0.2089   -7.0501    2.9290 C   0  0  0  0  0  0  0  0  0  0  0  0
   -1.3096   -7.6043    3.5040 C   0  0  0  0  0  0  0  0  0  0  0  0
   -1.0413   -8.0148    4.7651 O   0  0  0  0  0  0  0  0  0  0  0  0
    0.2671   -7.7351    4.9763 C   0  0  0  0  0  0  0  0  0  0  0  0
    1.6057   -6.1026    6.5430 H   0  0  0  0  0  0  0  0  0  0  0  0
    0.8060   -4.8976    5.5245 H   0  0  0  0  0  0  0  0  0  0  0  0
    2.1014   -4.4576    6.6134 H   0  0  0  0  0  0  0  0  0  0  0  0
    4.2515   -5.2709    6.3914 H   0  0  0  0  0  0  0  0  0  0  0  0
    3.8209   -7.8574    5.4938 H   0  0  0  0  0  0  0  0  0  0  0  0
    6.0016   -4.9599    4.9711 H   0  0  0  0  0  0  0  0  0  0  0  0
    6.2230   -6.6125    5.3819 H   0  0  0  0  0  0  0  0  0  0  0  0
    4.5977   -5.9996    2.9611 H   0  0  0  0  0  0  0  0  0  0  0  0
    7.8947   -6.2168    0.8054 H   0  0  0  0  0  0  0  0  0  0  0  0
    5.8369   -3.5194    3.5435 H   0  0  0  0  0  0  0  0  0  0  0  0
    3.5030   -4.5917    2.2116 H   0  0  0  0  0  0  0  0  0  0  0  0
    2.9936   -1.8217    3.0454 H   0  0  0  0  0  0  0  0  0  0  0  0
    3.3234   -3.3362    4.8836 H   0  0  0  0  0  0  0  0  0  0  0  0
    1.4840   -2.2569    0.8707 H   0  0  0  0  0  0  0  0  0  0  0  0
    4.8224   -1.5660   -1.1190 H   0  0  0  0  0  0  0  0  0  0  0  0
    2.6362   -4.6439    0.1469 H   0  0  0  0  0  0  0  0  0  0  0  0
    4.6556   -4.7037   -1.9652 H   0  0  0  0  0  0  0  0  0  0  0  0
    5.3731   -5.5685   -0.6549 H   0  0  0  0  0  0  0  0  0  0  0  0
    6.2149   -4.2173   -1.4332 H   0  0  0  0  0  0  0  0  0  0  0  0
    6.7509   -8.2329    3.5913 H   0  0  0  0  0  0  0  0  0  0  0  0
    5.2962   -8.8416    1.2531 H   0  0  0  0  0  0  0  0  0  0  0  0
    5.0577   -9.5965    2.8062 H   0  0  0  0  0  0  0  0  0  0  0  0
    2.2025   -6.1011    2.7691 H   0  0  0  0  0  0  0  0  0  0  0  0
   -0.1447   -6.6795    1.9186 H   0  0  0  0  0  0  0  0  0  0  0  0
   -2.3204   -7.8119    3.1763 H   0  0  0  0  0  0  0  0  0  0  0  0
    0.6215   -8.0447    5.9538 H   0  0  0  0  0  0  0  0  0  0  0  0
  2  1  1  1
  1 37  1  0
  1 38  1  0
  1 39  1  0
  2 17  1  0
  2 31  1  0
  2  3  1  0
  3  4  1  0
  3  5  1  0
  3 40  1  1
  4 41  1  0
  5  6  1  0
  5 42  1  0
  5 43  1  0
  6 26  1  0
  6  7  1  0
  6 44  1  6
  7  8  2  3
  7 26  1  0
  8  9  1  0
  8 45  1  0
  9 10  2  0
  9 11  1  0
 11 13  1  0
 11 24  1  0
 11 12  1  6
 12 13  1  0
 13 14  1  0
 13 46  1  1
 14 17  1  0
 14 15  1  0
 14 47  1  6
 15 16  1  0
 15 18  1  0
 15 48  1  1
 16 17  1  0
 17 49  1  1
 18 23  1  0
 18 19  1  0
 18 50  1  1
 19 20  1  0
 20 24  1  0
 20 21  1  0
 20 51  1  6
 21 22  2  0
 21 23  1  0
 23 24  1  0
 23 52  1  6
 24 25  1  6
 25 53  1  0
 25 54  1  0
 25 55  1  0
 26 27  1  0
 26 56  1  1
 27 28  1  0
 27 57  1  0
 27 58  1  0
 28 29  2  0
 28 30  1  0
 30 31  1  0
 31 32  1  0
 31 59  1  6
 32 36  2  0
 32 33  1  0
 33 34  2  0
 33 60  1  0
 34 35  1  0
 34 61  1  0
 35 36  1  0
 36 62  1  0
M  END
>  <i_m_ct_stereo_status>  (217) 
1

>  <s_m_source_file>  (217) 
/var/tmp/pbs.5076255.sched01/tmp7qb2j_xu/82up84z1qn.sdf

>  <i_m_source_file_index>  (217) 
17

>  <i_lp_mmshare_version>  (217) 
48012

>  <i_f3d_flags>  (217) 
0

>  <s_epik_input>  (217) 
Tz1DMVtDQEBIXShPMilbQ0BdMyhbQ0gzXSlbQ0BIXTFbQ0BIXTJbQ0BIXShbQ0BIXTRbQ0BASF0oW0NAXTM1NilPNilPW0NASF00W0NAXTcoW0NIM10pW0NAQEhdKFtPSF0pW0NIMl1bQ0hdOC9DKD1bQ0hdXEM1PU8pW0NIXThbQ0gyXUMoPU8pT1tDQEhdN2M5W2NIXVtjSF1vW2NIXTk=

>  <s_epik_cmdline>  (217) 
J2VwaWtfcHl0aG9uJywgJy1waHQnLCAnMi4wJywgJy1waCcsICc3LjAnLCAnLXRuJywgJzgnLCAnLW1hJywgJzIwMCcsICctaW1hZScsICc8aW5maWxlLm1hZT4nLCAnLW9tYWUnLCAnPG91dGZpbGUubWFlPic=

>  <r_lp_tautomer_probability>  (217) 
1

>  <r_epik_Ionization_Penalty>  (217) 
4.63503e-08

>  <r_epik_Ionization_Penalty_Charging>  (217) 
0

>  <r_epik_Ionization_Penalty_Neutral>  (217) 
4.63503e-08

>  <r_epik_State_Penalty>  (217) 
-0

>  <r_epik_Charging_Adjusted_Penalty>  (217) 
0

>  <i_epik_Tot_Q>  (217) 
0

>  <i_epik_Tot_abs_Q>  (217) 
0

>  <s_epik_Chemistry_Notes>  (217) 
This compound has an ester and may undergo hydrolysis at high or low pH.

>  <s_lp_Force_Field>  (217) 
OPLS3e

>  <r_lp_Energy>  (217) 
124.431

>  <b_lp_Chiralities_Consistent>  (217) 
1

>  <s_lp_Variant>  (217) 
64:0-1

>  <s_i_glide_gridfile>  (217) 
pfpi4k_grid

>  <i_i_glide_lignum>  (217) 
17

>  <i_i_glide_rotatable_bonds>  (217) 
2

>  <r_i_docking_score>  (217) 
-1.93926

>  <r_i_glide_ligand_efficiency>  (217) 
-0.0538682

>  <r_i_glide_ligand_efficiency_sa>  (217) 
-0.177869

>  <r_i_glide_ligand_efficiency_ln>  (217) 
-0.423093

>  <r_i_glide_gscore>  (217) 
-1.93926

>  <r_i_glide_lipo>  (217) 
-0.260205

>  <r_i_glide_hbond>  (217) 
0

>  <r_i_glide_metal>  (217) 
-0

>  <r_i_glide_rewards>  (217) 
-0.690444

>  <r_i_glide_evdw>  (217) 
-26.4823

>  <r_i_glide_ecoul>  (217) 
1.80727

>  <r_i_glide_erotb>  (217) 
0.083342

>  <r_i_glide_esite>  (217) 
-0.0189244

>  <r_i_glide_emodel>  (217) 
-32.9471

>  <r_i_glide_energy>  (217) 
-24.675

>  <r_i_glide_einternal>  (217) 
0.690217

>  <r_i_glide_intrahb_reward>  (217) 
-0.5

>  <i_i_glide_confnum>  (217) 
1

>  <i_i_glide_posenum>  (217) 
5

>  <r_i_glide_eff_state_penalty>  (217) 
0

>  <ligand_id>  (217) 
64

>  <original_smiles>  (217) 
CC12C(O)CC3C(=CC(=O)C45OC4C4C(OC41)C1OC4C(=O)C1C45C)C3CC(=O)OC2c1ccoc1

>  <smiles>  (217) 
[H]OC1([H])C([H])([H])C2([H])C3=C([H])C(=O)C45OC4([H])C4([H])C([H])(OC4([H])C1(C([H])([H])[H])C([H])(c1c([H])oc([H])c1[H])OC(=O)C([H])([H])C32[H])C1([H])OC2([H])C(=O)C1([H])C25C([H])([H])[H]

$$$$
64:1:0
     RDKit          3D

 62 70  0  0  1  0  0  0  0  0999 V2000
    4.6047   -8.6884    4.2755 C   0  0  0  0  0  0  0  0  0  0  0  0
    4.0983   -7.3692    3.6252 C   0  0  2  0  0  0  0  0  0  0  0  0
    5.1123   -7.0907    2.4025 C   0  0  1  0  0  0  0  0  0  0  0  0
    5.0000   -8.0945    1.4045 O   0  0  0  0  0  0  0  0  0  0  0  0
    5.2119   -5.6879    1.6725 C   0  0  0  0  0  0  0  0  0  0  0  0
    3.8749   -4.9610    1.5413 C   0  0  1  0  0  0  0  0  0  0  0  0
    3.4527   -3.6097    1.0372 C   0  0  0  0  0  0  0  0  0  0  0  0
    3.3467   -2.3137    1.4182 C   0  0  0  0  0  0  0  0  0  0  0  0
    3.5741   -1.6013    2.6985 C   0  0  0  0  0  0  0  0  0  0  0  0
    4.1033   -0.4889    2.7715 O   0  0  0  0  0  0  0  0  0  0  0  0
    3.3546   -2.4488    4.0257 C   0  0  2  0  0  0  0  0  0  0  0  0
    4.4097   -2.4305    4.9952 O   0  0  0  0  0  0  0  0  0  0  0  0
    4.3748   -3.6002    4.2047 C   0  0  1  0  0  0  0  0  0  0  0  0
    3.7247   -4.8677    4.6778 C   0  0  2  0  0  0  0  0  0  0  0  0
    3.4582   -4.9775    6.1394 C   0  0  2  0  0  0  0  0  0  0  0  0
    3.4490   -6.4371    5.9750 O   0  0  0  0  0  0  0  0  0  0  0  0
    4.2878   -6.2823    4.7671 C   0  0  1  0  0  0  0  0  0  0  0  0
    2.2306   -4.1448    6.5811 C   0  0  1  0  0  0  0  0  0  0  0  0
    2.6863   -2.8224    6.9274 O   0  0  0  0  0  0  0  0  0  0  0  0
    1.8783   -1.9121    6.1652 C   0  0  2  0  0  0  0  0  0  0  0  0
    0.5301   -2.5777    6.2490 C   0  0  0  0  0  0  0  0  0  0  0  0
   -0.5938   -2.3654    6.7176 O   0  0  0  0  0  0  0  0  0  0  0  0
    1.2902   -3.6452    5.4773 C   0  0  1  0  0  0  0  0  0  0  0  0
    1.9091   -2.4092    4.6522 C   0  0  2  0  0  0  0  0  0  0  0  0
    0.9306   -1.7820    3.6042 C   0  0  0  0  0  0  0  0  0  0  0  0
    3.1614   -4.8376    0.1622 C   0  0  2  0  0  0  0  0  0  0  0  0
    1.8121   -5.5878    0.0755 C   0  0  0  0  0  0  0  0  0  0  0  0
    1.3742   -6.4359    1.2950 C   0  0  0  0  0  0  0  0  0  0  0  0
    0.2738   -6.2547    1.8197 O   0  0  0  0  0  0  0  0  0  0  0  0
    2.3546   -7.2798    1.7459 O   0  0  0  0  0  0  0  0  0  0  0  0
    2.5573   -7.5298    3.1515 C   0  0  1  0  0  0  0  0  0  0  0  0
    1.8543   -8.8230    3.5313 C   0  0  0  0  0  0  0  0  0  0  0  0
    1.8280  -10.0350    2.7611 C   0  0  0  0  0  0  0  0  0  0  0  0
    1.0831  -10.9274    3.4546 C   0  0  0  0  0  0  0  0  0  0  0  0
    0.6229  -10.3813    4.6106 O   0  0  0  0  0  0  0  0  0  0  0  0
    1.1071   -9.1059    4.6292 C   0  0  0  0  0  0  0  0  0  0  0  0
    4.5869   -9.5325    3.5856 H   0  0  0  0  0  0  0  0  0  0  0  0
    4.0086   -8.9604    5.1465 H   0  0  0  0  0  0  0  0  0  0  0  0
    5.6327   -8.5955    4.6304 H   0  0  0  0  0  0  0  0  0  0  0  0
    6.1237   -7.2502    2.7911 H   0  0  0  0  0  0  0  0  0  0  0  0
    4.1032   -8.1237    1.1065 H   0  0  0  0  0  0  0  0  0  0  0  0
    5.9180   -5.0745    2.2203 H   0  0  0  0  0  0  0  0  0  0  0  0
    5.6790   -5.8042    0.6921 H   0  0  0  0  0  0  0  0  0  0  0  0
    3.2635   -5.2160    2.3545 H   0  0  0  0  0  0  0  0  0  0  0  0
    4.1684   -2.6266    1.9749 H   0  0  0  0  0  0  0  0  0  0  0  0
    5.2882   -3.7252    3.6416 H   0  0  0  0  0  0  0  0  0  0  0  0
    2.7563   -4.9675    4.2173 H   0  0  0  0  0  0  0  0  0  0  0  0
    4.3245   -4.7026    6.7505 H   0  0  0  0  0  0  0  0  0  0  0  0
    5.3413   -6.2427    5.0621 H   0  0  0  0  0  0  0  0  0  0  0  0
    1.7021   -4.5939    7.4235 H   0  0  0  0  0  0  0  0  0  0  0  0
    1.9693   -0.8467    6.3652 H   0  0  0  0  0  0  0  0  0  0  0  0
    0.6671   -4.3740    4.9582 H   0  0  0  0  0  0  0  0  0  0  0  0
   -0.1052   -1.7189    3.9115 H   0  0  0  0  0  0  0  0  0  0  0  0
    0.9092   -2.3515    2.6679 H   0  0  0  0  0  0  0  0  0  0  0  0
    1.2129   -0.7548    3.3531 H   0  0  0  0  0  0  0  0  0  0  0  0
    3.7967   -4.9834   -0.7156 H   0  0  0  0  0  0  0  0  0  0  0  0
    1.0523   -4.8593   -0.1719 H   0  0  0  0  0  0  0  0  0  0  0  0
    1.8169   -6.2567   -0.7760 H   0  0  0  0  0  0  0  0  0  0  0  0
    1.9910   -6.7736    3.6915 H   0  0  0  0  0  0  0  0  0  0  0  0
    2.3117  -10.2003    1.8114 H   0  0  0  0  0  0  0  0  0  0  0  0
    0.7899  -11.9626    3.2827 H   0  0  0  0  0  0  0  0  0  0  0  0
    0.8125   -8.5401    5.5115 H   0  0  0  0  0  0  0  0  0  0  0  0
  2  1  1  1
  1 37  1  0
  1 38  1  0
  1 39  1  0
  2 17  1  0
  2 31  1  0
  2  3  1  0
  3  4  1  0
  3  5  1  0
  3 40  1  1
  4 41  1  0
  5  6  1  0
  5 42  1  0
  5 43  1  0
  6 26  1  0
  6  7  1  0
  6 44  1  1
  7  8  2  3
  7 26  1  0
  8  9  1  0
  8 45  1  0
  9 10  2  0
  9 11  1  0
 11 13  1  0
 11 24  1  0
 11 12  1  1
 12 13  1  0
 13 14  1  0
 13 46  1  6
 14 17  1  0
 14 15  1  0
 14 47  1  6
 15 16  1  0
 15 18  1  0
 15 48  1  1
 16 17  1  0
 17 49  1  1
 18 23  1  0
 18 19  1  0
 18 50  1  1
 19 20  1  0
 20 24  1  0
 20 21  1  0
 20 51  1  6
 21 22  2  0
 21 23  1  0
 23 24  1  0
 23 52  1  6
 24 25  1  6
 25 53  1  0
 25 54  1  0
 25 55  1  0
 26 27  1  0
 26 56  1  6
 27 28  1  0
 27 57  1  0
 27 58  1  0
 28 29  2  0
 28 30  1  0
 30 31  1  0
 31 32  1  0
 31 59  1  1
 32 36  2  0
 32 33  1  0
 33 34  2  0
 33 60  1  0
 34 35  1  0
 34 61  1  0
 35 36  1  0
 36 62  1  0
M  END
>  <i_m_ct_stereo_status>  (218) 
1

>  <s_m_source_file>  (218) 
/var/tmp/pbs.5076255.sched01/tmp7qb2j_xu/82up84z1qn.sdf

>  <i_m_source_file_index>  (218) 
18

>  <i_lp_mmshare_version>  (218) 
48012

>  <i_f3d_flags>  (218) 
0

>  <s_epik_input>  (218) 
Tz1DMVtDQEBIXShPMilbQ0BdMyhbQ0gzXSlbQ0BIXTFbQ0BIXTJbQ0BIXShbQ0BIXTRbQ0BASF0oW0NAXTM1NilPNilPW0NASF00W0NAXTcoW0NIM10pW0NAQEhdKFtPSF0pW0NIMl1bQ0hdOC9DKD1bQ0hdXEM1PU8pW0NIXThbQ0gyXUMoPU8pT1tDQEhdN2M5W2NIXVtjSF1vW2NIXTk=

>  <s_epik_cmdline>  (218) 
J2VwaWtfcHl0aG9uJywgJy1waHQnLCAnMi4wJywgJy1waCcsICc3LjAnLCAnLXRuJywgJzgnLCAnLW1hJywgJzIwMCcsICctaW1hZScsICc8aW5maWxlLm1hZT4nLCAnLW9tYWUnLCAnPG91dGZpbGUubWFlPic=

>  <r_lp_tautomer_probability>  (218) 
1

>  <r_epik_Ionization_Penalty>  (218) 
4.63503e-08

>  <r_epik_Ionization_Penalty_Charging>  (218) 
0

>  <r_epik_Ionization_Penalty_Neutral>  (218) 
4.63503e-08

>  <r_epik_State_Penalty>  (218) 
-0

>  <r_epik_Charging_Adjusted_Penalty>  (218) 
0

>  <i_epik_Tot_Q>  (218) 
0

>  <i_epik_Tot_abs_Q>  (218) 
0

>  <s_epik_Chemistry_Notes>  (218) 
This compound has an ester and may undergo hydrolysis at high or low pH.

>  <s_lp_Force_Field>  (218) 
OPLS3e

>  <r_lp_Energy>  (218) 
125.225

>  <b_lp_Chiralities_Consistent>  (218) 
1

>  <s_lp_Variant>  (218) 
64:0-2

>  <s_i_glide_gridfile>  (218) 
pfpi4k_grid

>  <i_i_glide_lignum>  (218) 
18

>  <i_i_glide_rotatable_bonds>  (218) 
2

>  <r_i_docking_score>  (218) 
0.557197

>  <r_i_glide_ligand_efficiency>  (218) 
0.0154777

>  <r_i_glide_ligand_efficiency_sa>  (218) 
0.0511062

>  <r_i_glide_ligand_efficiency_ln>  (218) 
0.121565

>  <r_i_glide_gscore>  (218) 
0.557197

>  <r_i_glide_lipo>  (218) 
-0.352407

>  <r_i_glide_hbond>  (218) 
-0.252812

>  <r_i_glide_metal>  (218) 
-0

>  <r_i_glide_rewards>  (218) 
-0.537569

>  <r_i_glide_evdw>  (218) 
-22.6671

>  <r_i_glide_ecoul>  (218) 
-4.60229

>  <r_i_glide_erotb>  (218) 
0.083342

>  <r_i_glide_esite>  (218) 
-0.0768797

>  <r_i_glide_emodel>  (218) 
-19.9023

>  <r_i_glide_energy>  (218) 
-27.2694

>  <r_i_glide_einternal>  (218) 
0.118771

>  <r_i_glide_intrahb_reward>  (218) 
-0.5

>  <i_i_glide_confnum>  (218) 
3

>  <i_i_glide_posenum>  (218) 
28

>  <r_i_glide_eff_state_penalty>  (218) 
0

>  <ligand_id>  (218) 
64

>  <original_smiles>  (218) 
CC12C(O)CC3C(=CC(=O)C45OC4C4C(OC41)C1OC4C(=O)C1C45C)C3CC(=O)OC2c1ccoc1

>  <smiles>  (218) 
[H]OC1([H])C([H])([H])C2([H])C3=C([H])C(=O)C45OC4([H])C4([H])C([H])(OC4([H])C1(C([H])([H])[H])C([H])(c1c([H])oc([H])c1[H])OC(=O)C([H])([H])C32[H])C1([H])OC2([H])C(=O)C1([H])C25C([H])([H])[H]

$$$$
64:1:1
     RDKit          3D

 62 70  0  0  1  0  0  0  0  0999 V2000
    3.8926   -8.5379    5.1105 C   0  0  0  0  0  0  0  0  0  0  0  0
    3.8876   -7.2207    4.2817 C   0  0  2  0  0  0  0  0  0  0  0  0
    5.3672   -7.1251    3.6466 C   0  0  1  0  0  0  0  0  0  0  0  0
    5.6013   -8.1816    2.7241 O   0  0  0  0  0  0  0  0  0  0  0  0
    5.9451   -5.7913    3.0204 C   0  0  0  0  0  0  0  0  0  0  0  0
    4.9005   -4.9498    2.2871 C   0  0  1  0  0  0  0  0  0  0  0  0
    4.9146   -3.6067    1.6337 C   0  0  0  0  0  0  0  0  0  0  0  0
    4.8107   -2.2757    1.9055 C   0  0  0  0  0  0  0  0  0  0  0  0
    4.5167   -1.5126    3.1362 C   0  0  0  0  0  0  0  0  0  0  0  0
    5.0881   -0.4321    3.4326 O   0  0  0  0  0  0  0  0  0  0  0  0
    3.6234   -2.2423    4.2398 C   0  0  2  0  0  0  0  0  0  0  0  0
    4.1304   -2.2595    5.5778 O   0  0  0  0  0  0  0  0  0  0  0  0
    4.3153   -3.4747    4.8771 C   0  0  1  0  0  0  0  0  0  0  0  0
    3.3768   -4.6337    5.0184 C   0  0  2  0  0  0  0  0  0  0  0  0
    2.4777   -4.6185    6.2069 C   0  0  2  0  0  0  0  0  0  0  0  0
    2.3737   -6.0792    6.0776 O   0  0  0  0  0  0  0  0  0  0  0  0
    3.6742   -6.0863    5.3733 C   0  0  1  0  0  0  0  0  0  0  0  0
    1.2890   -3.6414    6.0337 C   0  0  1  0  0  0  0  0  0  0  0  0
    1.6914   -2.3482    6.5297 O   0  0  0  0  0  0  0  0  0  0  0  0
    1.4257   -1.4175    5.4695 C   0  0  2  0  0  0  0  0  0  0  0  0
    0.1081   -1.9371    4.9479 C   0  0  0  0  0  0  0  0  0  0  0  0
   -1.0703   -1.5925    4.8746 O   0  0  0  0  0  0  0  0  0  0  0  0
    1.0058   -3.1255    4.6168 C   0  0  1  0  0  0  0  0  0  0  0  0
    2.0664   -2.0178    4.1448 C   0  0  2  0  0  0  0  0  0  0  0  0
    1.7411   -1.3623    2.7556 C   0  0  0  0  0  0  0  0  0  0  0  0
    4.8982   -4.8397    0.7356 C   0  0  2  0  0  0  0  0  0  0  0  0
    3.6514   -5.4539    0.0513 C   0  0  0  0  0  0  0  0  0  0  0  0
    2.6154   -6.1696    0.9606 C   0  0  0  0  0  0  0  0  0  0  0  0
    1.4190   -5.8690    0.9346 O   0  0  0  0  0  0  0  0  0  0  0  0
    3.1807   -7.0766    1.8123 O   0  0  0  0  0  0  0  0  0  0  0  0
    2.7110   -7.2579    3.1664 C   0  0  1  0  0  0  0  0  0  0  0  0
    1.7756   -8.4557    3.1993 C   0  0  0  0  0  0  0  0  0  0  0  0
    2.0000   -9.7303    2.6228 C   0  0  0  0  0  0  0  0  0  0  0  0
    0.8939  -10.4995    2.8806 C   0  0  0  0  0  0  0  0  0  0  0  0
   -0.0197   -9.7781    3.5757 O   0  0  0  0  0  0  0  0  0  0  0  0
    0.5209   -8.5451    3.7692 C   0  0  0  0  0  0  0  0  0  0  0  0
    4.0838   -9.4214    4.5023 H   0  0  0  0  0  0  0  0  0  0  0  0
    2.9427   -8.6929    5.6223 H   0  0  0  0  0  0  0  0  0  0  0  0
    4.6562   -8.5240    5.8905 H   0  0  0  0  0  0  0  0  0  0  0  0
    6.0706   -7.3553    4.4542 H   0  0  0  0  0  0  0  0  0  0  0  0
    5.3791   -9.0069    3.1291 H   0  0  0  0  0  0  0  0  0  0  0  0
    6.3970   -5.2138    3.8167 H   0  0  0  0  0  0  0  0  0  0  0  0
    6.7823   -6.0140    2.3560 H   0  0  0  0  0  0  0  0  0  0  0  0
    3.9649   -5.0837    2.7423 H   0  0  0  0  0  0  0  0  0  0  0  0
    5.2099   -2.5851    2.7614 H   0  0  0  0  0  0  0  0  0  0  0  0
    5.3629   -3.7201    4.7829 H   0  0  0  0  0  0  0  0  0  0  0  0
    2.7132   -4.6650    4.1691 H   0  0  0  0  0  0  0  0  0  0  0  0
    3.0053   -4.3911    7.1397 H   0  0  0  0  0  0  0  0  0  0  0  0
    4.4820   -6.1328    6.1102 H   0  0  0  0  0  0  0  0  0  0  0  0
    0.3926   -3.9819    6.5533 H   0  0  0  0  0  0  0  0  0  0  0  0
    1.5394   -0.3568    5.6807 H   0  0  0  0  0  0  0  0  0  0  0  0
    0.5970   -3.8231    3.8845 H   0  0  0  0  0  0  0  0  0  0  0  0
    0.6905   -1.1774    2.5649 H   0  0  0  0  0  0  0  0  0  0  0  0
    2.0694   -1.9878    1.9187 H   0  0  0  0  0  0  0  0  0  0  0  0
    2.2235   -0.3866    2.6468 H   0  0  0  0  0  0  0  0  0  0  0  0
    5.8366   -5.1039    0.2373 H   0  0  0  0  0  0  0  0  0  0  0  0
    3.1502   -4.6583   -0.4932 H   0  0  0  0  0  0  0  0  0  0  0  0
    3.9805   -6.1728   -0.7018 H   0  0  0  0  0  0  0  0  0  0  0  0
    2.0595   -6.4178    3.3848 H   0  0  0  0  0  0  0  0  0  0  0  0
    2.8785  -10.0502    2.0809 H   0  0  0  0  0  0  0  0  0  0  0  0
    0.6179  -11.5150    2.6507 H   0  0  0  0  0  0  0  0  0  0  0  0
   -0.1037   -7.8641    4.3161 H   0  0  0  0  0  0  0  0  0  0  0  0
  2  1  1  1
  1 37  1  0
  1 38  1  0
  1 39  1  0
  2 17  1  0
  2 31  1  0
  2  3  1  0
  3  4  1  0
  3  5  1  0
  3 40  1  1
  4 41  1  0
  5  6  1  0
  5 42  1  0
  5 43  1  0
  6 26  1  0
  6  7  1  0
  6 44  1  1
  7  8  2  3
  7 26  1  0
  8  9  1  0
  8 45  1  0
  9 10  2  0
  9 11  1  0
 11 13  1  0
 11 24  1  0
 11 12  1  1
 12 13  1  0
 13 14  1  0
 13 46  1  6
 14 17  1  0
 14 15  1  0
 14 47  1  6
 15 16  1  0
 15 18  1  0
 15 48  1  1
 16 17  1  0
 17 49  1  1
 18 23  1  0
 18 19  1  0
 18 50  1  1
 19 20  1  0
 20 24  1  0
 20 21  1  0
 20 51  1  1
 21 22  2  0
 21 23  1  0
 23 24  1  0
 23 52  1  6
 24 25  1  6
 25 53  1  0
 25 54  1  0
 25 55  1  0
 26 27  1  0
 26 56  1  6
 27 28  1  0
 27 57  1  0
 27 58  1  0
 28 29  2  0
 28 30  1  0
 30 31  1  0
 31 32  1  0
 31 59  1  1
 32 36  2  0
 32 33  1  0
 33 34  2  0
 33 60  1  0
 34 35  1  0
 34 61  1  0
 35 36  1  0
 36 62  1  0
M  END
>  <i_m_ct_stereo_status>  (219) 
1

>  <s_m_source_file>  (219) 
/var/tmp/pbs.5076255.sched01/tmp7qb2j_xu/82up84z1qn.sdf

>  <i_m_source_file_index>  (219) 
18

>  <i_lp_mmshare_version>  (219) 
48012

>  <i_f3d_flags>  (219) 
0

>  <s_epik_input>  (219) 
Tz1DMVtDQEBIXShPMilbQ0BdMyhbQ0gzXSlbQ0BIXTFbQ0BIXTJbQ0BIXShbQ0BIXTRbQ0BASF0oW0NAXTM1NilPNilPW0NASF00W0NAXTcoW0NIM10pW0NAQEhdKFtPSF0pW0NIMl1bQ0hdOC9DKD1bQ0hdXEM1PU8pW0NIXThbQ0gyXUMoPU8pT1tDQEhdN2M5W2NIXVtjSF1vW2NIXTk=

>  <s_epik_cmdline>  (219) 
J2VwaWtfcHl0aG9uJywgJy1waHQnLCAnMi4wJywgJy1waCcsICc3LjAnLCAnLXRuJywgJzgnLCAnLW1hJywgJzIwMCcsICctaW1hZScsICc8aW5maWxlLm1hZT4nLCAnLW9tYWUnLCAnPG91dGZpbGUubWFlPic=

>  <r_lp_tautomer_probability>  (219) 
1

>  <r_epik_Ionization_Penalty>  (219) 
4.63503e-08

>  <r_epik_Ionization_Penalty_Charging>  (219) 
0

>  <r_epik_Ionization_Penalty_Neutral>  (219) 
4.63503e-08

>  <r_epik_State_Penalty>  (219) 
-0

>  <r_epik_Charging_Adjusted_Penalty>  (219) 
0

>  <i_epik_Tot_Q>  (219) 
0

>  <i_epik_Tot_abs_Q>  (219) 
0

>  <s_epik_Chemistry_Notes>  (219) 
This compound has an ester and may undergo hydrolysis at high or low pH.

>  <s_lp_Force_Field>  (219) 
OPLS3e

>  <r_lp_Energy>  (219) 
125.225

>  <b_lp_Chiralities_Consistent>  (219) 
1

>  <s_lp_Variant>  (219) 
64:0-2

>  <s_i_glide_gridfile>  (219) 
pfpi4k_grid

>  <i_i_glide_lignum>  (219) 
18

>  <i_i_glide_rotatable_bonds>  (219) 
2

>  <r_i_docking_score>  (219) 
0.875272

>  <r_i_glide_ligand_efficiency>  (219) 
0.0243131

>  <r_i_glide_ligand_efficiency_sa>  (219) 
0.0802801

>  <r_i_glide_ligand_efficiency_ln>  (219) 
0.190961

>  <r_i_glide_gscore>  (219) 
0.875272

>  <r_i_glide_lipo>  (219) 
-0.374493

>  <r_i_glide_hbond>  (219) 
-0.154053

>  <r_i_glide_metal>  (219) 
-0

>  <r_i_glide_rewards>  (219) 
-0.0879071

>  <r_i_glide_evdw>  (219) 
-23.9705

>  <r_i_glide_ecoul>  (219) 
-4.5547

>  <r_i_glide_erotb>  (219) 
0.083342

>  <r_i_glide_esite>  (219) 
-0.0180829

>  <r_i_glide_emodel>  (219) 
-15.8376

>  <r_i_glide_energy>  (219) 
-28.5252

>  <r_i_glide_einternal>  (219) 
0.380291

>  <r_i_glide_intrahb_reward>  (219) 
-0

>  <i_i_glide_confnum>  (219) 
3

>  <i_i_glide_posenum>  (219) 
1

>  <r_i_glide_eff_state_penalty>  (219) 
0

>  <ligand_id>  (219) 
64

>  <original_smiles>  (219) 
CC12C(O)CC3C(=CC(=O)C45OC4C4C(OC41)C1OC4C(=O)C1C45C)C3CC(=O)OC2c1ccoc1

>  <smiles>  (219) 
[H]OC1([H])C([H])([H])C2([H])C3=C([H])C(=O)C45OC4([H])C4([H])C([H])(OC4([H])C1(C([H])([H])[H])C([H])(c1c([H])oc([H])c1[H])OC(=O)C([H])([H])C32[H])C1([H])OC2([H])C(=O)C1([H])C25C([H])([H])[H]

$$$$
64:1:2
     RDKit          3D

 62 70  0  0  1  0  0  0  0  0999 V2000
    4.6774   -8.7677    4.1888 C   0  0  0  0  0  0  0  0  0  0  0  0
    4.1461   -7.4414    3.5722 C   0  0  2  0  0  0  0  0  0  0  0  0
    5.1492   -7.1222    2.3507 C   0  0  1  0  0  0  0  0  0  0  0  0
    5.0519   -8.1080    1.3309 O   0  0  0  0  0  0  0  0  0  0  0  0
    5.2232   -5.7007    1.6528 C   0  0  0  0  0  0  0  0  0  0  0  0
    3.8752   -4.9897    1.5480 C   0  0  1  0  0  0  0  0  0  0  0  0
    3.4303   -3.6288    1.0796 C   0  0  0  0  0  0  0  0  0  0  0  0
    3.3111   -2.3514    1.4930 C   0  0  0  0  0  0  0  0  0  0  0  0
    3.5400   -1.6565    2.7864 C   0  0  0  0  0  0  0  0  0  0  0  0
    4.0481   -0.5478    2.8823 O   0  0  0  0  0  0  0  0  0  0  0  0
    3.3376   -2.5451    4.0987 C   0  0  2  0  0  0  0  0  0  0  0  0
    4.4010   -2.5320    5.0562 O   0  0  0  0  0  0  0  0  0  0  0  0
    4.3764   -3.6828    4.2386 C   0  0  1  0  0  0  0  0  0  0  0  0
    3.7471   -4.9703    4.6873 C   0  0  2  0  0  0  0  0  0  0  0  0
    3.4934   -5.1191    6.1475 C   0  0  2  0  0  0  0  0  0  0  0  0
    3.5032   -6.5738    5.9486 O   0  0  0  0  0  0  0  0  0  0  0  0
    4.3299   -6.3793    4.7381 C   0  0  1  0  0  0  0  0  0  0  0  0
    2.2580   -4.3136    6.6180 C   0  0  1  0  0  0  0  0  0  0  0  0
    2.6981   -2.9938    6.9922 O   0  0  0  0  0  0  0  0  0  0  0  0
    1.8714   -2.0768    6.2592 C   0  0  2  0  0  0  0  0  0  0  0  0
    0.5294   -2.7630    6.3375 C   0  0  0  0  0  0  0  0  0  0  0  0
   -0.5905   -2.5779    6.8149 O   0  0  0  0  0  0  0  0  0  0  0  0
    1.3020   -3.8019    5.5341 C   0  0  1  0  0  0  0  0  0  0  0  0
    1.8985   -2.5366    4.7316 C   0  0  2  0  0  0  0  0  0  0  0  0
    0.9023   -1.9000    3.7087 C   0  0  0  0  0  0  0  0  0  0  0  0
    3.1484   -4.8424    0.1770 C   0  0  2  0  0  0  0  0  0  0  0  0
    1.8096   -5.6093    0.0824 C   0  0  0  0  0  0  0  0  0  0  0  0
    1.3906   -6.4882    1.2873 C   0  0  0  0  0  0  0  0  0  0  0  0
    0.2916   -6.3283    1.8255 O   0  0  0  0  0  0  0  0  0  0  0  0
    2.3780   -7.3310    1.7118 O   0  0  0  0  0  0  0  0  0  0  0  0
    2.6027   -7.6119    3.1063 C   0  0  1  0  0  0  0  0  0  0  0  0
    1.9186   -8.9216    3.4638 C   0  0  0  0  0  0  0  0  0  0  0  0
    2.0640  -10.1767    2.7718 C   0  0  0  0  0  0  0  0  0  0  0  0
    1.2748  -11.0662    3.4071 C   0  0  0  0  0  0  0  0  0  0  0  0
    0.6213  -10.4882    4.4492 O   0  0  0  0  0  0  0  0  0  0  0  0
    1.0364   -9.1877    4.4539 C   0  0  0  0  0  0  0  0  0  0  0  0
    4.6679   -9.5978    3.4832 H   0  0  0  0  0  0  0  0  0  0  0  0
    4.0899   -9.0684    5.0566 H   0  0  0  0  0  0  0  0  0  0  0  0
    5.7063   -8.6689    4.5394 H   0  0  0  0  0  0  0  0  0  0  0  0
    6.1649   -7.2750    2.7314 H   0  0  0  0  0  0  0  0  0  0  0  0
    5.0754   -8.9677    1.7217 H   0  0  0  0  0  0  0  0  0  0  0  0
    5.9245   -5.0897    2.2092 H   0  0  0  0  0  0  0  0  0  0  0  0
    5.6830   -5.7875    0.6660 H   0  0  0  0  0  0  0  0  0  0  0  0
    3.2736   -5.2712    2.3589 H   0  0  0  0  0  0  0  0  0  0  0  0
    4.1433   -2.6644    2.0314 H   0  0  0  0  0  0  0  0  0  0  0  0
    5.2867   -3.7822    3.6669 H   0  0  0  0  0  0  0  0  0  0  0  0
    2.7768   -5.0732    4.2317 H   0  0  0  0  0  0  0  0  0  0  0  0
    4.3609   -4.8464    6.7585 H   0  0  0  0  0  0  0  0  0  0  0  0
    5.3850   -6.3318    5.0268 H   0  0  0  0  0  0  0  0  0  0  0  0
    1.7424   -4.7901    7.4538 H   0  0  0  0  0  0  0  0  0  0  0  0
    1.9501   -1.0155    6.4818 H   0  0  0  0  0  0  0  0  0  0  0  0
    0.6860   -4.5260    5.0015 H   0  0  0  0  0  0  0  0  0  0  0  0
   -0.1313   -1.8584    4.0239 H   0  0  0  0  0  0  0  0  0  0  0  0
    0.8821   -2.4482    2.7590 H   0  0  0  0  0  0  0  0  0  0  0  0
    1.1692   -0.8631    3.4786 H   0  0  0  0  0  0  0  0  0  0  0  0
    3.7779   -4.9586   -0.7090 H   0  0  0  0  0  0  0  0  0  0  0  0
    1.0371   -4.8892   -0.1395 H   0  0  0  0  0  0  0  0  0  0  0  0
    1.8198   -6.2578   -0.7832 H   0  0  0  0  0  0  0  0  0  0  0  0
    2.0317   -6.8761    3.6696 H   0  0  0  0  0  0  0  0  0  0  0  0
    2.6909  -10.3615    1.9137 H   0  0  0  0  0  0  0  0  0  0  0  0
    1.0615  -12.1284    3.2611 H   0  0  0  0  0  0  0  0  0  0  0  0
    0.5825   -8.5920    5.2488 H   0  0  0  0  0  0  0  0  0  0  0  0
  2  1  1  1
  1 37  1  0
  1 38  1  0
  1 39  1  0
  2 17  1  0
  2 31  1  0
  2  3  1  0
  3  4  1  0
  3  5  1  0
  3 40  1  1
  4 41  1  0
  5  6  1  0
  5 42  1  0
  5 43  1  0
  6 26  1  0
  6  7  1  0
  6 44  1  1
  7  8  2  3
  7 26  1  0
  8  9  1  0
  8 45  1  0
  9 10  2  0
  9 11  1  0
 11 13  1  0
 11 24  1  0
 11 12  1  1
 12 13  1  0
 13 14  1  0
 13 46  1  6
 14 17  1  0
 14 15  1  0
 14 47  1  6
 15 16  1  0
 15 18  1  0
 15 48  1  1
 16 17  1  0
 17 49  1  1
 18 23  1  0
 18 19  1  0
 18 50  1  1
 19 20  1  0
 20 24  1  0
 20 21  1  0
 20 51  1  6
 21 22  2  0
 21 23  1  0
 23 24  1  0
 23 52  1  6
 24 25  1  6
 25 53  1  0
 25 54  1  0
 25 55  1  0
 26 27  1  0
 26 56  1  6
 27 28  1  0
 27 57  1  0
 27 58  1  0
 28 29  2  0
 28 30  1  0
 30 31  1  0
 31 32  1  0
 31 59  1  1
 32 36  2  0
 32 33  1  0
 33 34  2  0
 33 60  1  0
 34 35  1  0
 34 61  1  0
 35 36  1  0
 36 62  1  0
M  END
>  <i_m_ct_stereo_status>  (220) 
1

>  <s_m_source_file>  (220) 
/var/tmp/pbs.5076255.sched01/tmp7qb2j_xu/82up84z1qn.sdf

>  <i_m_source_file_index>  (220) 
18

>  <i_lp_mmshare_version>  (220) 
48012

>  <i_f3d_flags>  (220) 
0

>  <s_epik_input>  (220) 
Tz1DMVtDQEBIXShPMilbQ0BdMyhbQ0gzXSlbQ0BIXTFbQ0BIXTJbQ0BIXShbQ0BIXTRbQ0BASF0oW0NAXTM1NilPNilPW0NASF00W0NAXTcoW0NIM10pW0NAQEhdKFtPSF0pW0NIMl1bQ0hdOC9DKD1bQ0hdXEM1PU8pW0NIXThbQ0gyXUMoPU8pT1tDQEhdN2M5W2NIXVtjSF1vW2NIXTk=

>  <s_epik_cmdline>  (220) 
J2VwaWtfcHl0aG9uJywgJy1waHQnLCAnMi4wJywgJy1waCcsICc3LjAnLCAnLXRuJywgJzgnLCAnLW1hJywgJzIwMCcsICctaW1hZScsICc8aW5maWxlLm1hZT4nLCAnLW9tYWUnLCAnPG91dGZpbGUubWFlPic=

>  <r_lp_tautomer_probability>  (220) 
1

>  <r_epik_Ionization_Penalty>  (220) 
4.63503e-08

>  <r_epik_Ionization_Penalty_Charging>  (220) 
0

>  <r_epik_Ionization_Penalty_Neutral>  (220) 
4.63503e-08

>  <r_epik_State_Penalty>  (220) 
-0

>  <r_epik_Charging_Adjusted_Penalty>  (220) 
0

>  <i_epik_Tot_Q>  (220) 
0

>  <i_epik_Tot_abs_Q>  (220) 
0

>  <s_epik_Chemistry_Notes>  (220) 
This compound has an ester and may undergo hydrolysis at high or low pH.

>  <s_lp_Force_Field>  (220) 
OPLS3e

>  <r_lp_Energy>  (220) 
125.225

>  <b_lp_Chiralities_Consistent>  (220) 
1

>  <s_lp_Variant>  (220) 
64:0-2

>  <s_i_glide_gridfile>  (220) 
pfpi4k_grid

>  <i_i_glide_lignum>  (220) 
18

>  <i_i_glide_rotatable_bonds>  (220) 
2

>  <r_i_docking_score>  (220) 
0.882443

>  <r_i_glide_ligand_efficiency>  (220) 
0.0245123

>  <r_i_glide_ligand_efficiency_sa>  (220) 
0.0809378

>  <r_i_glide_ligand_efficiency_ln>  (220) 
0.192525

>  <r_i_glide_gscore>  (220) 
0.882443

>  <r_i_glide_lipo>  (220) 
-0.366101

>  <r_i_glide_hbond>  (220) 
-0.24124

>  <r_i_glide_metal>  (220) 
-0

>  <r_i_glide_rewards>  (220) 
-0.0375686

>  <r_i_glide_evdw>  (220) 
-22.8053

>  <r_i_glide_ecoul>  (220) 
-4.78253

>  <r_i_glide_erotb>  (220) 
0.083342

>  <r_i_glide_esite>  (220) 
-0.074227

>  <r_i_glide_emodel>  (220) 
-14.7139

>  <r_i_glide_energy>  (220) 
-27.5878

>  <r_i_glide_einternal>  (220) 
0.446878

>  <r_i_glide_intrahb_reward>  (220) 
-0

>  <i_i_glide_confnum>  (220) 
3

>  <i_i_glide_posenum>  (220) 
22

>  <r_i_glide_eff_state_penalty>  (220) 
0

>  <ligand_id>  (220) 
64

>  <original_smiles>  (220) 
CC12C(O)CC3C(=CC(=O)C45OC4C4C(OC41)C1OC4C(=O)C1C45C)C3CC(=O)OC2c1ccoc1

>  <smiles>  (220) 
[H]OC1([H])C([H])([H])C2([H])C3=C([H])C(=O)C45OC4([H])C4([H])C([H])(OC4([H])C1(C([H])([H])[H])C([H])(c1c([H])oc([H])c1[H])OC(=O)C([H])([H])C32[H])C1([H])OC2([H])C(=O)C1([H])C25C([H])([H])[H]

$$$$
64:2:0
     RDKit          3D

 62 70  0  0  1  0  0  0  0  0999 V2000
    3.3000   -6.5306    4.3708 C   0  0  0  0  0  0  0  0  0  0  0  0
    3.1798   -5.1394    3.6841 C   0  0  2  0  0  0  0  0  0  0  0  0
    4.6668   -4.6351    3.3833 C   0  0  1  0  0  0  0  0  0  0  0  0
    5.4479   -4.6458    4.5639 O   0  0  0  0  0  0  0  0  0  0  0  0
    5.5859   -5.1389    2.2371 C   0  0  0  0  0  0  0  0  0  0  0  0
    6.1083   -4.0016    1.3355 C   0  0  2  0  0  0  0  0  0  0  0  0
    5.3079   -2.7943    0.9549 C   0  0  0  0  0  0  0  0  0  0  0  0
    4.7893   -1.5751    1.2237 C   0  0  0  0  0  0  0  0  0  0  0  0
    4.8906   -0.8416    2.5155 C   0  0  0  0  0  0  0  0  0  0  0  0
    5.9720   -0.4548    2.9409 O   0  0  0  0  0  0  0  0  0  0  0  0
    3.6441   -0.6193    3.3925 C   0  0  2  0  0  0  0  0  0  0  0  0
    3.7628   -0.2311    4.7600 O   0  0  0  0  0  0  0  0  0  0  0  0
    3.8121   -1.6398    4.5436 C   0  0  1  0  0  0  0  0  0  0  0  0
    2.7176   -2.6170    4.2528 C   0  0  2  0  0  0  0  0  0  0  0  0
    1.3922   -2.4324    4.8636 C   0  0  2  0  0  0  0  0  0  0  0  0
    1.1461   -3.8565    4.6711 O   0  0  0  0  0  0  0  0  0  0  0  0
    2.6022   -4.0665    4.6679 C   0  0  1  0  0  0  0  0  0  0  0  0
    0.5459   -1.3619    4.1808 C   0  0  1  0  0  0  0  0  0  0  0  0
    0.9427   -0.1440    4.8305 O   0  0  0  0  0  0  0  0  0  0  0  0
    1.3013    0.7460    3.7625 C   0  0  2  0  0  0  0  0  0  0  0  0
    0.2463    0.4280    2.7237 C   0  0  0  0  0  0  0  0  0  0  0  0
   -0.7265    0.9460    2.1824 O   0  0  0  0  0  0  0  0  0  0  0  0
    0.9842   -0.8987    2.7719 C   0  0  1  0  0  0  0  0  0  0  0  0
    2.2967   -0.0072    2.7895 C   0  0  2  0  0  0  0  0  0  0  0  0
    2.6644    0.7933    1.4850 C   0  0  0  0  0  0  0  0  0  0  0  0
    5.4793   -3.7925   -0.1127 C   0  0  2  0  0  0  0  0  0  0  0  0
    4.2525   -4.5546   -0.6177 C   0  0  0  0  0  0  0  0  0  0  0  0
    3.0174   -4.4174    0.2738 C   0  0  0  0  0  0  0  0  0  0  0  0
    2.2492   -3.4703    0.1517 O   0  0  0  0  0  0  0  0  0  0  0  0
    2.9468   -5.3747    1.2178 O   0  0  0  0  0  0  0  0  0  0  0  0
    2.2107   -5.1982    2.4232 C   0  0  1  0  0  0  0  0  0  0  0  0
    1.0713   -6.2122    2.5061 C   0  0  0  0  0  0  0  0  0  0  0  0
    0.6057   -7.0648    1.4500 C   0  0  0  0  0  0  0  0  0  0  0  0
   -0.4434   -7.7690    1.9536 C   0  0  0  0  0  0  0  0  0  0  0  0
   -0.7170   -7.3910    3.2236 O   0  0  0  0  0  0  0  0  0  0  0  0
    0.2105   -6.4510    3.5307 C   0  0  0  0  0  0  0  0  0  0  0  0
    3.6748   -7.2810    3.6723 H   0  0  0  0  0  0  0  0  0  0  0  0
    2.3676   -6.9036    4.7803 H   0  0  0  0  0  0  0  0  0  0  0  0
    3.9653   -6.5168    5.2302 H   0  0  0  0  0  0  0  0  0  0  0  0
    4.5988   -3.5919    3.1574 H   0  0  0  0  0  0  0  0  0  0  0  0
    5.6426   -5.5464    4.7883 H   0  0  0  0  0  0  0  0  0  0  0  0
    6.4613   -5.6423    2.6498 H   0  0  0  0  0  0  0  0  0  0  0  0
    5.1487   -5.9206    1.6245 H   0  0  0  0  0  0  0  0  0  0  0  0
    7.1933   -3.9075    1.3813 H   0  0  0  0  0  0  0  0  0  0  0  0
    4.2904   -1.0612    0.4174 H   0  0  0  0  0  0  0  0  0  0  0  0
    4.7819   -2.0578    4.8039 H   0  0  0  0  0  0  0  0  0  0  0  0
    2.5511   -2.6530    3.1886 H   0  0  0  0  0  0  0  0  0  0  0  0
    1.4922   -2.2241    5.9240 H   0  0  0  0  0  0  0  0  0  0  0  0
    2.9827   -4.1784    5.6784 H   0  0  0  0  0  0  0  0  0  0  0  0
   -0.5317   -1.5205    4.2758 H   0  0  0  0  0  0  0  0  0  0  0  0
    1.5259    1.7963    3.9614 H   0  0  0  0  0  0  0  0  0  0  0  0
    0.8573   -1.5577    1.9129 H   0  0  0  0  0  0  0  0  0  0  0  0
    2.0075    1.6435    1.3043 H   0  0  0  0  0  0  0  0  0  0  0  0
    2.5780    0.1645    0.5995 H   0  0  0  0  0  0  0  0  0  0  0  0
    3.6544    1.2439    1.5101 H   0  0  0  0  0  0  0  0  0  0  0  0
    6.2101   -3.6256   -0.9041 H   0  0  0  0  0  0  0  0  0  0  0  0
    4.0022   -4.1991   -1.6153 H   0  0  0  0  0  0  0  0  0  0  0  0
    4.5130   -5.6072   -0.7149 H   0  0  0  0  0  0  0  0  0  0  0  0
    1.6721   -4.2532    2.3355 H   0  0  0  0  0  0  0  0  0  0  0  0
    1.0090   -7.1775    0.4584 H   0  0  0  0  0  0  0  0  0  0  0  0
   -1.0873   -8.5426    1.5526 H   0  0  0  0  0  0  0  0  0  0  0  0
    0.1169   -6.0797    4.5450 H   0  0  0  0  0  0  0  0  0  0  0  0
  2  1  1  1
  1 37  1  0
  1 38  1  0
  1 39  1  0
  2 17  1  0
  2 31  1  0
  2  3  1  0
  3  4  1  0
  3  5  1  0
  3 40  1  6
  4 41  1  0
  5  6  1  0
  5 42  1  0
  5 43  1  0
  6 26  1  0
  6  7  1  0
  6 44  1  6
  7  8  2  3
  7 26  1  0
  8  9  1  0
  8 45  1  0
  9 10  2  0
  9 11  1  0
 11 13  1  0
 11 24  1  0
 11 12  1  1
 12 13  1  0
 13 14  1  0
 13 46  1  6
 14 17  1  0
 14 15  1  0
 14 47  1  6
 15 16  1  0
 15 18  1  0
 15 48  1  1
 16 17  1  0
 17 49  1  1
 18 23  1  0
 18 19  1  0
 18 50  1  6
 19 20  1  0
 20 24  1  0
 20 21  1  0
 20 51  1  1
 21 22  2  0
 21 23  1  0
 23 24  1  0
 23 52  1  6
 24 25  1  6
 25 53  1  0
 25 54  1  0
 25 55  1  0
 26 27  1  0
 26 56  1  6
 27 28  1  0
 27 57  1  0
 27 58  1  0
 28 29  2  0
 28 30  1  0
 30 31  1  0
 31 32  1  0
 31 59  1  6
 32 36  2  0
 32 33  1  0
 33 34  2  0
 33 60  1  0
 34 35  1  0
 34 61  1  0
 35 36  1  0
 36 62  1  0
M  END
>  <i_m_ct_stereo_status>  (221) 
1

>  <s_m_source_file>  (221) 
/var/tmp/pbs.5076255.sched01/tmp7qb2j_xu/82up84z1qn.sdf

>  <i_m_source_file_index>  (221) 
19

>  <i_lp_mmshare_version>  (221) 
48012

>  <i_f3d_flags>  (221) 
0

>  <s_epik_input>  (221) 
Tz1DMVtDQEBIXShPMilbQ0BdMyhbQ0gzXSlbQ0BIXTFbQ0BIXTJbQ0BIXShbQ0BIXTRbQ0BASF0oW0NAXTM1NilPNilPW0NASF00W0NAXTcoW0NIM10pW0NAQEhdKFtPSF0pW0NIMl1bQ0hdOC9DKD1bQ0hdXEM1PU8pW0NIXThbQ0gyXUMoPU8pT1tDQEhdN2M5W2NIXVtjSF1vW2NIXTk=

>  <s_epik_cmdline>  (221) 
J2VwaWtfcHl0aG9uJywgJy1waHQnLCAnMi4wJywgJy1waCcsICc3LjAnLCAnLXRuJywgJzgnLCAnLW1hJywgJzIwMCcsICctaW1hZScsICc8aW5maWxlLm1hZT4nLCAnLW9tYWUnLCAnPG91dGZpbGUubWFlPic=

>  <r_lp_tautomer_probability>  (221) 
1

>  <r_epik_Ionization_Penalty>  (221) 
4.63503e-08

>  <r_epik_Ionization_Penalty_Charging>  (221) 
0

>  <r_epik_Ionization_Penalty_Neutral>  (221) 
4.63503e-08

>  <r_epik_State_Penalty>  (221) 
-0

>  <r_epik_Charging_Adjusted_Penalty>  (221) 
0

>  <i_epik_Tot_Q>  (221) 
0

>  <i_epik_Tot_abs_Q>  (221) 
0

>  <s_epik_Chemistry_Notes>  (221) 
This compound has an ester and may undergo hydrolysis at high or low pH.

>  <s_lp_Force_Field>  (221) 
OPLS3e

>  <r_lp_Energy>  (221) 
125.91

>  <b_lp_Chiralities_Consistent>  (221) 
1

>  <s_lp_Variant>  (221) 
64:0-3

>  <s_i_glide_gridfile>  (221) 
pfpi4k_grid

>  <i_i_glide_lignum>  (221) 
19

>  <i_i_glide_rotatable_bonds>  (221) 
2

>  <r_i_docking_score>  (221) 
-2.2341

>  <r_i_glide_ligand_efficiency>  (221) 
-0.0620584

>  <r_i_glide_ligand_efficiency_sa>  (221) 
-0.204912

>  <r_i_glide_ligand_efficiency_ln>  (221) 
-0.487421

>  <r_i_glide_gscore>  (221) 
-2.2341

>  <r_i_glide_lipo>  (221) 
-0.296382

>  <r_i_glide_hbond>  (221) 
-0.0038163

>  <r_i_glide_metal>  (221) 
-0

>  <r_i_glide_rewards>  (221) 
-0.178374

>  <r_i_glide_evdw>  (221) 
-27.5798

>  <r_i_glide_ecoul>  (221) 
-2.65388

>  <r_i_glide_erotb>  (221) 
0.083342

>  <r_i_glide_esite>  (221) 
-0.0617969

>  <r_i_glide_emodel>  (221) 
-34.0136

>  <r_i_glide_energy>  (221) 
-30.2337

>  <r_i_glide_einternal>  (221) 
0.434165

>  <r_i_glide_intrahb_reward>  (221) 
-0

>  <i_i_glide_confnum>  (221) 
1

>  <i_i_glide_posenum>  (221) 
17

>  <r_i_glide_eff_state_penalty>  (221) 
0

>  <ligand_id>  (221) 
64

>  <original_smiles>  (221) 
CC12C(O)CC3C(=CC(=O)C45OC4C4C(OC41)C1OC4C(=O)C1C45C)C3CC(=O)OC2c1ccoc1

>  <smiles>  (221) 
[H]OC1([H])C([H])([H])C2([H])C3=C([H])C(=O)C45OC4([H])C4([H])C([H])(OC4([H])C1(C([H])([H])[H])C([H])(c1c([H])oc([H])c1[H])OC(=O)C([H])([H])C32[H])C1([H])OC2([H])C(=O)C1([H])C25C([H])([H])[H]

$$$$
64:2:1
     RDKit          3D

 62 70  0  0  1  0  0  0  0  0999 V2000
    3.2767   -6.3789    4.5598 C   0  0  0  0  0  0  0  0  0  0  0  0
    3.1295   -4.9912    3.8745 C   0  0  2  0  0  0  0  0  0  0  0  0
    4.6049   -4.4313    3.6089 C   0  0  1  0  0  0  0  0  0  0  0  0
    5.3644   -4.4181    4.8032 O   0  0  0  0  0  0  0  0  0  0  0  0
    5.5687   -4.9027    2.4885 C   0  0  0  0  0  0  0  0  0  0  0  0
    6.0734   -3.7466    1.6008 C   0  0  2  0  0  0  0  0  0  0  0  0
    5.2416   -2.5661    1.2045 C   0  0  0  0  0  0  0  0  0  0  0  0
    4.6773   -1.3656    1.4669 C   0  0  0  0  0  0  0  0  0  0  0  0
    4.7255   -0.6382    2.7664 C   0  0  0  0  0  0  0  0  0  0  0  0
    5.7908   -0.2388    3.2317 O   0  0  0  0  0  0  0  0  0  0  0  0
    3.4437   -0.4572    3.6057 C   0  0  2  0  0  0  0  0  0  0  0  0
    3.5089   -0.0724    4.9783 O   0  0  0  0  0  0  0  0  0  0  0  0
    3.6140   -1.4770    4.7584 C   0  0  1  0  0  0  0  0  0  0  0  0
    2.5632   -2.4906    4.4393 C   0  0  2  0  0  0  0  0  0  0  0  0
    1.2182   -2.3544    5.0171 C   0  0  2  0  0  0  0  0  0  0  0  0
    1.0276   -3.7849    4.8164 O   0  0  0  0  0  0  0  0  0  0  0  0
    2.4897   -3.9443    4.8470 C   0  0  1  0  0  0  0  0  0  0  0  0
    0.3507   -1.3131    4.3167 C   0  0  1  0  0  0  0  0  0  0  0  0
    0.6889   -0.0849    4.9797 O   0  0  0  0  0  0  0  0  0  0  0  0
    1.0426    0.8223    3.9242 C   0  0  2  0  0  0  0  0  0  0  0  0
    0.0263    0.4749    2.8589 C   0  0  0  0  0  0  0  0  0  0  0  0
   -0.9494    0.9580    2.2934 O   0  0  0  0  0  0  0  0  0  0  0  0
    0.8055   -0.8286    2.9209 C   0  0  1  0  0  0  0  0  0  0  0  0
    2.0865    0.1075    2.9720 C   0  0  2  0  0  0  0  0  0  0  0  0
    2.4528    0.9285    1.6807 C   0  0  0  0  0  0  0  0  0  0  0  0
    5.4719   -3.5550    0.1379 C   0  0  2  0  0  0  0  0  0  0  0  0
    4.2870   -4.3621   -0.3999 C   0  0  0  0  0  0  0  0  0  0  0  0
    3.0294   -4.2717    0.4633 C   0  0  0  0  0  0  0  0  0  0  0  0
    2.2376   -3.3469    0.3306 O   0  0  0  0  0  0  0  0  0  0  0  0
    2.9671   -5.2327    1.4022 O   0  0  0  0  0  0  0  0  0  0  0  0
    2.1956   -5.0843    2.5891 C   0  0  1  0  0  0  0  0  0  0  0  0
    1.0928   -6.1409    2.6437 C   0  0  0  0  0  0  0  0  0  0  0  0
    0.7161   -7.0460    1.5916 C   0  0  0  0  0  0  0  0  0  0  0  0
   -0.3333   -7.7698    2.0622 C   0  0  0  0  0  0  0  0  0  0  0  0
   -0.6855   -7.3645    3.3049 O   0  0  0  0  0  0  0  0  0  0  0  0
    0.1932   -6.3862    3.6307 C   0  0  0  0  0  0  0  0  0  0  0  0
    3.6972   -7.1143    3.8719 H   0  0  0  0  0  0  0  0  0  0  0  0
    2.3438   -6.7829    4.9397 H   0  0  0  0  0  0  0  0  0  0  0  0
    3.9240   -6.3420    5.4326 H   0  0  0  0  0  0  0  0  0  0  0  0
    4.5024   -3.3916    3.3809 H   0  0  0  0  0  0  0  0  0  0  0  0
    6.1872   -3.9816    4.6329 H   0  0  0  0  0  0  0  0  0  0  0  0
    6.4478   -5.3835    2.9202 H   0  0  0  0  0  0  0  0  0  0  0  0
    5.1719   -5.6971    1.8662 H   0  0  0  0  0  0  0  0  0  0  0  0
    7.1531   -3.6162    1.6717 H   0  0  0  0  0  0  0  0  0  0  0  0
    4.1759   -0.8659    0.6518 H   0  0  0  0  0  0  0  0  0  0  0  0
    4.5882   -1.8621    5.0460 H   0  0  0  0  0  0  0  0  0  0  0  0
    2.4235   -2.5302    3.3720 H   0  0  0  0  0  0  0  0  0  0  0  0
    1.2839   -2.1461    6.0798 H   0  0  0  0  0  0  0  0  0  0  0  0
    2.8496   -4.0480    5.8652 H   0  0  0  0  0  0  0  0  0  0  0  0
   -0.7225   -1.5092    4.3839 H   0  0  0  0  0  0  0  0  0  0  0  0
    1.2251    1.8790    4.1291 H   0  0  0  0  0  0  0  0  0  0  0  0
    0.7203   -1.4895    2.0578 H   0  0  0  0  0  0  0  0  0  0  0  0
    1.7712    1.7556    1.4865 H   0  0  0  0  0  0  0  0  0  0  0  0
    2.4137    0.3077    0.7885 H   0  0  0  0  0  0  0  0  0  0  0  0
    3.4198    1.4160    1.7354 H   0  0  0  0  0  0  0  0  0  0  0  0
    6.2165   -3.3612   -0.6341 H   0  0  0  0  0  0  0  0  0  0  0  0
    4.0467   -4.0131   -1.4027 H   0  0  0  0  0  0  0  0  0  0  0  0
    4.5860   -5.4049   -0.4922 H   0  0  0  0  0  0  0  0  0  0  0  0
    1.6244   -4.1599    2.4891 H   0  0  0  0  0  0  0  0  0  0  0  0
    1.1709   -7.1644    0.6222 H   0  0  0  0  0  0  0  0  0  0  0  0
   -0.9339   -8.5734    1.6523 H   0  0  0  0  0  0  0  0  0  0  0  0
    0.0320   -5.9909    4.6285 H   0  0  0  0  0  0  0  0  0  0  0  0
  2  1  1  1
  1 37  1  0
  1 38  1  0
  1 39  1  0
  2 17  1  0
  2 31  1  0
  2  3  1  0
  3  4  1  0
  3  5  1  0
  3 40  1  6
  4 41  1  0
  5  6  1  0
  5 42  1  0
  5 43  1  0
  6 26  1  0
  6  7  1  0
  6 44  1  6
  7  8  2  3
  7 26  1  0
  8  9  1  0
  8 45  1  0
  9 10  2  0
  9 11  1  0
 11 13  1  0
 11 24  1  0
 11 12  1  1
 12 13  1  0
 13 14  1  0
 13 46  1  6
 14 17  1  0
 14 15  1  0
 14 47  1  6
 15 16  1  0
 15 18  1  0
 15 48  1  1
 16 17  1  0
 17 49  1  1
 18 23  1  0
 18 19  1  0
 18 50  1  6
 19 20  1  0
 20 24  1  0
 20 21  1  0
 20 51  1  1
 21 22  2  0
 21 23  1  0
 23 24  1  0
 23 52  1  6
 24 25  1  6
 25 53  1  0
 25 54  1  0
 25 55  1  0
 26 27  1  0
 26 56  1  6
 27 28  1  0
 27 57  1  0
 27 58  1  0
 28 29  2  0
 28 30  1  0
 30 31  1  0
 31 32  1  0
 31 59  1  6
 32 36  2  0
 32 33  1  0
 33 34  2  0
 33 60  1  0
 34 35  1  0
 34 61  1  0
 35 36  1  0
 36 62  1  0
M  END
>  <i_m_ct_stereo_status>  (222) 
1

>  <s_m_source_file>  (222) 
/var/tmp/pbs.5076255.sched01/tmp7qb2j_xu/82up84z1qn.sdf

>  <i_m_source_file_index>  (222) 
19

>  <i_lp_mmshare_version>  (222) 
48012

>  <i_f3d_flags>  (222) 
0

>  <s_epik_input>  (222) 
Tz1DMVtDQEBIXShPMilbQ0BdMyhbQ0gzXSlbQ0BIXTFbQ0BIXTJbQ0BIXShbQ0BIXTRbQ0BASF0oW0NAXTM1NilPNilPW0NASF00W0NAXTcoW0NIM10pW0NAQEhdKFtPSF0pW0NIMl1bQ0hdOC9DKD1bQ0hdXEM1PU8pW0NIXThbQ0gyXUMoPU8pT1tDQEhdN2M5W2NIXVtjSF1vW2NIXTk=

>  <s_epik_cmdline>  (222) 
J2VwaWtfcHl0aG9uJywgJy1waHQnLCAnMi4wJywgJy1waCcsICc3LjAnLCAnLXRuJywgJzgnLCAnLW1hJywgJzIwMCcsICctaW1hZScsICc8aW5maWxlLm1hZT4nLCAnLW9tYWUnLCAnPG91dGZpbGUubWFlPic=

>  <r_lp_tautomer_probability>  (222) 
1

>  <r_epik_Ionization_Penalty>  (222) 
4.63503e-08

>  <r_epik_Ionization_Penalty_Charging>  (222) 
0

>  <r_epik_Ionization_Penalty_Neutral>  (222) 
4.63503e-08

>  <r_epik_State_Penalty>  (222) 
-0

>  <r_epik_Charging_Adjusted_Penalty>  (222) 
0

>  <i_epik_Tot_Q>  (222) 
0

>  <i_epik_Tot_abs_Q>  (222) 
0

>  <s_epik_Chemistry_Notes>  (222) 
This compound has an ester and may undergo hydrolysis at high or low pH.

>  <s_lp_Force_Field>  (222) 
OPLS3e

>  <r_lp_Energy>  (222) 
125.91

>  <b_lp_Chiralities_Consistent>  (222) 
1

>  <s_lp_Variant>  (222) 
64:0-3

>  <s_i_glide_gridfile>  (222) 
pfpi4k_grid

>  <i_i_glide_lignum>  (222) 
19

>  <i_i_glide_rotatable_bonds>  (222) 
2

>  <r_i_docking_score>  (222) 
-2.09981

>  <r_i_glide_ligand_efficiency>  (222) 
-0.058328

>  <r_i_glide_ligand_efficiency_sa>  (222) 
-0.192595

>  <r_i_glide_ligand_efficiency_ln>  (222) 
-0.458121

>  <r_i_glide_gscore>  (222) 
-2.09981

>  <r_i_glide_lipo>  (222) 
-0.240149

>  <r_i_glide_hbond>  (222) 
-0.0145206

>  <r_i_glide_metal>  (222) 
-0

>  <r_i_glide_rewards>  (222) 
-0.167656

>  <r_i_glide_evdw>  (222) 
-27.8022

>  <r_i_glide_ecoul>  (222) 
-2.11364

>  <r_i_glide_erotb>  (222) 
0.083342

>  <r_i_glide_esite>  (222) 
-0.0536694

>  <r_i_glide_emodel>  (222) 
-33.1646

>  <r_i_glide_energy>  (222) 
-29.9158

>  <r_i_glide_einternal>  (222) 
0.753036

>  <r_i_glide_intrahb_reward>  (222) 
-0

>  <i_i_glide_confnum>  (222) 
1

>  <i_i_glide_posenum>  (222) 
15

>  <r_i_glide_eff_state_penalty>  (222) 
0

>  <ligand_id>  (222) 
64

>  <original_smiles>  (222) 
CC12C(O)CC3C(=CC(=O)C45OC4C4C(OC41)C1OC4C(=O)C1C45C)C3CC(=O)OC2c1ccoc1

>  <smiles>  (222) 
[H]OC1([H])C([H])([H])C2([H])C3=C([H])C(=O)C45OC4([H])C4([H])C([H])(OC4([H])C1(C([H])([H])[H])C([H])(c1c([H])oc([H])c1[H])OC(=O)C([H])([H])C32[H])C1([H])OC2([H])C(=O)C1([H])C25C([H])([H])[H]

$$$$
64:2:2
     RDKit          3D

 62 70  0  0  1  0  0  0  0  0999 V2000
    0.9765  -11.1319    4.5927 C   0  0  0  0  0  0  0  0  0  0  0  0
    2.1302  -10.0970    4.5918 C   0  0  2  0  0  0  0  0  0  0  0  0
    3.4847  -10.9058    4.3538 C   0  0  1  0  0  0  0  0  0  0  0  0
    3.6697  -11.9445    5.3051 O   0  0  0  0  0  0  0  0  0  0  0  0
    3.9780  -11.4530    2.9913 C   0  0  0  0  0  0  0  0  0  0  0  0
    5.3870  -10.9574    2.6024 C   0  0  2  0  0  0  0  0  0  0  0  0
    5.9045   -9.5852    2.8902 C   0  0  0  0  0  0  0  0  0  0  0  0
    6.4314   -8.6661    3.7269 C   0  0  0  0  0  0  0  0  0  0  0  0
    6.6959   -8.8491    5.1803 C   0  0  0  0  0  0  0  0  0  0  0  0
    7.5316   -9.6612    5.5775 O   0  0  0  0  0  0  0  0  0  0  0  0
    5.8614   -8.0750    6.2221 C   0  0  2  0  0  0  0  0  0  0  0  0
    5.8541   -8.4600    7.5959 O   0  0  0  0  0  0  0  0  0  0  0  0
    4.8892   -9.1380    6.7907 C   0  0  1  0  0  0  0  0  0  0  0  0
    3.5695   -8.6726    6.2544 C   0  0  2  0  0  0  0  0  0  0  0  0
    2.7271   -7.7667    7.0512 C   0  0  2  0  0  0  0  0  0  0  0  0
    1.5705   -8.2223    6.2866 O   0  0  0  0  0  0  0  0  0  0  0  0
    2.3045   -9.4661    6.0096 C   0  0  1  0  0  0  0  0  0  0  0  0
    3.1976   -6.3172    7.0213 C   0  0  1  0  0  0  0  0  0  0  0  0
    4.1775   -6.2474    8.0687 O   0  0  0  0  0  0  0  0  0  0  0  0
    5.3397   -5.6808    7.4484 C   0  0  2  0  0  0  0  0  0  0  0  0
    4.7323   -4.6454    6.5210 C   0  0  0  0  0  0  0  0  0  0  0  0
    4.7097   -3.4284    6.3579 O   0  0  0  0  0  0  0  0  0  0  0  0
    4.1857   -5.9146    5.9001 C   0  0  1  0  0  0  0  0  0  0  0  0
    5.6524   -6.4895    6.1245 C   0  0  2  0  0  0  0  0  0  0  0  0
    6.8375   -5.8924    5.2668 C   0  0  0  0  0  0  0  0  0  0  0  0
    5.5507   -9.8304    1.4857 C   0  0  2  0  0  0  0  0  0  0  0  0
    4.3703   -9.0696    0.8713 C   0  0  0  0  0  0  0  0  0  0  0  0
    3.4717   -8.3603    1.8881 C   0  0  0  0  0  0  0  0  0  0  0  0
    3.7358   -7.2315    2.3009 O   0  0  0  0  0  0  0  0  0  0  0  0
    2.4626   -9.1363    2.3138 O   0  0  0  0  0  0  0  0  0  0  0  0
    1.8398   -8.9124    3.5703 C   0  0  1  0  0  0  0  0  0  0  0  0
    0.3748   -8.5619    3.3643 C   0  0  0  0  0  0  0  0  0  0  0  0
   -0.5983   -9.2719    2.5858 C   0  0  0  0  0  0  0  0  0  0  0  0
   -1.7557   -8.5743    2.6869 C   0  0  0  0  0  0  0  0  0  0  0  0
   -1.5916   -7.4617    3.4494 O   0  0  0  0  0  0  0  0  0  0  0  0
   -0.2931   -7.4863    3.8539 C   0  0  0  0  0  0  0  0  0  0  0  0
    0.8381  -11.5763    3.6040 H   0  0  0  0  0  0  0  0  0  0  0  0
    0.0384  -10.6806    4.9077 H   0  0  0  0  0  0  0  0  0  0  0  0
    1.1449  -11.9593    5.2766 H   0  0  0  0  0  0  0  0  0  0  0  0
    4.2789  -10.2336    4.5993 H   0  0  0  0  0  0  0  0  0  0  0  0
    2.8523  -12.1394    5.7516 H   0  0  0  0  0  0  0  0  0  0  0  0
    4.0213  -12.5430    3.0179 H   0  0  0  0  0  0  0  0  0  0  0  0
    3.2865  -11.2729    2.1761 H   0  0  0  0  0  0  0  0  0  0  0  0
    6.1022  -11.7773    2.5289 H   0  0  0  0  0  0  0  0  0  0  0  0
    6.7298   -7.7239    3.2942 H   0  0  0  0  0  0  0  0  0  0  0  0
    5.1011  -10.2015    6.7119 H   0  0  0  0  0  0  0  0  0  0  0  0
    3.7303   -8.1768    5.3119 H   0  0  0  0  0  0  0  0  0  0  0  0
    2.6562   -8.1295    8.0716 H   0  0  0  0  0  0  0  0  0  0  0  0
    2.1773  -10.1862    6.8130 H   0  0  0  0  0  0  0  0  0  0  0  0
    2.3985   -5.5892    7.1856 H   0  0  0  0  0  0  0  0  0  0  0  0
    6.2055   -5.3944    8.0493 H   0  0  0  0  0  0  0  0  0  0  0  0
    3.8434   -5.8407    4.8683 H   0  0  0  0  0  0  0  0  0  0  0  0
    7.1154   -4.8831    5.5680 H   0  0  0  0  0  0  0  0  0  0  0  0
    6.5767   -5.8128    4.2128 H   0  0  0  0  0  0  0  0  0  0  0  0
    7.7701   -6.4484    5.3561 H   0  0  0  0  0  0  0  0  0  0  0  0
    6.3312  -10.0400    0.7531 H   0  0  0  0  0  0  0  0  0  0  0  0
    4.7534   -8.3405    0.1605 H   0  0  0  0  0  0  0  0  0  0  0  0
    3.7782   -9.7861    0.3023 H   0  0  0  0  0  0  0  0  0  0  0  0
    2.2448   -7.9815    3.9729 H   0  0  0  0  0  0  0  0  0  0  0  0
   -0.4659  -10.1927    2.0426 H   0  0  0  0  0  0  0  0  0  0  0  0
   -2.7431   -8.7281    2.2812 H   0  0  0  0  0  0  0  0  0  0  0  0
   -0.0090   -6.6531    4.4912 H   0  0  0  0  0  0  0  0  0  0  0  0
  2  1  1  1
  1 37  1  0
  1 38  1  0
  1 39  1  0
  2 17  1  0
  2 31  1  0
  2  3  1  0
  3  4  1  0
  3  5  1  0
  3 40  1  1
  4 41  1  0
  5  6  1  0
  5 42  1  0
  5 43  1  0
  6 26  1  0
  6  7  1  0
  6 44  1  6
  7  8  2  3
  7 26  1  0
  8  9  1  0
  8 45  1  0
  9 10  2  0
  9 11  1  0
 11 13  1  0
 11 24  1  0
 11 12  1  1
 12 13  1  0
 13 14  1  0
 13 46  1  6
 14 17  1  0
 14 15  1  0
 14 47  1  6
 15 16  1  0
 15 18  1  0
 15 48  1  1
 16 17  1  0
 17 49  1  1
 18 23  1  0
 18 19  1  0
 18 50  1  1
 19 20  1  0
 20 24  1  0
 20 21  1  0
 20 51  1  1
 21 22  2  0
 21 23  1  0
 23 24  1  0
 23 52  1  6
 24 25  1  6
 25 53  1  0
 25 54  1  0
 25 55  1  0
 26 27  1  0
 26 56  1  6
 27 28  1  0
 27 57  1  0
 27 58  1  0
 28 29  2  0
 28 30  1  0
 30 31  1  0
 31 32  1  0
 31 59  1  1
 32 36  2  0
 32 33  1  0
 33 34  2  0
 33 60  1  0
 34 35  1  0
 34 61  1  0
 35 36  1  0
 36 62  1  0
M  END
>  <i_m_ct_stereo_status>  (223) 
1

>  <s_m_source_file>  (223) 
/var/tmp/pbs.5076255.sched01/tmp7qb2j_xu/82up84z1qn.sdf

>  <i_m_source_file_index>  (223) 
19

>  <i_lp_mmshare_version>  (223) 
48012

>  <i_f3d_flags>  (223) 
0

>  <s_epik_input>  (223) 
Tz1DMVtDQEBIXShPMilbQ0BdMyhbQ0gzXSlbQ0BIXTFbQ0BIXTJbQ0BIXShbQ0BIXTRbQ0BASF0oW0NAXTM1NilPNilPW0NASF00W0NAXTcoW0NIM10pW0NAQEhdKFtPSF0pW0NIMl1bQ0hdOC9DKD1bQ0hdXEM1PU8pW0NIXThbQ0gyXUMoPU8pT1tDQEhdN2M5W2NIXVtjSF1vW2NIXTk=

>  <s_epik_cmdline>  (223) 
J2VwaWtfcHl0aG9uJywgJy1waHQnLCAnMi4wJywgJy1waCcsICc3LjAnLCAnLXRuJywgJzgnLCAnLW1hJywgJzIwMCcsICctaW1hZScsICc8aW5maWxlLm1hZT4nLCAnLW9tYWUnLCAnPG91dGZpbGUubWFlPic=

>  <r_lp_tautomer_probability>  (223) 
1

>  <r_epik_Ionization_Penalty>  (223) 
4.63503e-08

>  <r_epik_Ionization_Penalty_Charging>  (223) 
0

>  <r_epik_Ionization_Penalty_Neutral>  (223) 
4.63503e-08

>  <r_epik_State_Penalty>  (223) 
-0

>  <r_epik_Charging_Adjusted_Penalty>  (223) 
0

>  <i_epik_Tot_Q>  (223) 
0

>  <i_epik_Tot_abs_Q>  (223) 
0

>  <s_epik_Chemistry_Notes>  (223) 
This compound has an ester and may undergo hydrolysis at high or low pH.

>  <s_lp_Force_Field>  (223) 
OPLS3e

>  <r_lp_Energy>  (223) 
125.91

>  <b_lp_Chiralities_Consistent>  (223) 
1

>  <s_lp_Variant>  (223) 
64:0-3

>  <s_i_glide_gridfile>  (223) 
pfpi4k_grid

>  <i_i_glide_lignum>  (223) 
19

>  <i_i_glide_rotatable_bonds>  (223) 
2

>  <r_i_docking_score>  (223) 
-1.75735

>  <r_i_glide_ligand_efficiency>  (223) 
-0.0488153

>  <r_i_glide_ligand_efficiency_sa>  (223) 
-0.161185

>  <r_i_glide_ligand_efficiency_ln>  (223) 
-0.383407

>  <r_i_glide_gscore>  (223) 
-1.75735

>  <r_i_glide_lipo>  (223) 
-0.131954

>  <r_i_glide_hbond>  (223) 
-0.00122186

>  <r_i_glide_metal>  (223) 
-0

>  <r_i_glide_rewards>  (223) 
-0.0375686

>  <r_i_glide_evdw>  (223) 
-25.7114

>  <r_i_glide_ecoul>  (223) 
-2.47534

>  <r_i_glide_erotb>  (223) 
0.083342

>  <r_i_glide_esite>  (223) 
-0.0130784

>  <r_i_glide_emodel>  (223) 
-30.3866

>  <r_i_glide_energy>  (223) 
-28.1867

>  <r_i_glide_einternal>  (223) 
1.49746

>  <r_i_glide_intrahb_reward>  (223) 
-0

>  <i_i_glide_confnum>  (223) 
1

>  <i_i_glide_posenum>  (223) 
23

>  <r_i_glide_eff_state_penalty>  (223) 
0

>  <ligand_id>  (223) 
64

>  <original_smiles>  (223) 
CC12C(O)CC3C(=CC(=O)C45OC4C4C(OC41)C1OC4C(=O)C1C45C)C3CC(=O)OC2c1ccoc1

>  <smiles>  (223) 
[H]OC1([H])C([H])([H])C2([H])C3=C([H])C(=O)C45OC4([H])C4([H])C([H])(OC4([H])C1(C([H])([H])[H])C([H])(c1c([H])oc([H])c1[H])OC(=O)C([H])([H])C32[H])C1([H])OC2([H])C(=O)C1([H])C25C([H])([H])[H]

$$$$
64:3:0
     RDKit          3D

 62 70  0  0  1  0  0  0  0  0999 V2000
    6.4613   -3.2880   -0.8660 C   0  0  0  0  0  0  0  0  0  0  0  0
    5.5121   -3.0150    0.3331 C   0  0  2  0  0  0  0  0  0  0  0  0
    6.0826   -1.7180    1.0727 C   0  0  1  0  0  0  0  0  0  0  0  0
    5.8377   -0.4892    0.4385 O   0  0  0  0  0  0  0  0  0  0  0  0
    6.0618   -1.5154    2.6174 C   0  0  0  0  0  0  0  0  0  0  0  0
    5.0433   -0.6455    3.3995 C   0  0  2  0  0  0  0  0  0  0  0  0
    4.4122   -1.4064    4.5079 C   0  0  0  0  0  0  0  0  0  0  0  0
    4.6961   -2.3289    5.4462 C   0  0  0  0  0  0  0  0  0  0  0  0
    3.7737   -3.4344    5.7673 C   0  0  0  0  0  0  0  0  0  0  0  0
    3.1876   -3.5242    6.8481 O   0  0  0  0  0  0  0  0  0  0  0  0
    3.6906   -4.5364    4.6986 C   0  0  2  0  0  0  0  0  0  0  0  0
    4.6120   -5.6270    4.8102 O   0  0  0  0  0  0  0  0  0  0  0  0
    5.0296   -4.6027    3.9195 C   0  0  1  0  0  0  0  0  0  0  0  0
    4.7213   -4.5551    2.4577 C   0  0  2  0  0  0  0  0  0  0  0  0
    4.4742   -5.9102    1.8849 C   0  0  2  0  0  0  0  0  0  0  0  0
    4.9099   -5.4405    0.5786 O   0  0  0  0  0  0  0  0  0  0  0  0
    5.6009   -4.3165    1.2320 C   0  0  1  0  0  0  0  0  0  0  0  0
    3.0602   -6.4486    2.1246 C   0  0  1  0  0  0  0  0  0  0  0  0
    3.0844   -7.2198    3.3414 O   0  0  0  0  0  0  0  0  0  0  0  0
    2.0516   -6.6516    4.1643 C   0  0  2  0  0  0  0  0  0  0  0  0
    0.9689   -6.3740    3.1398 C   0  0  0  0  0  0  0  0  0  0  0  0
   -0.2003   -6.6593    2.8813 O   0  0  0  0  0  0  0  0  0  0  0  0
    2.0453   -5.4252    2.6562 C   0  0  1  0  0  0  0  0  0  0  0  0
    2.2674   -5.0782    4.1892 C   0  0  2  0  0  0  0  0  0  0  0  0
    1.1368   -4.1989    4.8503 C   0  0  0  0  0  0  0  0  0  0  0  0
    3.4643   -0.7583    3.5951 C   0  0  2  0  0  0  0  0  0  0  0  0
    2.5066   -1.5296    2.7258 C   0  0  0  0  0  0  0  0  0  0  0  0
    2.9059   -1.3720    1.2804 C   0  0  0  0  0  0  0  0  0  0  0  0
    3.1755   -0.2718    0.8043 O   0  0  0  0  0  0  0  0  0  0  0  0
    3.0377   -2.5534    0.6894 O   0  0  0  0  0  0  0  0  0  0  0  0
    4.0554   -2.8224   -0.2653 C   0  0  1  0  0  0  0  0  0  0  0  0
    3.8543   -2.1728   -1.6388 C   0  0  0  0  0  0  0  0  0  0  0  0
    3.0077   -2.6757   -2.6760 C   0  0  0  0  0  0  0  0  0  0  0  0
    3.0924   -1.8014   -3.7207 C   0  0  0  0  0  0  0  0  0  0  0  0
    3.9383   -0.7882   -3.4304 O   0  0  0  0  0  0  0  0  0  0  0  0
    4.3779   -1.0252   -2.1697 C   0  0  0  0  0  0  0  0  0  0  0  0
    6.5740   -2.4312   -1.5280 H   0  0  0  0  0  0  0  0  0  0  0  0
    6.0850   -4.1120   -1.4702 H   0  0  0  0  0  0  0  0  0  0  0  0
    7.4644   -3.5625   -0.5436 H   0  0  0  0  0  0  0  0  0  0  0  0
    7.1541   -1.8174    0.9130 H   0  0  0  0  0  0  0  0  0  0  0  0
    4.9050   -0.2908    0.5061 H   0  0  0  0  0  0  0  0  0  0  0  0
    6.1978   -2.4669    3.1006 H   0  0  0  0  0  0  0  0  0  0  0  0
    6.9908   -0.9834    2.8099 H   0  0  0  0  0  0  0  0  0  0  0  0
    5.4316    0.3535    3.5820 H   0  0  0  0  0  0  0  0  0  0  0  0
    5.7261   -2.4877    5.7324 H   0  0  0  0  0  0  0  0  0  0  0  0
    5.9747   -4.1987    4.2618 H   0  0  0  0  0  0  0  0  0  0  0  0
    3.8669   -3.9380    2.3007 H   0  0  0  0  0  0  0  0  0  0  0  0
    5.2098   -6.6182    2.2664 H   0  0  0  0  0  0  0  0  0  0  0  0
    6.6305   -4.5843    1.4762 H   0  0  0  0  0  0  0  0  0  0  0  0
    2.6857   -7.0445    1.2871 H   0  0  0  0  0  0  0  0  0  0  0  0
    1.7845   -7.1363    5.1042 H   0  0  0  0  0  0  0  0  0  0  0  0
    1.7149   -4.6121    2.0121 H   0  0  0  0  0  0  0  0  0  0  0  0
    0.1525   -4.3072    4.3954 H   0  0  0  0  0  0  0  0  0  0  0  0
    1.3382   -3.1319    4.7802 H   0  0  0  0  0  0  0  0  0  0  0  0
    1.0043   -4.4385    5.9063 H   0  0  0  0  0  0  0  0  0  0  0  0
    3.0076    0.1624    3.9425 H   0  0  0  0  0  0  0  0  0  0  0  0
    2.4906   -2.5751    3.0103 H   0  0  0  0  0  0  0  0  0  0  0  0
    1.5055   -1.1250    2.8671 H   0  0  0  0  0  0  0  0  0  0  0  0
    3.7773   -3.8299   -0.5583 H   0  0  0  0  0  0  0  0  0  0  0  0
    2.3928   -3.5625   -2.6586 H   0  0  0  0  0  0  0  0  0  0  0  0
    2.6252   -1.7381   -4.6909 H   0  0  0  0  0  0  0  0  0  0  0  0
    5.0519   -0.2594   -1.8202 H   0  0  0  0  0  0  0  0  0  0  0  0
  2  1  1  6
  1 37  1  0
  1 38  1  0
  1 39  1  0
  2 17  1  0
  2 31  1  0
  2  3  1  0
  3  4  1  0
  3  5  1  0
  3 40  1  6
  4 41  1  0
  5  6  1  0
  5 42  1  0
  5 43  1  0
  6 26  1  0
  6  7  1  0
  6 44  1  1
  7  8  2  3
  7 26  1  0
  8  9  1  0
  8 45  1  0
  9 10  2  0
  9 11  1  0
 11 13  1  0
 11 24  1  0
 11 12  1  1
 12 13  1  0
 13 14  1  0
 13 46  1  1
 14 17  1  0
 14 15  1  0
 14 47  1  1
 15 16  1  0
 15 18  1  0
 15 48  1  1
 16 17  1  0
 17 49  1  1
 18 23  1  0
 18 19  1  0
 18 50  1  6
 19 20  1  0
 20 24  1  0
 20 21  1  0
 20 51  1  1
 21 22  2  0
 21 23  1  0
 23 24  1  0
 23 52  1  6
 24 25  1  1
 25 53  1  0
 25 54  1  0
 25 55  1  0
 26 27  1  0
 26 56  1  1
 27 28  1  0
 27 57  1  0
 27 58  1  0
 28 29  2  0
 28 30  1  0
 30 31  1  0
 31 32  1  0
 31 59  1  6
 32 36  2  0
 32 33  1  0
 33 34  2  0
 33 60  1  0
 34 35  1  0
 34 61  1  0
 35 36  1  0
 36 62  1  0
M  END
>  <i_m_ct_stereo_status>  (224) 
1

>  <s_m_source_file>  (224) 
/var/tmp/pbs.5076255.sched01/tmp7qb2j_xu/82up84z1qn.sdf

>  <i_m_source_file_index>  (224) 
20

>  <i_lp_mmshare_version>  (224) 
48012

>  <i_f3d_flags>  (224) 
0

>  <s_epik_input>  (224) 
Tz1DMVtDQEBIXShPMilbQ0BdMyhbQ0gzXSlbQ0BIXTFbQ0BIXTJbQ0BIXShbQ0BIXTRbQ0BASF0oW0NAXTM1NilPNilPW0NASF00W0NAXTcoW0NIM10pW0NAQEhdKFtPSF0pW0NIMl1bQ0hdOC9DKD1bQ0hdXEM1PU8pW0NIXThbQ0gyXUMoPU8pT1tDQEhdN2M5W2NIXVtjSF1vW2NIXTk=

>  <s_epik_cmdline>  (224) 
J2VwaWtfcHl0aG9uJywgJy1waHQnLCAnMi4wJywgJy1waCcsICc3LjAnLCAnLXRuJywgJzgnLCAnLW1hJywgJzIwMCcsICctaW1hZScsICc8aW5maWxlLm1hZT4nLCAnLW9tYWUnLCAnPG91dGZpbGUubWFlPic=

>  <r_lp_tautomer_probability>  (224) 
1

>  <r_epik_Ionization_Penalty>  (224) 
4.63503e-08

>  <r_epik_Ionization_Penalty_Charging>  (224) 
0

>  <r_epik_Ionization_Penalty_Neutral>  (224) 
4.63503e-08

>  <r_epik_State_Penalty>  (224) 
-0

>  <r_epik_Charging_Adjusted_Penalty>  (224) 
0

>  <i_epik_Tot_Q>  (224) 
0

>  <i_epik_Tot_abs_Q>  (224) 
0

>  <s_epik_Chemistry_Notes>  (224) 
This compound has an ester and may undergo hydrolysis at high or low pH.

>  <s_lp_Force_Field>  (224) 
OPLS3e

>  <r_lp_Energy>  (224) 
134.846

>  <b_lp_Chiralities_Consistent>  (224) 
1

>  <s_lp_Variant>  (224) 
64:0-4

>  <s_i_glide_gridfile>  (224) 
pfpi4k_grid

>  <i_i_glide_lignum>  (224) 
20

>  <i_i_glide_rotatable_bonds>  (224) 
2

>  <r_i_docking_score>  (224) 
-3.35683

>  <r_i_glide_ligand_efficiency>  (224) 
-0.0932454

>  <r_i_glide_ligand_efficiency_sa>  (224) 
-0.30789

>  <r_i_glide_ligand_efficiency_ln>  (224) 
-0.732371

>  <r_i_glide_gscore>  (224) 
-3.35683

>  <r_i_glide_lipo>  (224) 
-0.88726

>  <r_i_glide_hbond>  (224) 
-0.16

>  <r_i_glide_metal>  (224) 
-0

>  <r_i_glide_rewards>  (224) 
-0.537569

>  <r_i_glide_evdw>  (224) 
-26.9994

>  <r_i_glide_ecoul>  (224) 
-2.79003

>  <r_i_glide_erotb>  (224) 
0.083342

>  <r_i_glide_esite>  (224) 
-0.0868732

>  <r_i_glide_emodel>  (224) 
-40.311

>  <r_i_glide_energy>  (224) 
-29.7895

>  <r_i_glide_einternal>  (224) 
0.114385

>  <r_i_glide_intrahb_reward>  (224) 
-0.5

>  <i_i_glide_confnum>  (224) 
1

>  <i_i_glide_posenum>  (224) 
23

>  <r_i_glide_eff_state_penalty>  (224) 
0

>  <ligand_id>  (224) 
64

>  <original_smiles>  (224) 
CC12C(O)CC3C(=CC(=O)C45OC4C4C(OC41)C1OC4C(=O)C1C45C)C3CC(=O)OC2c1ccoc1

>  <smiles>  (224) 
[H]OC1([H])C([H])([H])C2([H])C3=C([H])C(=O)C45OC4([H])C4([H])C([H])(OC4([H])C1(C([H])([H])[H])C([H])(c1c([H])oc([H])c1[H])OC(=O)C([H])([H])C32[H])C1([H])OC2([H])C(=O)C1([H])C25C([H])([H])[H]

$$$$
64:3:1
     RDKit          3D

 62 70  0  0  1  0  0  0  0  0999 V2000
    6.3590   -3.3950   -0.7876 C   0  0  0  0  0  0  0  0  0  0  0  0
    5.4273   -3.0686    0.4126 C   0  0  2  0  0  0  0  0  0  0  0  0
    6.0501   -1.7655    1.1178 C   0  0  1  0  0  0  0  0  0  0  0  0
    5.8484   -0.5412    0.4728 O   0  0  0  0  0  0  0  0  0  0  0  0
    6.0552   -1.5166    2.6546 C   0  0  0  0  0  0  0  0  0  0  0  0
    5.0536   -0.5961    3.4018 C   0  0  2  0  0  0  0  0  0  0  0  0
    4.4236   -1.3047    4.5416 C   0  0  0  0  0  0  0  0  0  0  0  0
    4.6989   -2.1971    5.5162 C   0  0  0  0  0  0  0  0  0  0  0  0
    3.7733   -3.2750    5.8729 C   0  0  0  0  0  0  0  0  0  0  0  0
    3.2057   -3.3271    6.9626 O   0  0  0  0  0  0  0  0  0  0  0  0
    3.6598   -4.4140    4.8473 C   0  0  2  0  0  0  0  0  0  0  0  0
    4.5502   -5.5074    4.9888 O   0  0  0  0  0  0  0  0  0  0  0  0
    4.9853   -4.5388    4.0571 C   0  0  1  0  0  0  0  0  0  0  0  0
    4.6480   -4.5256    2.5876 C   0  0  2  0  0  0  0  0  0  0  0  0
    4.3761   -5.8958    2.0714 C   0  0  2  0  0  0  0  0  0  0  0  0
    4.7960   -5.4756    0.7407 O   0  0  0  0  0  0  0  0  0  0  0  0
    5.5161   -4.3438    1.3520 C   0  0  1  0  0  0  0  0  0  0  0  0
    2.9550   -6.4008    2.3485 C   0  0  1  0  0  0  0  0  0  0  0  0
    2.9887   -7.1338    3.5934 O   0  0  0  0  0  0  0  0  0  0  0  0
    1.9847   -6.5130    4.4097 C   0  0  2  0  0  0  0  0  0  0  0  0
    0.8900   -6.2759    3.3889 C   0  0  0  0  0  0  0  0  0  0  0  0
   -0.2691   -6.6012    3.1457 O   0  0  0  0  0  0  0  0  0  0  0  0
    1.9630   -5.3427    2.8591 C   0  0  1  0  0  0  0  0  0  0  0  0
    2.2186   -4.9434    4.3719 C   0  0  2  0  0  0  0  0  0  0  0  0
    1.1127   -4.0303    5.0177 C   0  0  0  0  0  0  0  0  0  0  0  0
    3.4795   -0.6710    3.6123 C   0  0  2  0  0  0  0  0  0  0  0  0
    2.4968   -1.4583    2.7844 C   0  0  0  0  0  0  0  0  0  0  0  0
    2.8814   -1.3627    1.3252 C   0  0  0  0  0  0  0  0  0  0  0  0
    3.1766   -0.2858    0.8205 O   0  0  0  0  0  0  0  0  0  0  0  0
    2.9712   -2.5676    0.7639 O   0  0  0  0  0  0  0  0  0  0  0  0
    3.9721   -2.8919   -0.1963 C   0  0  1  0  0  0  0  0  0  0  0  0
    3.7850   -2.2289   -1.5778 C   0  0  0  0  0  0  0  0  0  0  0  0
    4.2471   -0.9524   -2.0448 C   0  0  0  0  0  0  0  0  0  0  0  0
    3.8070   -0.8045   -3.3214 C   0  0  0  0  0  0  0  0  0  0  0  0
    3.1005   -1.8973   -3.7184 O   0  0  0  0  0  0  0  0  0  0  0  0
    3.0940   -2.7372   -2.6446 C   0  0  0  0  0  0  0  0  0  0  0  0
    6.4726   -2.5585   -1.4788 H   0  0  0  0  0  0  0  0  0  0  0  0
    5.9709   -4.2352   -1.3636 H   0  0  0  0  0  0  0  0  0  0  0  0
    7.3627   -3.6718   -0.4711 H   0  0  0  0  0  0  0  0  0  0  0  0
    7.1121   -1.9174    0.9538 H   0  0  0  0  0  0  0  0  0  0  0  0
    4.9236   -0.3243    0.5246 H   0  0  0  0  0  0  0  0  0  0  0  0
    6.1845   -2.4556    3.1817 H   0  0  0  0  0  0  0  0  0  0  0  0
    6.9848   -0.9889    2.8062 H   0  0  0  0  0  0  0  0  0  0  0  0
    5.4653    0.3997    3.5394 H   0  0  0  0  0  0  0  0  0  0  0  0
    5.7294   -2.3644    5.7724 H   0  0  0  0  0  0  0  0  0  0  0  0
    5.9397   -4.1307    4.3833 H   0  0  0  0  0  0  0  0  0  0  0  0
    3.8028   -3.8964    2.4279 H   0  0  0  0  0  0  0  0  0  0  0  0
    5.1135   -6.5961    2.4712 H   0  0  0  0  0  0  0  0  0  0  0  0
    6.5481   -4.6208    1.5888 H   0  0  0  0  0  0  0  0  0  0  0  0
    2.5677   -7.0158    1.5300 H   0  0  0  0  0  0  0  0  0  0  0  0
    1.7196   -6.9572    5.3692 H   0  0  0  0  0  0  0  0  0  0  0  0
    1.6441   -4.5400    2.1981 H   0  0  0  0  0  0  0  0  0  0  0  0
    0.1180   -4.1341    4.5765 H   0  0  0  0  0  0  0  0  0  0  0  0
    1.3326   -2.9714    4.9107 H   0  0  0  0  0  0  0  0  0  0  0  0
    0.9901   -4.2298    6.0851 H   0  0  0  0  0  0  0  0  0  0  0  0
    3.0385    0.2715    3.9315 H   0  0  0  0  0  0  0  0  0  0  0  0
    2.4686   -2.4939    3.1096 H   0  0  0  0  0  0  0  0  0  0  0  0
    1.5049   -1.0297    2.9279 H   0  0  0  0  0  0  0  0  0  0  0  0
    3.6577   -3.9057   -0.4620 H   0  0  0  0  0  0  0  0  0  0  0  0
    4.8034   -0.1833   -1.5409 H   0  0  0  0  0  0  0  0  0  0  0  0
    3.8888    0.0120   -4.0233 H   0  0  0  0  0  0  0  0  0  0  0  0
    2.5267   -3.6511   -2.8130 H   0  0  0  0  0  0  0  0  0  0  0  0
  2  1  1  6
  1 37  1  0
  1 38  1  0
  1 39  1  0
  2 17  1  0
  2 31  1  0
  2  3  1  0
  3  4  1  0
  3  5  1  0
  3 40  1  6
  4 41  1  0
  5  6  1  0
  5 42  1  0
  5 43  1  0
  6 26  1  0
  6  7  1  0
  6 44  1  1
  7  8  2  3
  7 26  1  0
  8  9  1  0
  8 45  1  0
  9 10  2  0
  9 11  1  0
 11 13  1  0
 11 24  1  0
 11 12  1  1
 12 13  1  0
 13 14  1  0
 13 46  1  6
 14 17  1  0
 14 15  1  0
 14 47  1  1
 15 16  1  0
 15 18  1  0
 15 48  1  1
 16 17  1  0
 17 49  1  1
 18 23  1  0
 18 19  1  0
 18 50  1  6
 19 20  1  0
 20 24  1  0
 20 21  1  0
 20 51  1  1
 21 22  2  0
 21 23  1  0
 23 24  1  0
 23 52  1  6
 24 25  1  1
 25 53  1  0
 25 54  1  0
 25 55  1  0
 26 27  1  0
 26 56  1  1
 27 28  1  0
 27 57  1  0
 27 58  1  0
 28 29  2  0
 28 30  1  0
 30 31  1  0
 31 32  1  0
 31 59  1  6
 32 36  2  0
 32 33  1  0
 33 34  2  0
 33 60  1  0
 34 35  1  0
 34 61  1  0
 35 36  1  0
 36 62  1  0
M  END
>  <i_m_ct_stereo_status>  (225) 
1

>  <s_m_source_file>  (225) 
/var/tmp/pbs.5076255.sched01/tmp7qb2j_xu/82up84z1qn.sdf

>  <i_m_source_file_index>  (225) 
20

>  <i_lp_mmshare_version>  (225) 
48012

>  <i_f3d_flags>  (225) 
0

>  <s_epik_input>  (225) 
Tz1DMVtDQEBIXShPMilbQ0BdMyhbQ0gzXSlbQ0BIXTFbQ0BIXTJbQ0BIXShbQ0BIXTRbQ0BASF0oW0NAXTM1NilPNilPW0NASF00W0NAXTcoW0NIM10pW0NAQEhdKFtPSF0pW0NIMl1bQ0hdOC9DKD1bQ0hdXEM1PU8pW0NIXThbQ0gyXUMoPU8pT1tDQEhdN2M5W2NIXVtjSF1vW2NIXTk=

>  <s_epik_cmdline>  (225) 
J2VwaWtfcHl0aG9uJywgJy1waHQnLCAnMi4wJywgJy1waCcsICc3LjAnLCAnLXRuJywgJzgnLCAnLW1hJywgJzIwMCcsICctaW1hZScsICc8aW5maWxlLm1hZT4nLCAnLW9tYWUnLCAnPG91dGZpbGUubWFlPic=

>  <r_lp_tautomer_probability>  (225) 
1

>  <r_epik_Ionization_Penalty>  (225) 
4.63503e-08

>  <r_epik_Ionization_Penalty_Charging>  (225) 
0

>  <r_epik_Ionization_Penalty_Neutral>  (225) 
4.63503e-08

>  <r_epik_State_Penalty>  (225) 
-0

>  <r_epik_Charging_Adjusted_Penalty>  (225) 
0

>  <i_epik_Tot_Q>  (225) 
0

>  <i_epik_Tot_abs_Q>  (225) 
0

>  <s_epik_Chemistry_Notes>  (225) 
This compound has an ester and may undergo hydrolysis at high or low pH.

>  <s_lp_Force_Field>  (225) 
OPLS3e

>  <r_lp_Energy>  (225) 
134.846

>  <b_lp_Chiralities_Consistent>  (225) 
1

>  <s_lp_Variant>  (225) 
64:0-4

>  <s_i_glide_gridfile>  (225) 
pfpi4k_grid

>  <i_i_glide_lignum>  (225) 
20

>  <i_i_glide_rotatable_bonds>  (225) 
2

>  <r_i_docking_score>  (225) 
-3.25358

>  <r_i_glide_ligand_efficiency>  (225) 
-0.0903774

>  <r_i_glide_ligand_efficiency_sa>  (225) 
-0.298419

>  <r_i_glide_ligand_efficiency_ln>  (225) 
-0.709844

>  <r_i_glide_gscore>  (225) 
-3.25358

>  <r_i_glide_lipo>  (225) 
-0.825206

>  <r_i_glide_hbond>  (225) 
-0.153584

>  <r_i_glide_metal>  (225) 
-0

>  <r_i_glide_rewards>  (225) 
-0.537569

>  <r_i_glide_evdw>  (225) 
-26.2345

>  <r_i_glide_ecoul>  (225) 
-2.83321

>  <r_i_glide_erotb>  (225) 
0.083342

>  <r_i_glide_esite>  (225) 
-0.0838595

>  <r_i_glide_emodel>  (225) 
-38.8788

>  <r_i_glide_energy>  (225) 
-29.0678

>  <r_i_glide_einternal>  (225) 
0.655172

>  <r_i_glide_intrahb_reward>  (225) 
-0.5

>  <i_i_glide_confnum>  (225) 
2

>  <i_i_glide_posenum>  (225) 
9

>  <r_i_glide_eff_state_penalty>  (225) 
0

>  <ligand_id>  (225) 
64

>  <original_smiles>  (225) 
CC12C(O)CC3C(=CC(=O)C45OC4C4C(OC41)C1OC4C(=O)C1C45C)C3CC(=O)OC2c1ccoc1

>  <smiles>  (225) 
[H]OC1([H])C([H])([H])C2([H])C3=C([H])C(=O)C45OC4([H])C4([H])C([H])(OC4([H])C1(C([H])([H])[H])C([H])(c1c([H])oc([H])c1[H])OC(=O)C([H])([H])C32[H])C1([H])OC2([H])C(=O)C1([H])C25C([H])([H])[H]

$$$$
64:3:2
     RDKit          3D

 62 70  0  0  1  0  0  0  0  0999 V2000
    3.0399   -6.8370    5.2179 C   0  0  0  0  0  0  0  0  0  0  0  0
    3.2575   -5.8636    4.0262 C   0  0  2  0  0  0  0  0  0  0  0  0
    4.3368   -6.5568    3.0688 C   0  0  1  0  0  0  0  0  0  0  0  0
    3.8341   -7.6207    2.2832 O   0  0  0  0  0  0  0  0  0  0  0  0
    5.4608   -5.7719    2.3071 C   0  0  0  0  0  0  0  0  0  0  0  0
    5.3904   -5.4082    0.7974 C   0  0  2  0  0  0  0  0  0  0  0  0
    5.6262   -3.9663    0.5643 C   0  0  0  0  0  0  0  0  0  0  0  0
    6.3630   -2.9490    1.0324 C   0  0  0  0  0  0  0  0  0  0  0  0
    5.8122   -1.5966    1.2186 C   0  0  0  0  0  0  0  0  0  0  0  0
    6.1698   -0.6477    0.5148 O   0  0  0  0  0  0  0  0  0  0  0  0
    4.8582   -1.4458    2.4217 C   0  0  2  0  0  0  0  0  0  0  0  0
    5.4316   -1.0932    3.6877 O   0  0  0  0  0  0  0  0  0  0  0  0
    5.2332   -2.4857    3.4936 C   0  0  1  0  0  0  0  0  0  0  0  0
    4.0104   -3.2306    3.8968 C   0  0  2  0  0  0  0  0  0  0  0  0
    3.2703   -2.5578    4.9973 C   0  0  2  0  0  0  0  0  0  0  0  0
    2.7074   -3.8351    5.4048 O   0  0  0  0  0  0  0  0  0  0  0  0
    3.7896   -4.5213    4.6797 C   0  0  1  0  0  0  0  0  0  0  0  0
    2.3858   -1.3921    4.5497 C   0  0  1  0  0  0  0  0  0  0  0  0
    3.1653   -0.1846    4.6519 O   0  0  0  0  0  0  0  0  0  0  0  0
    3.1009    0.4168    3.3448 C   0  0  2  0  0  0  0  0  0  0  0  0
    1.6567    0.1602    2.9667 C   0  0  0  0  0  0  0  0  0  0  0  0
    0.6145    0.7651    2.7432 O   0  0  0  0  0  0  0  0  0  0  0  0
    2.1758   -1.2665    3.0335 C   0  0  1  0  0  0  0  0  0  0  0  0
    3.4512   -0.7067    2.2793 C   0  0  2  0  0  0  0  0  0  0  0  0
    3.2473   -0.3591    0.7622 C   0  0  0  0  0  0  0  0  0  0  0  0
    4.3981   -4.4765   -0.0456 C   0  0  2  0  0  0  0  0  0  0  0  0
    3.0269   -4.0031    0.3617 C   0  0  0  0  0  0  0  0  0  0  0  0
    2.2729   -5.1274    1.0272 C   0  0  0  0  0  0  0  0  0  0  0  0
    2.1308   -6.2174    0.4776 O   0  0  0  0  0  0  0  0  0  0  0  0
    1.8398   -4.7789    2.2241 O   0  0  0  0  0  0  0  0  0  0  0  0
    1.8432   -5.6585    3.3406 C   0  0  1  0  0  0  0  0  0  0  0  0
    0.8172   -6.8018    3.3132 C   0  0  0  0  0  0  0  0  0  0  0  0
   -0.2448   -6.9999    4.2646 C   0  0  0  0  0  0  0  0  0  0  0  0
   -0.9309   -8.1028    3.8641 C   0  0  0  0  0  0  0  0  0  0  0  0
   -0.4073   -8.6083    2.7258 O   0  0  0  0  0  0  0  0  0  0  0  0
    0.6559   -7.8260    2.4291 C   0  0  0  0  0  0  0  0  0  0  0  0
    2.7442   -7.8352    4.8918 H   0  0  0  0  0  0  0  0  0  0  0  0
    2.2640   -6.4687    5.8881 H   0  0  0  0  0  0  0  0  0  0  0  0
    3.9371   -6.9493    5.8241 H   0  0  0  0  0  0  0  0  0  0  0  0
    4.9521   -7.1030    3.7816 H   0  0  0  0  0  0  0  0  0  0  0  0
    3.3397   -7.2674    1.5522 H   0  0  0  0  0  0  0  0  0  0  0  0
    5.7666   -4.9212    2.8855 H   0  0  0  0  0  0  0  0  0  0  0  0
    6.3482   -6.4050    2.3685 H   0  0  0  0  0  0  0  0  0  0  0  0
    5.8951   -6.1462    0.1799 H   0  0  0  0  0  0  0  0  0  0  0  0
    7.2777   -3.1633    1.5738 H   0  0  0  0  0  0  0  0  0  0  0  0
    6.1723   -3.0055    3.5476 H   0  0  0  0  0  0  0  0  0  0  0  0
    3.3753   -3.3224    3.0538 H   0  0  0  0  0  0  0  0  0  0  0  0
    3.9690   -2.2221    5.7593 H   0  0  0  0  0  0  0  0  0  0  0  0
    4.6478   -4.6903    5.3273 H   0  0  0  0  0  0  0  0  0  0  0  0
    1.4633   -1.3058    5.1287 H   0  0  0  0  0  0  0  0  0  0  0  0
    3.5194    1.4109    3.1710 H   0  0  0  0  0  0  0  0  0  0  0  0
    1.5853   -2.0151    2.5070 H   0  0  0  0  0  0  0  0  0  0  0  0
    2.2289   -0.0730    0.4994 H   0  0  0  0  0  0  0  0  0  0  0  0
    3.4614   -1.1943    0.0950 H   0  0  0  0  0  0  0  0  0  0  0  0
    3.8808    0.4794    0.4731 H   0  0  0  0  0  0  0  0  0  0  0  0
    4.4343   -4.6552   -1.1160 H   0  0  0  0  0  0  0  0  0  0  0  0
    3.0901   -3.1412    1.0137 H   0  0  0  0  0  0  0  0  0  0  0  0
    2.4862   -3.7111   -0.5383 H   0  0  0  0  0  0  0  0  0  0  0  0
    1.3196   -5.0276    4.0506 H   0  0  0  0  0  0  0  0  0  0  0  0
   -0.4650   -6.4106    5.1415 H   0  0  0  0  0  0  0  0  0  0  0  0
   -1.7795   -8.6617    4.2435 H   0  0  0  0  0  0  0  0  0  0  0  0
    1.1672   -8.1613    1.5346 H   0  0  0  0  0  0  0  0  0  0  0  0
  2  1  1  1
  1 37  1  0
  1 38  1  0
  1 39  1  0
  2 17  1  0
  2 31  1  0
  2  3  1  0
  3  4  1  0
  3  5  1  0
  3 40  1  1
  4 41  1  0
  5  6  1  0
  5 42  1  0
  5 43  1  0
  6 26  1  0
  6  7  1  0
  6 44  1  6
  7  8  2  3
  7 26  1  0
  8  9  1  0
  8 45  1  0
  9 10  2  0
  9 11  1  0
 11 13  1  0
 11 24  1  0
 11 12  1  1
 12 13  1  0
 13 14  1  0
 13 46  1  6
 14 17  1  0
 14 15  1  0
 14 47  1  6
 15 16  1  0
 15 18  1  0
 15 48  1  1
 16 17  1  0
 17 49  1  1
 18 23  1  0
 18 19  1  0
 18 50  1  1
 19 20  1  0
 20 24  1  0
 20 21  1  0
 20 51  1  1
 21 22  2  0
 21 23  1  0
 23 24  1  0
 23 52  1  6
 24 25  1  6
 25 53  1  0
 25 54  1  0
 25 55  1  0
 26 27  1  0
 26 56  1  6
 27 28  1  0
 27 57  1  0
 27 58  1  0
 28 29  2  0
 28 30  1  0
 30 31  1  0
 31 32  1  0
 31 59  1  1
 32 36  2  0
 32 33  1  0
 33 34  2  0
 33 60  1  0
 34 35  1  0
 34 61  1  0
 35 36  1  0
 36 62  1  0
M  END
>  <i_m_ct_stereo_status>  (226) 
1

>  <s_m_source_file>  (226) 
/var/tmp/pbs.5076255.sched01/tmp7qb2j_xu/82up84z1qn.sdf

>  <i_m_source_file_index>  (226) 
20

>  <i_lp_mmshare_version>  (226) 
48012

>  <i_f3d_flags>  (226) 
0

>  <s_epik_input>  (226) 
Tz1DMVtDQEBIXShPMilbQ0BdMyhbQ0gzXSlbQ0BIXTFbQ0BIXTJbQ0BIXShbQ0BIXTRbQ0BASF0oW0NAXTM1NilPNilPW0NASF00W0NAXTcoW0NIM10pW0NAQEhdKFtPSF0pW0NIMl1bQ0hdOC9DKD1bQ0hdXEM1PU8pW0NIXThbQ0gyXUMoPU8pT1tDQEhdN2M5W2NIXVtjSF1vW2NIXTk=

>  <s_epik_cmdline>  (226) 
J2VwaWtfcHl0aG9uJywgJy1waHQnLCAnMi4wJywgJy1waCcsICc3LjAnLCAnLXRuJywgJzgnLCAnLW1hJywgJzIwMCcsICctaW1hZScsICc8aW5maWxlLm1hZT4nLCAnLW9tYWUnLCAnPG91dGZpbGUubWFlPic=

>  <r_lp_tautomer_probability>  (226) 
1

>  <r_epik_Ionization_Penalty>  (226) 
4.63503e-08

>  <r_epik_Ionization_Penalty_Charging>  (226) 
0

>  <r_epik_Ionization_Penalty_Neutral>  (226) 
4.63503e-08

>  <r_epik_State_Penalty>  (226) 
-0

>  <r_epik_Charging_Adjusted_Penalty>  (226) 
0

>  <i_epik_Tot_Q>  (226) 
0

>  <i_epik_Tot_abs_Q>  (226) 
0

>  <s_epik_Chemistry_Notes>  (226) 
This compound has an ester and may undergo hydrolysis at high or low pH.

>  <s_lp_Force_Field>  (226) 
OPLS3e

>  <r_lp_Energy>  (226) 
134.846

>  <b_lp_Chiralities_Consistent>  (226) 
1

>  <s_lp_Variant>  (226) 
64:0-4

>  <s_i_glide_gridfile>  (226) 
pfpi4k_grid

>  <i_i_glide_lignum>  (226) 
20

>  <i_i_glide_rotatable_bonds>  (226) 
2

>  <r_i_docking_score>  (226) 
-2.57191

>  <r_i_glide_ligand_efficiency>  (226) 
-0.0714419

>  <r_i_glide_ligand_efficiency_sa>  (226) 
-0.235896

>  <r_i_glide_ligand_efficiency_ln>  (226) 
-0.561121

>  <r_i_glide_gscore>  (226) 
-2.57191

>  <r_i_glide_lipo>  (226) 
-0.378989

>  <r_i_glide_hbond>  (226) 
-0.00160221

>  <r_i_glide_metal>  (226) 
-0

>  <r_i_glide_rewards>  (226) 
-0.740362

>  <r_i_glide_evdw>  (226) 
-25.2142

>  <r_i_glide_ecoul>  (226) 
-1.42963

>  <r_i_glide_erotb>  (226) 
0.083342

>  <r_i_glide_esite>  (226) 
-0.0591434

>  <r_i_glide_emodel>  (226) 
-35.5729

>  <r_i_glide_energy>  (226) 
-26.6439

>  <r_i_glide_einternal>  (226) 
0.653989

>  <r_i_glide_intrahb_reward>  (226) 
-0.5

>  <i_i_glide_confnum>  (226) 
3

>  <i_i_glide_posenum>  (226) 
34

>  <r_i_glide_eff_state_penalty>  (226) 
0

>  <ligand_id>  (226) 
64

>  <original_smiles>  (226) 
CC12C(O)CC3C(=CC(=O)C45OC4C4C(OC41)C1OC4C(=O)C1C45C)C3CC(=O)OC2c1ccoc1

>  <smiles>  (226) 
[H]OC1([H])C([H])([H])C2([H])C3=C([H])C(=O)C45OC4([H])C4([H])C([H])(OC4([H])C1(C([H])([H])[H])C([H])(c1c([H])oc([H])c1[H])OC(=O)C([H])([H])C32[H])C1([H])OC2([H])C(=O)C1([H])C25C([H])([H])[H]

$$$$
64:4:0
     RDKit          3D

 62 70  0  0  1  0  0  0  0  0999 V2000
    3.2351   -7.9433    4.8043 C   0  0  0  0  0  0  0  0  0  0  0  0
    2.5543   -9.3263    4.8032 C   0  0  2  0  0  0  0  0  0  0  0  0
    2.9074  -10.4259    5.9312 C   0  0  1  0  0  0  0  0  0  0  0  0
    3.0128  -11.7174    5.3582 O   0  0  0  0  0  0  0  0  0  0  0  0
    3.9880  -10.4076    7.0797 C   0  0  0  0  0  0  0  0  0  0  0  0
    4.4069   -9.2307    7.9678 C   0  0  1  0  0  0  0  0  0  0  0  0
    4.9524   -8.0795    7.2510 C   0  0  0  0  0  0  0  0  0  0  0  0
    5.8746   -7.6661    6.3443 C   0  0  0  0  0  0  0  0  0  0  0  0
    6.7377   -8.6428    5.6139 C   0  0  0  0  0  0  0  0  0  0  0  0
    7.6136   -9.2681    6.2065 O   0  0  0  0  0  0  0  0  0  0  0  0
    6.4959   -8.9338    4.1164 C   0  0  1  0  0  0  0  0  0  0  0  0
    6.8794  -10.2302    3.5896 O   0  0  0  0  0  0  0  0  0  0  0  0
    5.5119  -10.0916    3.9420 C   0  0  2  0  0  0  0  0  0  0  0  0
    4.3759  -10.1974    2.9319 C   0  0  2  0  0  0  0  0  0  0  0  0
    4.1367   -9.1982    1.8095 C   0  0  1  0  0  0  0  0  0  0  0  0
    2.7942   -8.8980    2.2874 O   0  0  0  0  0  0  0  0  0  0  0  0
    2.9093   -9.8856    3.3601 C   0  0  2  0  0  0  0  0  0  0  0  0
    4.9332   -7.8997    1.5852 C   0  0  1  0  0  0  0  0  0  0  0  0
    4.8150   -6.9468    2.6514 O   0  0  0  0  0  0  0  0  0  0  0  0
    6.1522   -6.5371    2.9208 C   0  0  2  0  0  0  0  0  0  0  0  0
    6.7706   -6.5009    1.5387 C   0  0  0  0  0  0  0  0  0  0  0  0
    7.2939   -5.7012    0.7661 O   0  0  0  0  0  0  0  0  0  0  0  0
    6.4526   -7.9889    1.6432 C   0  0  1  0  0  0  0  0  0  0  0  0
    6.9831   -7.8551    3.1132 C   0  0  2  0  0  0  0  0  0  0  0  0
    8.5333   -7.7490    3.3116 C   0  0  0  0  0  0  0  0  0  0  0  0
    3.8552   -7.7742    8.2521 C   0  0  1  0  0  0  0  0  0  0  0  0
    2.3955   -7.2964    7.9998 C   0  0  0  0  0  0  0  0  0  0  0  0
    1.3436   -8.2803    7.4578 C   0  0  0  0  0  0  0  0  0  0  0  0
    0.9014   -9.1948    8.1486 O   0  0  0  0  0  0  0  0  0  0  0  0
    0.9775   -8.0029    6.1777 O   0  0  0  0  0  0  0  0  0  0  0  0
    1.0350   -8.9657    5.0980 C   0  0  1  0  0  0  0  0  0  0  0  0
    0.2623   -8.4281    3.9102 C   0  0  0  0  0  0  0  0  0  0  0  0
   -0.6135   -9.1465    3.0474 C   0  0  0  0  0  0  0  0  0  0  0  0
   -1.0861   -8.2489    2.1328 C   0  0  0  0  0  0  0  0  0  0  0  0
   -0.5812   -7.0103    2.3644 O   0  0  0  0  0  0  0  0  0  0  0  0
    0.2343   -7.1418    3.4432 C   0  0  0  0  0  0  0  0  0  0  0  0
    3.1740   -7.3337    5.6815 H   0  0  0  0  0  0  0  0  0  0  0  0
    2.8182   -7.2949    4.0381 H   0  0  0  0  0  0  0  0  0  0  0  0
    4.2635   -8.0358    4.5713 H   0  0  0  0  0  0  0  0  0  0  0  0
    1.9961  -10.6216    6.4819 H   0  0  0  0  0  0  0  0  0  0  0  0
    2.6466  -12.3357    5.9851 H   0  0  0  0  0  0  0  0  0  0  0  0
    3.6360  -11.1482    7.8007 H   0  0  0  0  0  0  0  0  0  0  0  0
    4.9201  -10.8611    6.7562 H   0  0  0  0  0  0  0  0  0  0  0  0
    4.9870   -9.6052    8.8091 H   0  0  0  0  0  0  0  0  0  0  0  0
    5.9631   -6.6204    6.0913 H   0  0  0  0  0  0  0  0  0  0  0  0
    5.3215  -10.7304    4.7874 H   0  0  0  0  0  0  0  0  0  0  0  0
    4.3825  -11.1943    2.4953 H   0  0  0  0  0  0  0  0  0  0  0  0
    4.0754   -9.7725    0.8844 H   0  0  0  0  0  0  0  0  0  0  0  0
    2.2845  -10.7446    3.1076 H   0  0  0  0  0  0  0  0  0  0  0  0
    4.5953   -7.4342    0.6543 H   0  0  0  0  0  0  0  0  0  0  0  0
    6.3290   -5.7114    3.6046 H   0  0  0  0  0  0  0  0  0  0  0  0
    6.9898   -8.6532    0.9655 H   0  0  0  0  0  0  0  0  0  0  0  0
    9.0340   -7.1389    2.5610 H   0  0  0  0  0  0  0  0  0  0  0  0
    9.0122   -8.7272    3.2593 H   0  0  0  0  0  0  0  0  0  0  0  0
    8.8047   -7.3163    4.2754 H   0  0  0  0  0  0  0  0  0  0  0  0
    4.1945   -7.3503    9.1966 H   0  0  0  0  0  0  0  0  0  0  0  0
    2.0046   -6.9473    8.9557 H   0  0  0  0  0  0  0  0  0  0  0  0
    2.4182   -6.4086    7.3706 H   0  0  0  0  0  0  0  0  0  0  0  0
    0.4711   -9.8558    5.3832 H   0  0  0  0  0  0  0  0  0  0  0  0
   -0.8754  -10.1922    3.0876 H   0  0  0  0  0  0  0  0  0  0  0  0
   -1.7600   -8.3310    1.2949 H   0  0  0  0  0  0  0  0  0  0  0  0
    0.7267   -6.2306    3.7507 H   0  0  0  0  0  0  0  0  0  0  0  0
  2  1  1  1
  1 37  1  0
  1 38  1  0
  1 39  1  0
  2 17  1  0
  2 31  1  0
  2  3  1  0
  3  4  1  0
  3  5  1  0
  3 40  1  1
  4 41  1  0
  5  6  1  0
  5 42  1  0
  5 43  1  0
  6 26  1  0
  6  7  1  0
  6 44  1  1
  7  8  2  3
  7 26  1  0
  8  9  1  0
  8 45  1  0
  9 10  2  0
  9 11  1  0
 11 13  1  0
 11 24  1  0
 11 12  1  6
 12 13  1  0
 13 14  1  0
 13 46  1  1
 14 17  1  0
 14 15  1  0
 14 47  1  6
 15 16  1  0
 15 18  1  0
 15 48  1  6
 16 17  1  0
 17 49  1  6
 18 23  1  0
 18 19  1  0
 18 50  1  6
 19 20  1  0
 20 24  1  0
 20 21  1  0
 20 51  1  1
 21 22  2  0
 21 23  1  0
 23 24  1  0
 23 52  1  6
 24 25  1  6
 25 53  1  0
 25 54  1  0
 25 55  1  0
 26 27  1  0
 26 56  1  1
 27 28  1  0
 27 57  1  0
 27 58  1  0
 28 29  2  0
 28 30  1  0
 30 31  1  0
 31 32  1  0
 31 59  1  1
 32 36  2  0
 32 33  1  0
 33 34  2  0
 33 60  1  0
 34 35  1  0
 34 61  1  0
 35 36  1  0
 36 62  1  0
M  END
>  <i_m_ct_stereo_status>  (227) 
1

>  <s_m_source_file>  (227) 
/var/tmp/pbs.5076255.sched01/tmp7qb2j_xu/82up84z1qn.sdf

>  <i_m_source_file_index>  (227) 
21

>  <i_lp_mmshare_version>  (227) 
48012

>  <i_f3d_flags>  (227) 
2

>  <s_epik_input>  (227) 
Tz1DMVtDQEBIXShPMilbQ0BdMyhbQ0gzXSlbQ0BIXTFbQ0BIXTJbQ0BIXShbQ0BIXTRbQ0BASF0oW0NAXTM1NilPNilPW0NASF00W0NAXTcoW0NIM10pW0NAQEhdKFtPSF0pW0NIMl1bQ0hdOC9DKD1bQ0hdXEM1PU8pW0NIXThbQ0gyXUMoPU8pT1tDQEhdN2M5W2NIXVtjSF1vW2NIXTk=

>  <s_epik_cmdline>  (227) 
J2VwaWtfcHl0aG9uJywgJy1waHQnLCAnMi4wJywgJy1waCcsICc3LjAnLCAnLXRuJywgJzgnLCAnLW1hJywgJzIwMCcsICctaW1hZScsICc8aW5maWxlLm1hZT4nLCAnLW9tYWUnLCAnPG91dGZpbGUubWFlPic=

>  <r_lp_tautomer_probability>  (227) 
1

>  <r_epik_Ionization_Penalty>  (227) 
4.63503e-08

>  <r_epik_Ionization_Penalty_Charging>  (227) 
0

>  <r_epik_Ionization_Penalty_Neutral>  (227) 
4.63503e-08

>  <r_epik_State_Penalty>  (227) 
-0

>  <r_epik_Charging_Adjusted_Penalty>  (227) 
0

>  <i_epik_Tot_Q>  (227) 
0

>  <i_epik_Tot_abs_Q>  (227) 
0

>  <s_epik_Chemistry_Notes>  (227) 
This compound has an ester and may undergo hydrolysis at high or low pH.

>  <s_lp_Force_Field>  (227) 
OPLS3e

>  <r_lp_Energy>  (227) 
139.703

>  <b_lp_Chiralities_Consistent>  (227) 
0

>  <s_lp_Variant>  (227) 
64:0-5

>  <s_i_glide_gridfile>  (227) 
pfpi4k_grid

>  <i_i_glide_lignum>  (227) 
21

>  <i_i_glide_rotatable_bonds>  (227) 
2

>  <r_i_docking_score>  (227) 
-2.51468

>  <r_i_glide_ligand_efficiency>  (227) 
-0.0698522

>  <r_i_glide_ligand_efficiency_sa>  (227) 
-0.230647

>  <r_i_glide_ligand_efficiency_ln>  (227) 
-0.548635

>  <r_i_glide_gscore>  (227) 
-2.51468

>  <r_i_glide_lipo>  (227) 
-0.198372

>  <r_i_glide_hbond>  (227) 
-0.328984

>  <r_i_glide_metal>  (227) 
-0

>  <r_i_glide_rewards>  (227) 
-0.151183

>  <r_i_glide_evdw>  (227) 
-24.0178

>  <r_i_glide_ecoul>  (227) 
-4.62579

>  <r_i_glide_erotb>  (227) 
0.083342

>  <r_i_glide_esite>  (227) 
-0.0247209

>  <r_i_glide_emodel>  (227) 
-33.345

>  <r_i_glide_energy>  (227) 
-28.6436

>  <r_i_glide_einternal>  (227) 
0.737647

>  <r_i_glide_intrahb_reward>  (227) 
-0

>  <i_i_glide_confnum>  (227) 
2

>  <i_i_glide_posenum>  (227) 
1

>  <r_i_glide_eff_state_penalty>  (227) 
0

>  <ligand_id>  (227) 
64

>  <original_smiles>  (227) 
CC12C(O)CC3C(=CC(=O)C45OC4C4C(OC41)C1OC4C(=O)C1C45C)C3CC(=O)OC2c1ccoc1

>  <smiles>  (227) 
[H]OC1([H])C([H])([H])C2([H])C3=C([H])C(=O)C45OC4([H])C4([H])C([H])(OC4([H])C1(C([H])([H])[H])C([H])(c1c([H])oc([H])c1[H])OC(=O)C([H])([H])C32[H])C1([H])OC2([H])C(=O)C1([H])C25C([H])([H])[H]

$$$$
64:4:1
     RDKit          3D

 62 70  0  0  1  0  0  0  0  0999 V2000
    2.5499   -4.1862    2.3328 C   0  0  0  0  0  0  0  0  0  0  0  0
    3.3808   -4.8461    3.4518 C   0  0  2  0  0  0  0  0  0  0  0  0
    3.8715   -3.9957    4.7372 C   0  0  1  0  0  0  0  0  0  0  0  0
    5.2146   -4.3091    5.0641 O   0  0  0  0  0  0  0  0  0  0  0  0
    3.7568   -2.4545    5.0417 C   0  0  0  0  0  0  0  0  0  0  0  0
    2.5772   -1.5175    4.7627 C   0  0  1  0  0  0  0  0  0  0  0  0
    2.2013   -1.3967    3.3545 C   0  0  0  0  0  0  0  0  0  0  0  0
    2.6496   -1.1305    2.1009 C   0  0  0  0  0  0  0  0  0  0  0  0
    4.1033   -0.9202    1.8288 C   0  0  0  0  0  0  0  0  0  0  0  0
    4.6829    0.0682    2.2673 O   0  0  0  0  0  0  0  0  0  0  0  0
    4.9309   -1.9907    1.0853 C   0  0  1  0  0  0  0  0  0  0  0  0
    6.3566   -2.0670    1.3429 O   0  0  0  0  0  0  0  0  0  0  0  0
    5.5507   -2.9717    2.0797 C   0  0  2  0  0  0  0  0  0  0  0  0
    5.6557   -4.4844    1.9405 C   0  0  2  0  0  0  0  0  0  0  0  0
    5.2884   -5.2468    0.6770 C   0  0  1  0  0  0  0  0  0  0  0  0
    4.3019   -6.0513    1.3838 O   0  0  0  0  0  0  0  0  0  0  0  0
    4.6326   -5.4172    2.6577 C   0  0  2  0  0  0  0  0  0  0  0  0
    4.6755   -4.6307   -0.5902 C   0  0  1  0  0  0  0  0  0  0  0  0
    3.3807   -4.0499   -0.3875 O   0  0  0  0  0  0  0  0  0  0  0  0
    3.4550   -2.7817   -1.0309 C   0  0  2  0  0  0  0  0  0  0  0  0
    4.3158   -3.0595   -2.2496 C   0  0  0  0  0  0  0  0  0  0  0  0
    4.2627   -2.9980   -3.4773 O   0  0  0  0  0  0  0  0  0  0  0  0
    5.3177   -3.3660   -1.1414 C   0  0  1  0  0  0  0  0  0  0  0  0
    4.7344   -2.0857   -0.4501 C   0  0  2  0  0  0  0  0  0  0  0  0
    5.1717   -0.6982   -1.0210 C   0  0  0  0  0  0  0  0  0  0  0  0
    1.0697   -1.6964    4.3180 C   0  0  1  0  0  0  0  0  0  0  0  0
    0.2326   -2.9956    4.4783 C   0  0  0  0  0  0  0  0  0  0  0  0
    0.8528   -4.2421    5.1310 C   0  0  0  0  0  0  0  0  0  0  0  0
    1.1206   -4.2724    6.3298 O   0  0  0  0  0  0  0  0  0  0  0  0
    1.0726   -5.2494    4.2418 O   0  0  0  0  0  0  0  0  0  0  0  0
    2.3578   -5.8947    4.0657 C   0  0  1  0  0  0  0  0  0  0  0  0
    2.1859   -7.1694    3.2631 C   0  0  0  0  0  0  0  0  0  0  0  0
    2.7825   -8.4429    3.4975 C   0  0  0  0  0  0  0  0  0  0  0  0
    2.3167   -9.2822    2.5196 C   0  0  0  0  0  0  0  0  0  0  0  0
    1.4732   -8.6220    1.6894 O   0  0  0  0  0  0  0  0  0  0  0  0
    1.3978   -7.3543    2.1583 C   0  0  0  0  0  0  0  0  0  0  0  0
    1.6359   -3.6897    2.5848 H   0  0  0  0  0  0  0  0  0  0  0  0
    2.2289   -4.9140    1.5924 H   0  0  0  0  0  0  0  0  0  0  0  0
    3.1367   -3.4837    1.8022 H   0  0  0  0  0  0  0  0  0  0  0  0
    3.4163   -4.4329    5.6188 H   0  0  0  0  0  0  0  0  0  0  0  0
    5.2791   -5.2420    5.2134 H   0  0  0  0  0  0  0  0  0  0  0  0
    3.8768   -2.3818    6.1237 H   0  0  0  0  0  0  0  0  0  0  0  0
    4.6340   -1.9131    4.7021 H   0  0  0  0  0  0  0  0  0  0  0  0
    2.7154   -0.5911    5.3172 H   0  0  0  0  0  0  0  0  0  0  0  0
    1.9670   -1.1183    1.2644 H   0  0  0  0  0  0  0  0  0  0  0  0
    5.5953   -2.6867    3.1170 H   0  0  0  0  0  0  0  0  0  0  0  0
    6.6528   -4.7986    2.2415 H   0  0  0  0  0  0  0  0  0  0  0  0
    6.1479   -5.8651    0.4165 H   0  0  0  0  0  0  0  0  0  0  0  0
    5.1858   -6.1383    3.2615 H   0  0  0  0  0  0  0  0  0  0  0  0
    4.6148   -5.4051   -1.3562 H   0  0  0  0  0  0  0  0  0  0  0  0
    2.5569   -2.1877   -1.1384 H   0  0  0  0  0  0  0  0  0  0  0  0
    6.3703   -3.3636   -1.4245 H   0  0  0  0  0  0  0  0  0  0  0  0
    5.2405   -0.6513   -2.1087 H   0  0  0  0  0  0  0  0  0  0  0  0
    6.1521   -0.4134   -0.6417 H   0  0  0  0  0  0  0  0  0  0  0  0
    4.4861    0.0954   -0.7282 H   0  0  0  0  0  0  0  0  0  0  0  0
    0.4299   -0.8475    4.5542 H   0  0  0  0  0  0  0  0  0  0  0  0
   -0.6446   -2.7478    5.0759 H   0  0  0  0  0  0  0  0  0  0  0  0
   -0.1597   -3.2592    3.5036 H   0  0  0  0  0  0  0  0  0  0  0  0
    2.7112   -6.2537    5.0336 H   0  0  0  0  0  0  0  0  0  0  0  0
    3.4648   -8.7279    4.2837 H   0  0  0  0  0  0  0  0  0  0  0  0
    2.4695  -10.3250    2.2818 H   0  0  0  0  0  0  0  0  0  0  0  0
    0.7479   -6.7115    1.5888 H   0  0  0  0  0  0  0  0  0  0  0  0
  2  1  1  6
  1 37  1  0
  1 38  1  0
  1 39  1  0
  2 17  1  0
  2 31  1  0
  2  3  1  0
  3  4  1  0
  3  5  1  0
  3 40  1  1
  4 41  1  0
  5  6  1  0
  5 42  1  0
  5 43  1  0
  6 26  1  0
  6  7  1  0
  6 44  1  1
  7  8  2  3
  7 26  1  0
  8  9  1  0
  8 45  1  0
  9 10  2  0
  9 11  1  0
 11 13  1  0
 11 24  1  0
 11 12  1  6
 12 13  1  0
 13 14  1  0
 13 46  1  1
 14 17  1  0
 14 15  1  0
 14 47  1  1
 15 16  1  0
 15 18  1  0
 15 48  1  6
 16 17  1  0
 17 49  1  1
 18 23  1  0
 18 19  1  0
 18 50  1  6
 19 20  1  0
 20 24  1  0
 20 21  1  0
 20 51  1  6
 21 22  2  0
 21 23  1  0
 23 24  1  0
 23 52  1  6
 24 25  1  6
 25 53  1  0
 25 54  1  0
 25 55  1  0
 26 27  1  0
 26 56  1  1
 27 28  1  0
 27 57  1  0
 27 58  1  0
 28 29  2  0
 28 30  1  0
 30 31  1  0
 31 32  1  0
 31 59  1  1
 32 36  2  0
 32 33  1  0
 33 34  2  0
 33 60  1  0
 34 35  1  0
 34 61  1  0
 35 36  1  0
 36 62  1  0
M  END
>  <i_m_ct_stereo_status>  (228) 
1

>  <s_m_source_file>  (228) 
/var/tmp/pbs.5076255.sched01/tmp7qb2j_xu/82up84z1qn.sdf

>  <i_m_source_file_index>  (228) 
21

>  <i_lp_mmshare_version>  (228) 
48012

>  <i_f3d_flags>  (228) 
2

>  <s_epik_input>  (228) 
Tz1DMVtDQEBIXShPMilbQ0BdMyhbQ0gzXSlbQ0BIXTFbQ0BIXTJbQ0BIXShbQ0BIXTRbQ0BASF0oW0NAXTM1NilPNilPW0NASF00W0NAXTcoW0NIM10pW0NAQEhdKFtPSF0pW0NIMl1bQ0hdOC9DKD1bQ0hdXEM1PU8pW0NIXThbQ0gyXUMoPU8pT1tDQEhdN2M5W2NIXVtjSF1vW2NIXTk=

>  <s_epik_cmdline>  (228) 
J2VwaWtfcHl0aG9uJywgJy1waHQnLCAnMi4wJywgJy1waCcsICc3LjAnLCAnLXRuJywgJzgnLCAnLW1hJywgJzIwMCcsICctaW1hZScsICc8aW5maWxlLm1hZT4nLCAnLW9tYWUnLCAnPG91dGZpbGUubWFlPic=

>  <r_lp_tautomer_probability>  (228) 
1

>  <r_epik_Ionization_Penalty>  (228) 
4.63503e-08

>  <r_epik_Ionization_Penalty_Charging>  (228) 
0

>  <r_epik_Ionization_Penalty_Neutral>  (228) 
4.63503e-08

>  <r_epik_State_Penalty>  (228) 
-0

>  <r_epik_Charging_Adjusted_Penalty>  (228) 
0

>  <i_epik_Tot_Q>  (228) 
0

>  <i_epik_Tot_abs_Q>  (228) 
0

>  <s_epik_Chemistry_Notes>  (228) 
This compound has an ester and may undergo hydrolysis at high or low pH.

>  <s_lp_Force_Field>  (228) 
OPLS3e

>  <r_lp_Energy>  (228) 
139.703

>  <b_lp_Chiralities_Consistent>  (228) 
0

>  <s_lp_Variant>  (228) 
64:0-5

>  <s_i_glide_gridfile>  (228) 
pfpi4k_grid

>  <i_i_glide_lignum>  (228) 
21

>  <i_i_glide_rotatable_bonds>  (228) 
2

>  <r_i_docking_score>  (228) 
-2.32551

>  <r_i_glide_ligand_efficiency>  (228) 
-0.0645975

>  <r_i_glide_ligand_efficiency_sa>  (228) 
-0.213296

>  <r_i_glide_ligand_efficiency_ln>  (228) 
-0.507363

>  <r_i_glide_gscore>  (228) 
-2.32551

>  <r_i_glide_lipo>  (228) 
-0.350145

>  <r_i_glide_hbond>  (228) 
-0.0813699

>  <r_i_glide_metal>  (228) 
-0

>  <r_i_glide_rewards>  (228) 
-0.0789152

>  <r_i_glide_evdw>  (228) 
-27.0927

>  <r_i_glide_ecoul>  (228) 
-3.57197

>  <r_i_glide_erotb>  (228) 
0.083342

>  <r_i_glide_esite>  (228) 
-0.0079901

>  <r_i_glide_emodel>  (228) 
-35.2931

>  <r_i_glide_energy>  (228) 
-30.6647

>  <r_i_glide_einternal>  (228) 
0.384236

>  <r_i_glide_intrahb_reward>  (228) 
-0

>  <i_i_glide_confnum>  (228) 
2

>  <i_i_glide_posenum>  (228) 
9

>  <r_i_glide_eff_state_penalty>  (228) 
0

>  <ligand_id>  (228) 
64

>  <original_smiles>  (228) 
CC12C(O)CC3C(=CC(=O)C45OC4C4C(OC41)C1OC4C(=O)C1C45C)C3CC(=O)OC2c1ccoc1

>  <smiles>  (228) 
[H]OC1([H])C([H])([H])C2([H])C3=C([H])C(=O)C45OC4([H])C4([H])C([H])(OC4([H])C1(C([H])([H])[H])C([H])(c1c([H])oc([H])c1[H])OC(=O)C([H])([H])C32[H])C1([H])OC2([H])C(=O)C1([H])C25C([H])([H])[H]

$$$$
64:4:2
     RDKit          3D

 62 70  0  0  1  0  0  0  0  0999 V2000
    2.7721   -4.4874    2.3688 C   0  0  0  0  0  0  0  0  0  0  0  0
    3.7191   -5.1159    3.4091 C   0  0  2  0  0  0  0  0  0  0  0  0
    4.2219   -4.2792    4.6979 C   0  0  1  0  0  0  0  0  0  0  0  0
    5.5938   -4.5221    4.9466 O   0  0  0  0  0  0  0  0  0  0  0  0
    4.0219   -2.7624    5.0710 C   0  0  0  0  0  0  0  0  0  0  0  0
    2.7639   -1.9068    4.8990 C   0  0  1  0  0  0  0  0  0  0  0  0
    2.2951   -1.7608    3.5200 C   0  0  0  0  0  0  0  0  0  0  0  0
    2.6456   -1.4174    2.2538 C   0  0  0  0  0  0  0  0  0  0  0  0
    4.0615   -1.0888    1.9059 C   0  0  0  0  0  0  0  0  0  0  0  0
    4.5960   -0.0776    2.3503 O   0  0  0  0  0  0  0  0  0  0  0  0
    4.9127   -2.0690    1.0728 C   0  0  1  0  0  0  0  0  0  0  0  0
    6.3532   -2.0524    1.2435 O   0  0  0  0  0  0  0  0  0  0  0  0
    5.6590   -3.0404    1.9865 C   0  0  2  0  0  0  0  0  0  0  0  0
    5.8621   -4.5332    1.7782 C   0  0  2  0  0  0  0  0  0  0  0  0
    5.4680   -5.2738    0.5085 C   0  0  1  0  0  0  0  0  0  0  0  0
    4.5898   -6.1729    1.2433 O   0  0  0  0  0  0  0  0  0  0  0  0
    4.9562   -5.5621    2.5193 C   0  0  2  0  0  0  0  0  0  0  0  0
    4.7321   -4.6548   -0.6919 C   0  0  1  0  0  0  0  0  0  0  0  0
    3.4188   -4.1717   -0.3838 O   0  0  0  0  0  0  0  0  0  0  0  0
    3.3604   -2.8801   -0.9813 C   0  0  2  0  0  0  0  0  0  0  0  0
    4.1603   -3.0554   -2.2617 C   0  0  0  0  0  0  0  0  0  0  0  0
    4.0271   -2.9641   -3.4827 O   0  0  0  0  0  0  0  0  0  0  0  0
    5.2489   -3.3298   -1.2295 C   0  0  1  0  0  0  0  0  0  0  0  0
    4.6271   -2.1201   -0.4517 C   0  0  2  0  0  0  0  0  0  0  0  0
    4.9285   -0.6825   -0.9924 C   0  0  0  0  0  0  0  0  0  0  0  0
    1.2482   -2.1806    4.5352 C   0  0  1  0  0  0  0  0  0  0  0  0
    0.5179   -3.5457    4.6878 C   0  0  0  0  0  0  0  0  0  0  0  0
    1.2668   -4.7604    5.2588 C   0  0  0  0  0  0  0  0  0  0  0  0
    1.6121   -4.8072    6.4377 O   0  0  0  0  0  0  0  0  0  0  0  0
    1.5036   -5.7171    4.3229 O   0  0  0  0  0  0  0  0  0  0  0  0
    2.8165   -6.2600    4.0395 C   0  0  1  0  0  0  0  0  0  0  0  0
    2.6758   -7.5099    3.1927 C   0  0  0  0  0  0  0  0  0  0  0  0
    3.5417   -8.6423    3.1356 C   0  0  0  0  0  0  0  0  0  0  0  0
    2.9883   -9.5173    2.2403 C   0  0  0  0  0  0  0  0  0  0  0  0
    1.8355   -9.0153    1.7327 O   0  0  0  0  0  0  0  0  0  0  0  0
    1.6614   -7.8057    2.3198 C   0  0  0  0  0  0  0  0  0  0  0  0
    1.8457   -4.0634    2.6946 H   0  0  0  0  0  0  0  0  0  0  0  0
    2.4513   -5.2215    1.6303 H   0  0  0  0  0  0  0  0  0  0  0  0
    3.2714   -3.7240    1.8314 H   0  0  0  0  0  0  0  0  0  0  0  0
    3.8523   -4.7837    5.5827 H   0  0  0  0  0  0  0  0  0  0  0  0
    5.7871   -4.2513    5.8326 H   0  0  0  0  0  0  0  0  0  0  0  0
    4.1988   -2.7175    6.1466 H   0  0  0  0  0  0  0  0  0  0  0  0
    4.8340   -2.1471    4.7004 H   0  0  0  0  0  0  0  0  0  0  0  0
    2.8690   -0.9940    5.4823 H   0  0  0  0  0  0  0  0  0  0  0  0
    1.9148   -1.4234    1.4560 H   0  0  0  0  0  0  0  0  0  0  0  0
    5.7482   -2.7936    3.0304 H   0  0  0  0  0  0  0  0  0  0  0  0
    6.8956   -4.7867    2.0054 H   0  0  0  0  0  0  0  0  0  0  0  0
    6.3507   -5.8191    0.1694 H   0  0  0  0  0  0  0  0  0  0  0  0
    5.5961   -6.2598    3.0613 H   0  0  0  0  0  0  0  0  0  0  0  0
    4.6713   -5.4026   -1.4839 H   0  0  0  0  0  0  0  0  0  0  0  0
    2.4151   -2.3493   -1.0069 H   0  0  0  0  0  0  0  0  0  0  0  0
    6.2765   -3.2428   -1.5782 H   0  0  0  0  0  0  0  0  0  0  0  0
    4.9213   -0.5917   -2.0811 H   0  0  0  0  0  0  0  0  0  0  0  0
    5.9092   -0.3394   -0.6676 H   0  0  0  0  0  0  0  0  0  0  0  0
    4.2189    0.0511   -0.6183 H   0  0  0  0  0  0  0  0  0  0  0  0
    0.5655   -1.3926    4.8503 H   0  0  0  0  0  0  0  0  0  0  0  0
   -0.3366   -3.3864    5.3470 H   0  0  0  0  0  0  0  0  0  0  0  0
    0.0931   -3.8157    3.7254 H   0  0  0  0  0  0  0  0  0  0  0  0
    3.2552   -6.6326    4.9656 H   0  0  0  0  0  0  0  0  0  0  0  0
    4.4589   -8.8071    3.6801 H   0  0  0  0  0  0  0  0  0  0  0  0
    3.2642  -10.4953    1.8715 H   0  0  0  0  0  0  0  0  0  0  0  0
    0.7667   -7.2880    2.0125 H   0  0  0  0  0  0  0  0  0  0  0  0
  2  1  1  6
  1 37  1  0
  1 38  1  0
  1 39  1  0
  2 17  1  0
  2 31  1  0
  2  3  1  0
  3  4  1  0
  3  5  1  0
  3 40  1  1
  4 41  1  0
  5  6  1  0
  5 42  1  0
  5 43  1  0
  6 26  1  0
  6  7  1  0
  6 44  1  1
  7  8  2  3
  7 26  1  0
  8  9  1  0
  8 45  1  0
  9 10  2  0
  9 11  1  0
 11 13  1  0
 11 24  1  0
 11 12  1  6
 12 13  1  0
 13 14  1  0
 13 46  1  1
 14 17  1  0
 14 15  1  0
 14 47  1  1
 15 16  1  0
 15 18  1  0
 15 48  1  6
 16 17  1  0
 17 49  1  1
 18 23  1  0
 18 19  1  0
 18 50  1  6
 19 20  1  0
 20 24  1  0
 20 21  1  0
 20 51  1  6
 21 22  2  0
 21 23  1  0
 23 24  1  0
 23 52  1  6
 24 25  1  6
 25 53  1  0
 25 54  1  0
 25 55  1  0
 26 27  1  0
 26 56  1  1
 27 28  1  0
 27 57  1  0
 27 58  1  0
 28 29  2  0
 28 30  1  0
 30 31  1  0
 31 32  1  0
 31 59  1  1
 32 36  2  0
 32 33  1  0
 33 34  2  0
 33 60  1  0
 34 35  1  0
 34 61  1  0
 35 36  1  0
 36 62  1  0
M  END
>  <i_m_ct_stereo_status>  (229) 
1

>  <s_m_source_file>  (229) 
/var/tmp/pbs.5076255.sched01/tmp7qb2j_xu/82up84z1qn.sdf

>  <i_m_source_file_index>  (229) 
21

>  <i_lp_mmshare_version>  (229) 
48012

>  <i_f3d_flags>  (229) 
2

>  <s_epik_input>  (229) 
Tz1DMVtDQEBIXShPMilbQ0BdMyhbQ0gzXSlbQ0BIXTFbQ0BIXTJbQ0BIXShbQ0BIXTRbQ0BASF0oW0NAXTM1NilPNilPW0NASF00W0NAXTcoW0NIM10pW0NAQEhdKFtPSF0pW0NIMl1bQ0hdOC9DKD1bQ0hdXEM1PU8pW0NIXThbQ0gyXUMoPU8pT1tDQEhdN2M5W2NIXVtjSF1vW2NIXTk=

>  <s_epik_cmdline>  (229) 
J2VwaWtfcHl0aG9uJywgJy1waHQnLCAnMi4wJywgJy1waCcsICc3LjAnLCAnLXRuJywgJzgnLCAnLW1hJywgJzIwMCcsICctaW1hZScsICc8aW5maWxlLm1hZT4nLCAnLW9tYWUnLCAnPG91dGZpbGUubWFlPic=

>  <r_lp_tautomer_probability>  (229) 
1

>  <r_epik_Ionization_Penalty>  (229) 
4.63503e-08

>  <r_epik_Ionization_Penalty_Charging>  (229) 
0

>  <r_epik_Ionization_Penalty_Neutral>  (229) 
4.63503e-08

>  <r_epik_State_Penalty>  (229) 
-0

>  <r_epik_Charging_Adjusted_Penalty>  (229) 
0

>  <i_epik_Tot_Q>  (229) 
0

>  <i_epik_Tot_abs_Q>  (229) 
0

>  <s_epik_Chemistry_Notes>  (229) 
This compound has an ester and may undergo hydrolysis at high or low pH.

>  <s_lp_Force_Field>  (229) 
OPLS3e

>  <r_lp_Energy>  (229) 
139.703

>  <b_lp_Chiralities_Consistent>  (229) 
0

>  <s_lp_Variant>  (229) 
64:0-5

>  <s_i_glide_gridfile>  (229) 
pfpi4k_grid

>  <i_i_glide_lignum>  (229) 
21

>  <i_i_glide_rotatable_bonds>  (229) 
2

>  <r_i_docking_score>  (229) 
-2.21283

>  <r_i_glide_ligand_efficiency>  (229) 
-0.0614674

>  <r_i_glide_ligand_efficiency_sa>  (229) 
-0.202961

>  <r_i_glide_ligand_efficiency_ln>  (229) 
-0.482779

>  <r_i_glide_gscore>  (229) 
-2.21283

>  <r_i_glide_lipo>  (229) 
-0.32302

>  <r_i_glide_hbond>  (229) 
-0.0318344

>  <r_i_glide_metal>  (229) 
-0

>  <r_i_glide_rewards>  (229) 
-0.0528039

>  <r_i_glide_evdw>  (229) 
-27.5074

>  <r_i_glide_ecoul>  (229) 
-3.30929

>  <r_i_glide_erotb>  (229) 
0.083342

>  <r_i_glide_esite>  (229) 
-0.0167495

>  <r_i_glide_emodel>  (229) 
-35.229

>  <r_i_glide_energy>  (229) 
-30.8166

>  <r_i_glide_einternal>  (229) 
0.428324

>  <r_i_glide_intrahb_reward>  (229) 
-0

>  <i_i_glide_confnum>  (229) 
4

>  <i_i_glide_posenum>  (229) 
4

>  <r_i_glide_eff_state_penalty>  (229) 
0

>  <ligand_id>  (229) 
64

>  <original_smiles>  (229) 
CC12C(O)CC3C(=CC(=O)C45OC4C4C(OC41)C1OC4C(=O)C1C45C)C3CC(=O)OC2c1ccoc1

>  <smiles>  (229) 
[H]OC1([H])C([H])([H])C2([H])C3=C([H])C(=O)C45OC4([H])C4([H])C([H])(OC4([H])C1(C([H])([H])[H])C([H])(c1c([H])oc([H])c1[H])OC(=O)C([H])([H])C32[H])C1([H])OC2([H])C(=O)C1([H])C25C([H])([H])[H]

$$$$
64:6:0
     RDKit          3D

 62 70  0  0  1  0  0  0  0  0999 V2000
    2.6929   -7.4306    5.6798 C   0  0  0  0  0  0  0  0  0  0  0  0
    3.1666   -6.6130    4.4448 C   0  0  2  0  0  0  0  0  0  0  0  0
    4.5029   -7.3347    3.9498 C   0  0  1  0  0  0  0  0  0  0  0  0
    4.2590   -8.6109    3.3791 O   0  0  0  0  0  0  0  0  0  0  0  0
    5.6507   -6.6036    3.1553 C   0  0  0  0  0  0  0  0  0  0  0  0
    5.4874   -6.2501    1.6592 C   0  0  2  0  0  0  0  0  0  0  0  0
    5.8430   -4.9350    1.0159 C   0  0  0  0  0  0  0  0  0  0  0  0
    6.6122   -3.8580    1.2880 C   0  0  0  0  0  0  0  0  0  0  0  0
    6.0748   -2.5044    1.6272 C   0  0  0  0  0  0  0  0  0  0  0  0
    6.5971   -1.4873    1.1646 O   0  0  0  0  0  0  0  0  0  0  0  0
    4.9210   -2.3683    2.6285 C   0  0  2  0  0  0  0  0  0  0  0  0
    5.2903   -1.9438    3.9484 O   0  0  0  0  0  0  0  0  0  0  0  0
    5.0839   -3.3368    3.7999 C   0  0  1  0  0  0  0  0  0  0  0  0
    3.7860   -3.9957    4.1500 C   0  0  2  0  0  0  0  0  0  0  0  0
    2.9164   -3.2018    5.0599 C   0  0  2  0  0  0  0  0  0  0  0  0
    2.2657   -4.4523    5.4580 O   0  0  0  0  0  0  0  0  0  0  0  0
    3.4778   -5.1809    5.0301 C   0  0  1  0  0  0  0  0  0  0  0  0
    2.1589   -2.0640    4.3417 C   0  0  1  0  0  0  0  0  0  0  0  0
    2.9490   -0.8563    4.4083 O   0  0  0  0  0  0  0  0  0  0  0  0
    3.0908   -0.4178    3.0433 C   0  0  2  0  0  0  0  0  0  0  0  0
    1.7070   -0.6983    2.5055 C   0  0  0  0  0  0  0  0  0  0  0  0
    0.7205   -0.1044    2.0839 O   0  0  0  0  0  0  0  0  0  0  0  0
    2.1722   -2.1138    2.8013 C   0  0  1  0  0  0  0  0  0  0  0  0
    3.5615   -1.6634    2.1809 C   0  0  2  0  0  0  0  0  0  0  0  0
    3.5769   -1.5417    0.6146 C   0  0  0  0  0  0  0  0  0  0  0  0
    4.4155   -5.2612    1.0881 C   0  0  1  0  0  0  0  0  0  0  0  0
    3.4875   -5.8667    0.0821 C   0  0  0  0  0  0  0  0  0  0  0  0
    2.2462   -6.2262    0.9051 C   0  0  0  0  0  0  0  0  0  0  0  0
    1.1123   -5.8593    0.5986 O   0  0  0  0  0  0  0  0  0  0  0  0
    2.5974   -6.8919    2.0261 O   0  0  0  0  0  0  0  0  0  0  0  0
    2.0324   -6.5975    3.3064 C   0  0  1  0  0  0  0  0  0  0  0  0
    0.7808   -7.4362    3.5443 C   0  0  0  0  0  0  0  0  0  0  0  0
   -0.2516   -7.2115    4.5035 C   0  0  0  0  0  0  0  0  0  0  0  0
   -1.1606   -8.2193    4.3446 C   0  0  0  0  0  0  0  0  0  0  0  0
   -0.8032   -9.0300    3.3206 O   0  0  0  0  0  0  0  0  0  0  0  0
    0.3749   -8.5488    2.8535 C   0  0  0  0  0  0  0  0  0  0  0  0
    2.5035   -8.4787    5.4444 H   0  0  0  0  0  0  0  0  0  0  0  0
    1.7884   -7.0164    6.1204 H   0  0  0  0  0  0  0  0  0  0  0  0
    3.4244   -7.4080    6.4858 H   0  0  0  0  0  0  0  0  0  0  0  0
    5.0151   -7.6036    4.8717 H   0  0  0  0  0  0  0  0  0  0  0  0
    3.7512   -8.4996    2.5853 H   0  0  0  0  0  0  0  0  0  0  0  0
    6.0402   -5.7862    3.7308 H   0  0  0  0  0  0  0  0  0  0  0  0
    6.4932   -7.3002    3.1729 H   0  0  0  0  0  0  0  0  0  0  0  0
    5.7039   -7.1252    1.0526 H   0  0  0  0  0  0  0  0  0  0  0  0
    7.6469   -4.0163    1.5515 H   0  0  0  0  0  0  0  0  0  0  0  0
    6.0070   -3.8454    4.0246 H   0  0  0  0  0  0  0  0  0  0  0  0
    3.1699   -4.1910    3.3022 H   0  0  0  0  0  0  0  0  0  0  0  0
    3.4890   -2.8050    5.9011 H   0  0  0  0  0  0  0  0  0  0  0  0
    4.2070   -5.2286    5.8454 H   0  0  0  0  0  0  0  0  0  0  0  0
    1.1626   -1.9006    4.7630 H   0  0  0  0  0  0  0  0  0  0  0  0
    3.5439    0.5528    2.8355 H   0  0  0  0  0  0  0  0  0  0  0  0
    1.6379   -2.9159    2.2899 H   0  0  0  0  0  0  0  0  0  0  0  0
    2.6224   -1.2524    0.1729 H   0  0  0  0  0  0  0  0  0  0  0  0
    3.8214   -2.4925    0.1390 H   0  0  0  0  0  0  0  0  0  0  0  0
    4.3032   -0.8036    0.2655 H   0  0  0  0  0  0  0  0  0  0  0  0
    3.9073   -4.4814    1.5973 H   0  0  0  0  0  0  0  0  0  0  0  0
    3.2534   -5.1476   -0.7094 H   0  0  0  0  0  0  0  0  0  0  0  0
    3.9340   -6.7638   -0.3486 H   0  0  0  0  0  0  0  0  0  0  0  0
    1.6254   -5.5854    3.2563 H   0  0  0  0  0  0  0  0  0  0  0  0
   -0.3048   -6.4310    5.2456 H   0  0  0  0  0  0  0  0  0  0  0  0
   -2.0684   -8.5083    4.8513 H   0  0  0  0  0  0  0  0  0  0  0  0
    0.7804   -9.1117    2.0242 H   0  0  0  0  0  0  0  0  0  0  0  0
  2  1  1  1
  1 37  1  0
  1 38  1  0
  1 39  1  0
  2 17  1  0
  2 31  1  0
  2  3  1  0
  3  4  1  0
  3  5  1  0
  3 40  1  1
  4 41  1  0
  5  6  1  0
  5 42  1  0
  5 43  1  0
  6 26  1  0
  6  7  1  0
  6 44  1  6
  7  8  2  3
  7 26  1  0
  8  9  1  0
  8 45  1  0
  9 10  2  0
  9 11  1  0
 11 13  1  0
 11 24  1  0
 11 12  1  1
 12 13  1  0
 13 14  1  0
 13 46  1  6
 14 17  1  0
 14 15  1  0
 14 47  1  6
 15 16  1  0
 15 18  1  0
 15 48  1  1
 16 17  1  0
 17 49  1  1
 18 23  1  0
 18 19  1  0
 18 50  1  1
 19 20  1  0
 20 24  1  0
 20 21  1  0
 20 51  1  1
 21 22  2  0
 21 23  1  0
 23 24  1  0
 23 52  1  1
 24 25  1  6
 25 53  1  0
 25 54  1  0
 25 55  1  0
 26 27  1  0
 26 56  1  1
 27 28  1  0
 27 57  1  0
 27 58  1  0
 28 29  2  0
 28 30  1  0
 30 31  1  0
 31 32  1  0
 31 59  1  6
 32 36  2  0
 32 33  1  0
 33 34  2  0
 33 60  1  0
 34 35  1  0
 34 61  1  0
 35 36  1  0
 36 62  1  0
M  END
>  <i_m_ct_stereo_status>  (230) 
1

>  <s_m_source_file>  (230) 
/var/tmp/pbs.5076255.sched01/tmp7qb2j_xu/82up84z1qn.sdf

>  <i_m_source_file_index>  (230) 
23

>  <i_lp_mmshare_version>  (230) 
48012

>  <i_f3d_flags>  (230) 
0

>  <s_epik_input>  (230) 
Tz1DMVtDQEBIXShPMilbQ0BdMyhbQ0gzXSlbQ0BIXTFbQ0BIXTJbQ0BIXShbQ0BIXTRbQ0BASF0oW0NAXTM1NilPNilPW0NASF00W0NAXTcoW0NIM10pW0NAQEhdKFtPSF0pW0NIMl1bQ0hdOC9DKD1bQ0hdXEM1PU8pW0NIXThbQ0gyXUMoPU8pT1tDQEhdN2M5W2NIXVtjSF1vW2NIXTk=

>  <s_epik_cmdline>  (230) 
J2VwaWtfcHl0aG9uJywgJy1waHQnLCAnMi4wJywgJy1waCcsICc3LjAnLCAnLXRuJywgJzgnLCAnLW1hJywgJzIwMCcsICctaW1hZScsICc8aW5maWxlLm1hZT4nLCAnLW9tYWUnLCAnPG91dGZpbGUubWFlPic=

>  <r_lp_tautomer_probability>  (230) 
1

>  <r_epik_Ionization_Penalty>  (230) 
4.63503e-08

>  <r_epik_Ionization_Penalty_Charging>  (230) 
0

>  <r_epik_Ionization_Penalty_Neutral>  (230) 
4.63503e-08

>  <r_epik_State_Penalty>  (230) 
-0

>  <r_epik_Charging_Adjusted_Penalty>  (230) 
0

>  <i_epik_Tot_Q>  (230) 
0

>  <i_epik_Tot_abs_Q>  (230) 
0

>  <s_epik_Chemistry_Notes>  (230) 
This compound has an ester and may undergo hydrolysis at high or low pH.

>  <s_lp_Force_Field>  (230) 
OPLS3e

>  <r_lp_Energy>  (230) 
141.197

>  <b_lp_Chiralities_Consistent>  (230) 
1

>  <s_lp_Variant>  (230) 
64:0-7

>  <s_i_glide_gridfile>  (230) 
pfpi4k_grid

>  <i_i_glide_lignum>  (230) 
23

>  <i_i_glide_rotatable_bonds>  (230) 
2

>  <r_i_docking_score>  (230) 
-2.95558

>  <r_i_glide_ligand_efficiency>  (230) 
-0.0820993

>  <r_i_glide_ligand_efficiency_sa>  (230) 
-0.271086

>  <r_i_glide_ligand_efficiency_ln>  (230) 
-0.644827

>  <r_i_glide_gscore>  (230) 
-2.95558

>  <r_i_glide_lipo>  (230) 
-0.367906

>  <r_i_glide_hbond>  (230) 
-0.16

>  <r_i_glide_metal>  (230) 
-0

>  <r_i_glide_rewards>  (230) 
-0.657584

>  <r_i_glide_evdw>  (230) 
-22.479

>  <r_i_glide_ecoul>  (230) 
-4.48735

>  <r_i_glide_erotb>  (230) 
0.083342

>  <r_i_glide_esite>  (230) 
-0.0563737

>  <r_i_glide_emodel>  (230) 
-37.1857

>  <r_i_glide_energy>  (230) 
-26.9664

>  <r_i_glide_einternal>  (230) 
0.371918

>  <r_i_glide_intrahb_reward>  (230) 
-0.5

>  <i_i_glide_confnum>  (230) 
2

>  <i_i_glide_posenum>  (230) 
23

>  <r_i_glide_eff_state_penalty>  (230) 
0

>  <ligand_id>  (230) 
64

>  <original_smiles>  (230) 
CC12C(O)CC3C(=CC(=O)C45OC4C4C(OC41)C1OC4C(=O)C1C45C)C3CC(=O)OC2c1ccoc1

>  <smiles>  (230) 
[H]OC1([H])C([H])([H])C2([H])C3=C([H])C(=O)C45OC4([H])C4([H])C([H])(OC4([H])C1(C([H])([H])[H])C([H])(c1c([H])oc([H])c1[H])OC(=O)C([H])([H])C32[H])C1([H])OC2([H])C(=O)C1([H])C25C([H])([H])[H]

$$$$
64:6:1
     RDKit          3D

 62 70  0  0  1  0  0  0  0  0999 V2000
    4.5685   -8.5548    4.4962 C   0  0  0  0  0  0  0  0  0  0  0  0
    4.2677   -7.2671    3.6746 C   0  0  2  0  0  0  0  0  0  0  0  0
    5.4228   -7.1798    2.5734 C   0  0  1  0  0  0  0  0  0  0  0  0
    5.3299   -8.1901    1.5773 O   0  0  0  0  0  0  0  0  0  0  0  0
    5.8901   -5.8248    1.9167 C   0  0  0  0  0  0  0  0  0  0  0  0
    5.0326   -5.1127    0.8460 C   0  0  2  0  0  0  0  0  0  0  0  0
    4.7283   -3.6374    0.8046 C   0  0  0  0  0  0  0  0  0  0  0  0
    5.2311   -2.4887    1.3115 C   0  0  0  0  0  0  0  0  0  0  0  0
    4.5467   -1.6584    2.3502 C   0  0  0  0  0  0  0  0  0  0  0  0
    4.5649   -0.4287    2.2852 O   0  0  0  0  0  0  0  0  0  0  0  0
    3.9026   -2.3339    3.5684 C   0  0  2  0  0  0  0  0  0  0  0  0
    4.6542   -2.2424    4.7888 O   0  0  0  0  0  0  0  0  0  0  0  0
    4.7835   -3.4686    4.0863 C   0  0  1  0  0  0  0  0  0  0  0  0
    3.9809   -4.6817    4.4331 C   0  0  2  0  0  0  0  0  0  0  0  0
    3.3896   -4.6569    5.7981 C   0  0  2  0  0  0  0  0  0  0  0  0
    3.3292   -6.1190    5.7509 O   0  0  0  0  0  0  0  0  0  0  0  0
    4.3989   -6.1010    4.7332 C   0  0  1  0  0  0  0  0  0  0  0  0
    2.1255   -3.7752    5.8979 C   0  0  1  0  0  0  0  0  0  0  0  0
    2.5098   -2.4372    6.2824 O   0  0  0  0  0  0  0  0  0  0  0  0
    1.9468   -1.5749    5.2772 C   0  0  2  0  0  0  0  0  0  0  0  0
    0.5961   -2.2207    5.0610 C   0  0  0  0  0  0  0  0  0  0  0  0
   -0.6027   -1.9759    5.1994 O   0  0  0  0  0  0  0  0  0  0  0  0
    1.5082   -3.3269    4.5591 C   0  0  1  0  0  0  0  0  0  0  0  0
    2.3401   -2.1673    3.8584 C   0  0  2  0  0  0  0  0  0  0  0  0
    1.6745   -1.5624    2.5705 C   0  0  0  0  0  0  0  0  0  0  0  0
    3.5944   -4.5329    1.0892 C   0  0  1  0  0  0  0  0  0  0  0  0
    2.5295   -5.1183    0.2019 C   0  0  0  0  0  0  0  0  0  0  0  0
    1.8882   -6.2057    1.0735 C   0  0  0  0  0  0  0  0  0  0  0  0
    0.6738   -6.2551    1.2778 O   0  0  0  0  0  0  0  0  0  0  0  0
    2.8346   -6.9823    1.6419 O   0  0  0  0  0  0  0  0  0  0  0  0
    2.8072   -7.3627    3.0156 C   0  0  1  0  0  0  0  0  0  0  0  0
    2.0611   -8.6766    3.1780 C   0  0  0  0  0  0  0  0  0  0  0  0
    0.9917   -8.9442    4.0812 C   0  0  0  0  0  0  0  0  0  0  0  0
    0.6126  -10.2394    3.8678 C   0  0  0  0  0  0  0  0  0  0  0  0
    1.3588  -10.8026    2.8868 O   0  0  0  0  0  0  0  0  0  0  0  0
    2.2327   -9.8464    2.4789 C   0  0  0  0  0  0  0  0  0  0  0  0
    4.6126   -9.4542    3.8831 H   0  0  0  0  0  0  0  0  0  0  0  0
    3.8174   -8.7240    5.2682 H   0  0  0  0  0  0  0  0  0  0  0  0
    5.5230   -8.4860    5.0164 H   0  0  0  0  0  0  0  0  0  0  0  0
    6.3212   -7.4779    3.1131 H   0  0  0  0  0  0  0  0  0  0  0  0
    5.1789   -9.0228    2.0021 H   0  0  0  0  0  0  0  0  0  0  0  0
    6.2442   -5.1457    2.6700 H   0  0  0  0  0  0  0  0  0  0  0  0
    6.8177   -6.0688    1.3927 H   0  0  0  0  0  0  0  0  0  0  0  0
    5.2011   -5.5755   -0.1247 H   0  0  0  0  0  0  0  0  0  0  0  0
    6.2795   -2.2739    1.1746 H   0  0  0  0  0  0  0  0  0  0  0  0
    5.8120   -3.5784    3.7827 H   0  0  0  0  0  0  0  0  0  0  0  0
    3.1467   -4.8362    3.7861 H   0  0  0  0  0  0  0  0  0  0  0  0
    4.1285   -4.3463    6.5423 H   0  0  0  0  0  0  0  0  0  0  0  0
    5.3854   -6.0983    5.2143 H   0  0  0  0  0  0  0  0  0  0  0  0
    1.3923   -4.1855    6.5991 H   0  0  0  0  0  0  0  0  0  0  0  0
    1.9988   -0.4949    5.4147 H   0  0  0  0  0  0  0  0  0  0  0  0
    1.0485   -4.0716    3.9076 H   0  0  0  0  0  0  0  0  0  0  0  0
    0.5859   -1.5698    2.5802 H   0  0  0  0  0  0  0  0  0  0  0  0
    1.9406   -2.1208    1.6726 H   0  0  0  0  0  0  0  0  0  0  0  0
    1.9565   -0.5203    2.4059 H   0  0  0  0  0  0  0  0  0  0  0  0
    3.1534   -4.2424    2.0087 H   0  0  0  0  0  0  0  0  0  0  0  0
    1.8122   -4.3587   -0.0940 H   0  0  0  0  0  0  0  0  0  0  0  0
    2.9847   -5.5493   -0.6833 H   0  0  0  0  0  0  0  0  0  0  0  0
    2.1624   -6.6555    3.5384 H   0  0  0  0  0  0  0  0  0  0  0  0
    0.5368   -8.2744    4.7954 H   0  0  0  0  0  0  0  0  0  0  0  0
   -0.1515  -10.8737    4.2911 H   0  0  0  0  0  0  0  0  0  0  0  0
    2.8972  -10.1606    1.6873 H   0  0  0  0  0  0  0  0  0  0  0  0
  2  1  1  1
  1 37  1  0
  1 38  1  0
  1 39  1  0
  2 17  1  0
  2 31  1  0
  2  3  1  0
  3  4  1  0
  3  5  1  0
  3 40  1  1
  4 41  1  0
  5  6  1  0
  5 42  1  0
  5 43  1  0
  6 26  1  0
  6  7  1  0
  6 44  1  6
  7  8  2  3
  7 26  1  0
  8  9  1  0
  8 45  1  0
  9 10  2  0
  9 11  1  0
 11 13  1  0
 11 24  1  0
 11 12  1  1
 12 13  1  0
 13 14  1  0
 13 46  1  6
 14 17  1  0
 14 15  1  0
 14 47  1  6
 15 16  1  0
 15 18  1  0
 15 48  1  1
 16 17  1  0
 17 49  1  1
 18 23  1  0
 18 19  1  0
 18 50  1  1
 19 20  1  0
 20 24  1  0
 20 21  1  0
 20 51  1  1
 21 22  2  0
 21 23  1  0
 23 24  1  0
 23 52  1  6
 24 25  1  6
 25 53  1  0
 25 54  1  0
 25 55  1  0
 26 27  1  0
 26 56  1  1
 27 28  1  0
 27 57  1  0
 27 58  1  0
 28 29  2  0
 28 30  1  0
 30 31  1  0
 31 32  1  0
 31 59  1  1
 32 36  2  0
 32 33  1  0
 33 34  2  0
 33 60  1  0
 34 35  1  0
 34 61  1  0
 35 36  1  0
 36 62  1  0
M  END
>  <i_m_ct_stereo_status>  (231) 
1

>  <s_m_source_file>  (231) 
/var/tmp/pbs.5076255.sched01/tmp7qb2j_xu/82up84z1qn.sdf

>  <i_m_source_file_index>  (231) 
23

>  <i_lp_mmshare_version>  (231) 
48012

>  <i_f3d_flags>  (231) 
0

>  <s_epik_input>  (231) 
Tz1DMVtDQEBIXShPMilbQ0BdMyhbQ0gzXSlbQ0BIXTFbQ0BIXTJbQ0BIXShbQ0BIXTRbQ0BASF0oW0NAXTM1NilPNilPW0NASF00W0NAXTcoW0NIM10pW0NAQEhdKFtPSF0pW0NIMl1bQ0hdOC9DKD1bQ0hdXEM1PU8pW0NIXThbQ0gyXUMoPU8pT1tDQEhdN2M5W2NIXVtjSF1vW2NIXTk=

>  <s_epik_cmdline>  (231) 
J2VwaWtfcHl0aG9uJywgJy1waHQnLCAnMi4wJywgJy1waCcsICc3LjAnLCAnLXRuJywgJzgnLCAnLW1hJywgJzIwMCcsICctaW1hZScsICc8aW5maWxlLm1hZT4nLCAnLW9tYWUnLCAnPG91dGZpbGUubWFlPic=

>  <r_lp_tautomer_probability>  (231) 
1

>  <r_epik_Ionization_Penalty>  (231) 
4.63503e-08

>  <r_epik_Ionization_Penalty_Charging>  (231) 
0

>  <r_epik_Ionization_Penalty_Neutral>  (231) 
4.63503e-08

>  <r_epik_State_Penalty>  (231) 
-0

>  <r_epik_Charging_Adjusted_Penalty>  (231) 
0

>  <i_epik_Tot_Q>  (231) 
0

>  <i_epik_Tot_abs_Q>  (231) 
0

>  <s_epik_Chemistry_Notes>  (231) 
This compound has an ester and may undergo hydrolysis at high or low pH.

>  <s_lp_Force_Field>  (231) 
OPLS3e

>  <r_lp_Energy>  (231) 
141.197

>  <b_lp_Chiralities_Consistent>  (231) 
1

>  <s_lp_Variant>  (231) 
64:0-7

>  <s_i_glide_gridfile>  (231) 
pfpi4k_grid

>  <i_i_glide_lignum>  (231) 
23

>  <i_i_glide_rotatable_bonds>  (231) 
2

>  <r_i_docking_score>  (231) 
-2.53129

>  <r_i_glide_ligand_efficiency>  (231) 
-0.0703135

>  <r_i_glide_ligand_efficiency_sa>  (231) 
-0.23217

>  <r_i_glide_ligand_efficiency_ln>  (231) 
-0.552258

>  <r_i_glide_gscore>  (231) 
-2.53129

>  <r_i_glide_lipo>  (231) 
-0.283402

>  <r_i_glide_hbond>  (231) 
-0.16

>  <r_i_glide_metal>  (231) 
-0

>  <r_i_glide_rewards>  (231) 
-0.0919006

>  <r_i_glide_evdw>  (231) 
-24.6245

>  <r_i_glide_ecoul>  (231) 
-5.35386

>  <r_i_glide_erotb>  (231) 
0.083342

>  <r_i_glide_esite>  (231) 
-0.0450225

>  <r_i_glide_emodel>  (231) 
-34.507

>  <r_i_glide_energy>  (231) 
-29.9784

>  <r_i_glide_einternal>  (231) 
0.382879

>  <r_i_glide_intrahb_reward>  (231) 
-0

>  <i_i_glide_confnum>  (231) 
1

>  <i_i_glide_posenum>  (231) 
1

>  <r_i_glide_eff_state_penalty>  (231) 
0

>  <ligand_id>  (231) 
64

>  <original_smiles>  (231) 
CC12C(O)CC3C(=CC(=O)C45OC4C4C(OC41)C1OC4C(=O)C1C45C)C3CC(=O)OC2c1ccoc1

>  <smiles>  (231) 
[H]OC1([H])C([H])([H])C2([H])C3=C([H])C(=O)C45OC4([H])C4([H])C([H])(OC4([H])C1(C([H])([H])[H])C([H])(c1c([H])oc([H])c1[H])OC(=O)C([H])([H])C32[H])C1([H])OC2([H])C(=O)C1([H])C25C([H])([H])[H]

$$$$
64:6:2
     RDKit          3D

 62 70  0  0  1  0  0  0  0  0999 V2000
    2.9253   -7.6702    5.5530 C   0  0  0  0  0  0  0  0  0  0  0  0
    3.3050   -6.7405    4.3645 C   0  0  2  0  0  0  0  0  0  0  0  0
    4.6609   -7.3427    3.7683 C   0  0  1  0  0  0  0  0  0  0  0  0
    4.4817   -8.5951    3.1210 O   0  0  0  0  0  0  0  0  0  0  0  0
    5.7207   -6.4806    2.9810 C   0  0  0  0  0  0  0  0  0  0  0  0
    5.4686   -6.0312    1.5244 C   0  0  2  0  0  0  0  0  0  0  0  0
    5.7076   -4.6524    0.9656 C   0  0  0  0  0  0  0  0  0  0  0  0
    6.4218   -3.5452    1.2717 C   0  0  0  0  0  0  0  0  0  0  0  0
    5.8153   -2.2613    1.7357 C   0  0  0  0  0  0  0  0  0  0  0  0
    6.2506   -1.1813    1.3335 O   0  0  0  0  0  0  0  0  0  0  0  0
    4.7055   -2.2721    2.7918 C   0  0  2  0  0  0  0  0  0  0  0  0
    5.1056   -1.9153    4.1233 O   0  0  0  0  0  0  0  0  0  0  0  0
    4.9797   -3.3090    3.8814 C   0  0  1  0  0  0  0  0  0  0  0  0
    3.7422   -4.0731    4.2349 C   0  0  2  0  0  0  0  0  0  0  0  0
    2.8704   -3.4033    5.2383 C   0  0  2  0  0  0  0  0  0  0  0  0
    2.3206   -4.7194    5.5731 O   0  0  0  0  0  0  0  0  0  0  0  0
    3.5535   -5.3352    5.0408 C   0  0  1  0  0  0  0  0  0  0  0  0
    2.0111   -2.2691    4.6360 C   0  0  1  0  0  0  0  0  0  0  0  0
    2.7272   -1.0198    4.7577 O   0  0  0  0  0  0  0  0  0  0  0  0
    2.7824   -0.4801    3.4260 C   0  0  2  0  0  0  0  0  0  0  0  0
    1.3964   -0.8072    2.9278 C   0  0  0  0  0  0  0  0  0  0  0  0
    0.3672   -0.2382    2.5751 O   0  0  0  0  0  0  0  0  0  0  0  0
    1.9540   -2.2108    3.0993 C   0  0  1  0  0  0  0  0  0  0  0  0
    3.2847   -1.6308    2.4577 C   0  0  2  0  0  0  0  0  0  0  0  0
    3.2199   -1.4006    0.9053 C   0  0  0  0  0  0  0  0  0  0  0  0
    4.3088   -5.0798    1.0751 C   0  0  1  0  0  0  0  0  0  0  0  0
    3.3731   -5.6785    0.0701 C   0  0  0  0  0  0  0  0  0  0  0  0
    2.1951   -6.1748    0.9118 C   0  0  0  0  0  0  0  0  0  0  0  0
    1.0282   -5.8694    0.6742 O   0  0  0  0  0  0  0  0  0  0  0  0
    2.6370   -6.8836    1.9636 O   0  0  0  0  0  0  0  0  0  0  0  0
    2.1235   -6.7168    3.2799 C   0  0  1  0  0  0  0  0  0  0  0  0
    0.9462   -7.6503    3.5093 C   0  0  0  0  0  0  0  0  0  0  0  0
   -0.1530   -7.4539    4.3954 C   0  0  0  0  0  0  0  0  0  0  0  0
   -0.9717   -8.5370    4.2489 C   0  0  0  0  0  0  0  0  0  0  0  0
   -0.4769   -9.3914    3.3195 O   0  0  0  0  0  0  0  0  0  0  0  0
    0.6870   -8.8461    2.8859 C   0  0  0  0  0  0  0  0  0  0  0  0
    2.7968   -8.7113    5.2566 H   0  0  0  0  0  0  0  0  0  0  0  0
    2.0031   -7.3515    6.0370 H   0  0  0  0  0  0  0  0  0  0  0  0
    3.6831   -7.6512    6.3342 H   0  0  0  0  0  0  0  0  0  0  0  0
    5.2310   -7.6274    4.6524 H   0  0  0  0  0  0  0  0  0  0  0  0
    4.0134   -9.1783    3.7022 H   0  0  0  0  0  0  0  0  0  0  0  0
    6.0843   -5.6801    3.5961 H   0  0  0  0  0  0  0  0  0  0  0  0
    6.6054   -7.1173    2.9093 H   0  0  0  0  0  0  0  0  0  0  0  0
    5.7056   -6.8476    0.8458 H   0  0  0  0  0  0  0  0  0  0  0  0
    7.4747   -3.6561    1.4787 H   0  0  0  0  0  0  0  0  0  0  0  0
    5.9418   -3.7657    4.0240 H   0  0  0  0  0  0  0  0  0  0  0  0
    3.0996   -4.2486    3.4018 H   0  0  0  0  0  0  0  0  0  0  0  0
    3.4569   -3.0274    6.0820 H   0  0  0  0  0  0  0  0  0  0  0  0
    4.3230   -5.3908    5.8185 H   0  0  0  0  0  0  0  0  0  0  0  0
    1.0273   -2.2037    5.1101 H   0  0  0  0  0  0  0  0  0  0  0  0
    3.1615    0.5291    3.2706 H   0  0  0  0  0  0  0  0  0  0  0  0
    1.4465   -3.0065    2.5509 H   0  0  0  0  0  0  0  0  0  0  0  0
    2.2339   -1.1479    0.5398 H   0  0  0  0  0  0  0  0  0  0  0  0
    3.4944   -2.2974    0.3476 H   0  0  0  0  0  0  0  0  0  0  0  0
    3.8751   -0.5897    0.5744 H   0  0  0  0  0  0  0  0  0  0  0  0
    3.7791   -4.3686    1.6579 H   0  0  0  0  0  0  0  0  0  0  0  0
    3.0562   -4.9308   -0.6571 H   0  0  0  0  0  0  0  0  0  0  0  0
    3.8563   -6.5111   -0.4379 H   0  0  0  0  0  0  0  0  0  0  0  0
    1.6506   -5.7349    3.3214 H   0  0  0  0  0  0  0  0  0  0  0  0
   -0.3192   -6.6295    5.0728 H   0  0  0  0  0  0  0  0  0  0  0  0
   -1.8927   -8.8550    4.7107 H   0  0  0  0  0  0  0  0  0  0  0  0
    1.1947   -9.4269    2.1302 H   0  0  0  0  0  0  0  0  0  0  0  0
  2  1  1  1
  1 37  1  0
  1 38  1  0
  1 39  1  0
  2 17  1  0
  2 31  1  0
  2  3  1  0
  3  4  1  0
  3  5  1  0
  3 40  1  1
  4 41  1  0
  5  6  1  0
  5 42  1  0
  5 43  1  0
  6 26  1  0
  6  7  1  0
  6 44  1  6
  7  8  2  3
  7 26  1  0
  8  9  1  0
  8 45  1  0
  9 10  2  0
  9 11  1  0
 11 13  1  0
 11 24  1  0
 11 12  1  1
 12 13  1  0
 13 14  1  0
 13 46  1  6
 14 17  1  0
 14 15  1  0
 14 47  1  6
 15 16  1  0
 15 18  1  0
 15 48  1  1
 16 17  1  0
 17 49  1  1
 18 23  1  0
 18 19  1  0
 18 50  1  1
 19 20  1  0
 20 24  1  0
 20 21  1  0
 20 51  1  1
 21 22  2  0
 21 23  1  0
 23 24  1  0
 23 52  1  6
 24 25  1  6
 25 53  1  0
 25 54  1  0
 25 55  1  0
 26 27  1  0
 26 56  1  1
 27 28  1  0
 27 57  1  0
 27 58  1  0
 28 29  2  0
 28 30  1  0
 30 31  1  0
 31 32  1  0
 31 59  1  6
 32 36  2  0
 32 33  1  0
 33 34  2  0
 33 60  1  0
 34 35  1  0
 34 61  1  0
 35 36  1  0
 36 62  1  0
M  END
>  <i_m_ct_stereo_status>  (232) 
1

>  <s_m_source_file>  (232) 
/var/tmp/pbs.5076255.sched01/tmp7qb2j_xu/82up84z1qn.sdf

>  <i_m_source_file_index>  (232) 
23

>  <i_lp_mmshare_version>  (232) 
48012

>  <i_f3d_flags>  (232) 
0

>  <s_epik_input>  (232) 
Tz1DMVtDQEBIXShPMilbQ0BdMyhbQ0gzXSlbQ0BIXTFbQ0BIXTJbQ0BIXShbQ0BIXTRbQ0BASF0oW0NAXTM1NilPNilPW0NASF00W0NAXTcoW0NIM10pW0NAQEhdKFtPSF0pW0NIMl1bQ0hdOC9DKD1bQ0hdXEM1PU8pW0NIXThbQ0gyXUMoPU8pT1tDQEhdN2M5W2NIXVtjSF1vW2NIXTk=

>  <s_epik_cmdline>  (232) 
J2VwaWtfcHl0aG9uJywgJy1waHQnLCAnMi4wJywgJy1waCcsICc3LjAnLCAnLXRuJywgJzgnLCAnLW1hJywgJzIwMCcsICctaW1hZScsICc8aW5maWxlLm1hZT4nLCAnLW9tYWUnLCAnPG91dGZpbGUubWFlPic=

>  <r_lp_tautomer_probability>  (232) 
1

>  <r_epik_Ionization_Penalty>  (232) 
4.63503e-08

>  <r_epik_Ionization_Penalty_Charging>  (232) 
0

>  <r_epik_Ionization_Penalty_Neutral>  (232) 
4.63503e-08

>  <r_epik_State_Penalty>  (232) 
-0

>  <r_epik_Charging_Adjusted_Penalty>  (232) 
0

>  <i_epik_Tot_Q>  (232) 
0

>  <i_epik_Tot_abs_Q>  (232) 
0

>  <s_epik_Chemistry_Notes>  (232) 
This compound has an ester and may undergo hydrolysis at high or low pH.

>  <s_lp_Force_Field>  (232) 
OPLS3e

>  <r_lp_Energy>  (232) 
141.197

>  <b_lp_Chiralities_Consistent>  (232) 
1

>  <s_lp_Variant>  (232) 
64:0-7

>  <s_i_glide_gridfile>  (232) 
pfpi4k_grid

>  <i_i_glide_lignum>  (232) 
23

>  <i_i_glide_rotatable_bonds>  (232) 
2

>  <r_i_docking_score>  (232) 
-2.42693

>  <r_i_glide_ligand_efficiency>  (232) 
-0.0674148

>  <r_i_glide_ligand_efficiency_sa>  (232) 
-0.222599

>  <r_i_glide_ligand_efficiency_ln>  (232) 
-0.529491

>  <r_i_glide_gscore>  (232) 
-2.42693

>  <r_i_glide_lipo>  (232) 
-0.339041

>  <r_i_glide_hbond>  (232) 
-0.16

>  <r_i_glide_metal>  (232) 
-0

>  <r_i_glide_rewards>  (232) 
-0.146079

>  <r_i_glide_evdw>  (232) 
-21.0172

>  <r_i_glide_ecoul>  (232) 
-5.08621

>  <r_i_glide_erotb>  (232) 
0.083342

>  <r_i_glide_esite>  (232) 
-0.0513597

>  <r_i_glide_emodel>  (232) 
-30.3073

>  <r_i_glide_energy>  (232) 
-26.1035

>  <r_i_glide_einternal>  (232) 
0.443998

>  <r_i_glide_intrahb_reward>  (232) 
-0

>  <i_i_glide_confnum>  (232) 
1

>  <i_i_glide_posenum>  (232) 
30

>  <r_i_glide_eff_state_penalty>  (232) 
0

>  <ligand_id>  (232) 
64

>  <original_smiles>  (232) 
CC12C(O)CC3C(=CC(=O)C45OC4C4C(OC41)C1OC4C(=O)C1C45C)C3CC(=O)OC2c1ccoc1

>  <smiles>  (232) 
[H]OC1([H])C([H])([H])C2([H])C3=C([H])C(=O)C45OC4([H])C4([H])C([H])(OC4([H])C1(C([H])([H])[H])C([H])(c1c([H])oc([H])c1[H])OC(=O)C([H])([H])C32[H])C1([H])OC2([H])C(=O)C1([H])C25C([H])([H])[H]

$$$$
65:0:0
     RDKit          3D

 42 47  0  0  1  0  0  0  0  0999 V2000
    4.7704   -4.2421   -3.6340 C   0  0  0  0  0  0  0  0  0  0  0  0
    4.9689   -3.0390   -2.7108 C   0  0  0  0  0  0  0  0  0  0  0  0
    6.4457   -3.0840   -2.2534 C   0  0  0  0  0  0  0  0  0  0  0  0
    4.5242   -1.7021   -3.3688 C   0  0  1  0  0  0  0  0  0  0  0  0
    3.0603   -1.9313   -3.6865 C   0  0  0  0  0  0  0  0  0  0  0  0
    2.6140   -2.7261   -2.4626 C   0  0  0  0  0  0  0  0  0  0  0  0
    3.8970   -2.8837   -1.6208 C   0  0  2  0  0  0  0  0  0  0  0  0
    4.3535   -1.5451   -1.0037 C   0  0  1  0  0  0  0  0  0  0  0  0
    4.5684   -0.6567   -2.2280 C   0  0  0  0  0  0  0  0  0  0  0  0
    3.4989   -1.3101    0.2617 C   0  0  0  0  0  0  0  0  0  0  0  0
    2.9983   -2.7315    0.5750 C   0  0  2  0  0  0  0  0  0  0  0  0
    3.4543   -3.8338    1.5060 C   0  0  1  0  0  0  0  0  0  0  0  0
    2.8445   -5.1485    1.1116 C   0  0  2  0  0  0  0  0  0  0  0  0
    3.9783   -6.1697    1.3075 C   0  0  0  0  0  0  0  0  0  0  0  0
    5.2410   -5.3848    0.8699 C   0  0  0  0  0  0  0  0  0  0  0  0
    4.7226   -3.9664    0.7349 C   0  0  1  0  0  0  0  0  0  0  0  0
    3.6726   -3.7214   -0.3844 C   0  0  2  0  0  0  0  0  0  0  0  0
    2.7778   -4.8345   -0.2895 O   0  0  0  0  0  0  0  0  0  0  0  0
    5.4178   -4.1879   -4.5110 H   0  0  0  0  0  0  0  0  0  0  0  0
    3.7589   -4.3941   -3.9744 H   0  0  0  0  0  0  0  0  0  0  0  0
    5.0187   -5.1172   -3.0380 H   0  0  0  0  0  0  0  0  0  0  0  0
    6.8713   -2.1423   -1.9065 H   0  0  0  0  0  0  0  0  0  0  0  0
    7.0240   -3.4035   -3.0994 H   0  0  0  0  0  0  0  0  0  0  0  0
    6.5914   -3.8282   -1.4518 H   0  0  0  0  0  0  0  0  0  0  0  0
    5.0086   -1.4109   -4.3034 H   0  0  0  0  0  0  0  0  0  0  0  0
    2.5484   -0.9869   -3.8336 H   0  0  0  0  0  0  0  0  0  0  0  0
    2.9506   -2.5103   -4.6014 H   0  0  0  0  0  0  0  0  0  0  0  0
    1.8344   -2.2293   -1.9271 H   0  0  0  0  0  0  0  0  0  0  0  0
    2.1740   -3.6848   -2.7359 H   0  0  0  0  0  0  0  0  0  0  0  0
    5.3401   -1.6345   -0.5528 H   0  0  0  0  0  0  0  0  0  0  0  0
    5.5364   -0.1684   -2.1732 H   0  0  0  0  0  0  0  0  0  0  0  0
    3.8194    0.1111   -2.3699 H   0  0  0  0  0  0  0  0  0  0  0  0
    4.0406   -0.8161    1.0772 H   0  0  0  0  0  0  0  0  0  0  0  0
    2.6401   -0.6862    0.0339 H   0  0  0  0  0  0  0  0  0  0  0  0
    1.9184   -2.7790    0.4929 H   0  0  0  0  0  0  0  0  0  0  0  0
    3.5588   -3.5716    2.5597 H   0  0  0  0  0  0  0  0  0  0  0  0
    1.8791   -5.3953    1.5600 H   0  0  0  0  0  0  0  0  0  0  0  0
    4.0579   -6.4173    2.3687 H   0  0  0  0  0  0  0  0  0  0  0  0
    3.8351   -7.0948    0.7488 H   0  0  0  0  0  0  0  0  0  0  0  0
    6.0537   -5.4882    1.5925 H   0  0  0  0  0  0  0  0  0  0  0  0
    5.5928   -5.7501   -0.0969 H   0  0  0  0  0  0  0  0  0  0  0  0
    5.4279   -3.1499    0.9301 H   0  0  0  0  0  0  0  0  0  0  0  0
  1  2  1  0
  1 19  1  0
  1 20  1  0
  1 21  1  0
  2  7  1  0
  2  3  1  0
  2  4  1  0
  3 22  1  0
  3 23  1  0
  3 24  1  0
  4  9  1  0
  4  5  1  0
  4 25  1  6
  5  6  1  0
  5 26  1  0
  5 27  1  0
  7  6  1  6
  6 28  1  0
  6 29  1  0
  7 17  1  0
  7  8  1  0
  8  9  1  0
  8 10  1  0
  8 30  1  1
  9 31  1  0
  9 32  1  0
 10 11  1  0
 10 33  1  0
 10 34  1  0
 11 17  1  0
 11 12  1  0
 11 35  1  6
 12 16  1  0
 12 13  1  0
 12 36  1  1
 13 18  1  0
 13 14  1  0
 13 37  1  1
 14 15  1  0
 14 38  1  0
 14 39  1  0
 15 16  1  0
 15 40  1  0
 15 41  1  0
 16 17  1  0
 16 42  1  1
 17 18  1  6
M  END
>  <i_m_ct_stereo_status>  (233) 
1

>  <s_m_source_file>  (233) 
/var/tmp/pbs.5076255.sched01/tmp7qb2j_xu/82up84z1qn.sdf

>  <i_m_source_file_index>  (233) 
24

>  <i_lp_mmshare_version>  (233) 
48012

>  <i_f3d_flags>  (233) 
0

>  <s_epik_input>  (233) 
W0NIM11DMShbQ0gzXSlbQ0BASF0oW0NIMl1bQ0gyXTIpW0NIMl1bQ0BIXTNbQ0gyXVtDQEBIXShbQ0BAXTQ1W0NAQF0xMjMpW0NASF02W0NAQEhdKE81KVtDSDJdW0NIMl1bQ0BASF00Ng==

>  <s_epik_cmdline>  (233) 
J2VwaWtfcHl0aG9uJywgJy1waHQnLCAnMi4wJywgJy1waCcsICc3LjAnLCAnLXRuJywgJzgnLCAnLW1hJywgJzIwMCcsICctaW1hZScsICc8aW5maWxlLm1hZT4nLCAnLW9tYWUnLCAnPG91dGZpbGUubWFlPic=

>  <r_lp_tautomer_probability>  (233) 
1

>  <r_epik_Ionization_Penalty>  (233) 
2.7088e-10

>  <r_epik_Ionization_Penalty_Charging>  (233) 
0

>  <r_epik_Ionization_Penalty_Neutral>  (233) 
2.7088e-10

>  <r_epik_State_Penalty>  (233) 
-0

>  <r_epik_Charging_Adjusted_Penalty>  (233) 
0

>  <i_epik_Tot_Q>  (233) 
0

>  <i_epik_Tot_abs_Q>  (233) 
0

>  <s_lp_Force_Field>  (233) 
OPLS3e

>  <r_lp_Energy>  (233) 
115.594

>  <b_lp_Chiralities_Consistent>  (233) 
1

>  <s_lp_Variant>  (233) 
65:0-1

>  <s_i_glide_gridfile>  (233) 
pfpi4k_grid

>  <i_i_glide_lignum>  (233) 
24

>  <i_i_glide_rotatable_bonds>  (233) 
0

>  <r_i_docking_score>  (233) 
-3.25674

>  <r_i_glide_ligand_efficiency>  (233) 
-0.18093

>  <r_i_glide_ligand_efficiency_sa>  (233) 
-0.47417

>  <r_i_glide_ligand_efficiency_ln>  (233) 
-0.837128

>  <r_i_glide_gscore>  (233) 
-3.25674

>  <r_i_glide_lipo>  (233) 
-0.710721

>  <r_i_glide_hbond>  (233) 
0

>  <r_i_glide_metal>  (233) 
-0

>  <r_i_glide_rewards>  (233) 
-1.74292

>  <r_i_glide_evdw>  (233) 
-18.8831

>  <r_i_glide_ecoul>  (233) 
0.940374

>  <r_i_glide_erotb>  (233) 
0

>  <r_i_glide_esite>  (233) 
0

>  <r_i_glide_emodel>  (233) 
-18.6812

>  <r_i_glide_energy>  (233) 
-17.9427

>  <r_i_glide_einternal>  (233) 
0

>  <r_i_glide_intrahb_reward>  (233) 
-0

>  <i_i_glide_confnum>  (233) 
2

>  <i_i_glide_posenum>  (233) 
3

>  <r_i_glide_eff_state_penalty>  (233) 
0

>  <ligand_id>  (233) 
65

>  <original_smiles>  (233) 
CC1(C)C2CCC13C(C2)CC1C2C4CCC2C13O4

>  <smiles>  (233) 
[H]C([H])([H])C1(C([H])([H])[H])C2([H])C([H])([H])C([H])([H])C13C([H])(C([H])([H])C1([H])C4([H])C5([H])OC13C4([H])C([H])([H])C5([H])[H])C2([H])[H]

$$$$
66:0:0
     RDKit          3D

 42 44  0  0  1  0  0  0  0  0999 V2000
    3.0153   -0.2966   -4.5554 C   0  0  0  0  0  0  0  0  0  0  0  0
    3.5080   -1.3528   -3.7017 N   0  0  0  0  0  0  0  0  0  0  0  0
    3.3535   -1.5114   -2.3418 C   0  0  0  0  0  0  0  0  0  0  0  0
    4.0058   -2.6648   -1.9913 C   0  0  0  0  0  0  0  0  0  0  0  0
    4.1520   -3.2415   -0.7010 N   0  0  0  0  0  0  0  0  0  0  0  0
    5.2108   -4.1972   -0.4348 C   0  0  0  0  0  0  0  0  0  0  0  0
    4.6063   -5.4785    0.1573 C   0  0  0  0  0  0  0  0  0  0  0  0
    3.7679   -5.1716    1.2743 O   0  0  0  0  0  0  0  0  0  0  0  0
    2.6979   -4.2826    0.9378 C   0  0  0  0  0  0  0  0  0  0  0  0
    3.2777   -2.9421    0.4207 C   0  0  1  0  0  0  0  0  0  0  0  0
    4.0707   -2.2264    1.5342 C   0  0  0  0  0  0  0  0  0  0  0  0
    3.3463   -1.0848    2.0338 N   0  0  0  0  0  0  0  0  0  0  0  0
    3.8037   -0.2542    2.9804 C   0  0  0  0  0  0  0  0  0  0  0  0
    4.8526   -0.4564    3.5963 O   0  0  0  0  0  0  0  0  0  0  0  0
    2.9371    0.9523    3.2685 C   0  0  0  0  0  0  0  0  0  0  0  0
    3.1461    1.7772    4.2997 N   0  0  0  0  0  0  0  0  0  0  0  0
    2.1564    2.7422    4.2090 C   0  0  0  0  0  0  0  0  0  0  0  0
    1.3558    2.4703    3.1306 C   0  0  0  0  0  0  0  0  0  0  0  0
    1.8632    1.3260    2.5179 N   0  0  0  0  0  0  0  0  0  0  0  0
    1.2679    0.7358    1.3192 C   0  0  0  0  0  0  0  0  0  0  0  0
    4.5103   -3.1429   -3.2363 C   0  0  0  0  0  0  0  0  0  0  0  0
    4.2124   -2.3504   -4.2510 N   0  0  0  0  0  0  0  0  0  0  0  0
    2.7106    0.5408   -3.9422 H   0  0  0  0  0  0  0  0  0  0  0  0
    2.1464   -0.6395   -5.1117 H   0  0  0  0  0  0  0  0  0  0  0  0
    3.7937    0.0216   -5.2497 H   0  0  0  0  0  0  0  0  0  0  0  0
    2.8093   -0.7945   -1.7486 H   0  0  0  0  0  0  0  0  0  0  0  0
    5.7875   -4.4019   -1.3303 H   0  0  0  0  0  0  0  0  0  0  0  0
    5.9062   -3.7558    0.2783 H   0  0  0  0  0  0  0  0  0  0  0  0
    4.0357   -6.0090   -0.6014 H   0  0  0  0  0  0  0  0  0  0  0  0
    5.4076   -6.1416    0.4781 H   0  0  0  0  0  0  0  0  0  0  0  0
    2.0582   -4.7565    0.1813 H   0  0  0  0  0  0  0  0  0  0  0  0
    2.0743   -4.1244    1.8224 H   0  0  0  0  0  0  0  0  0  0  0  0
    2.4451   -2.3327    0.0634 H   0  0  0  0  0  0  0  0  0  0  0  0
    4.2968   -2.8939    2.3634 H   0  0  0  0  0  0  0  0  0  0  0  0
    5.0246   -1.8501    1.1723 H   0  0  0  0  0  0  0  0  0  0  0  0
    2.5163   -0.8194    1.5293 H   0  0  0  0  0  0  0  0  0  0  0  0
    2.0911    3.5389    4.9335 H   0  0  0  0  0  0  0  0  0  0  0  0
    0.4864    2.9813    2.7411 H   0  0  0  0  0  0  0  0  0  0  0  0
    0.4970    1.3842    0.9014 H   0  0  0  0  0  0  0  0  0  0  0  0
    0.8122   -0.2185    1.5776 H   0  0  0  0  0  0  0  0  0  0  0  0
    2.0176    0.5626    0.5471 H   0  0  0  0  0  0  0  0  0  0  0  0
    5.0791   -4.0359   -3.4412 H   0  0  0  0  0  0  0  0  0  0  0  0
  1  2  1  0
  1 23  1  0
  1 24  1  0
  1 25  1  0
  2 22  1  0
  2  3  1  0
  3  4  2  0
  3 26  1  0
  4  5  1  0
  4 21  1  0
  5 10  1  0
  5  6  1  0
  6  7  1  0
  6 27  1  0
  6 28  1  0
  7  8  1  0
  7 29  1  0
  7 30  1  0
  8  9  1  0
  9 10  1  0
  9 31  1  0
  9 32  1  0
 10 11  1  0
 10 33  1  6
 11 12  1  0
 11 34  1  0
 11 35  1  0
 12 13  1  0
 12 36  1  0
 13 14  2  0
 13 15  1  0
 15 19  1  0
 15 16  2  0
 16 17  1  0
 17 18  2  0
 17 37  1  0
 18 19  1  0
 18 38  1  0
 19 20  1  0
 20 39  1  0
 20 40  1  0
 20 41  1  0
 21 22  2  0
 21 42  1  0
M  END
>  <i_m_ct_stereo_status>  (234) 
1

>  <s_m_source_file>  (234) 
/var/tmp/pbs.5076255.sched01/tmp7qb2j_xu/82up84z1qn.sdf

>  <i_m_source_file_index>  (234) 
25

>  <i_lp_mmshare_version>  (234) 
48012

>  <i_f3d_flags>  (234) 
0

>  <s_epik_input>  (234) 
W0NIM11uMVtjSF1jKFtjSF1uMSlOMltDSDJdW0NIMl1PW0NIMl1bQ0BIXTJbQ0gyXVtOSF1DKD1PKWMzbltjSF1bY0hdbjNbQ0gzXQ==

>  <s_epik_cmdline>  (234) 
J2VwaWtfcHl0aG9uJywgJy1waHQnLCAnMi4wJywgJy1waCcsICc3LjAnLCAnLXRuJywgJzgnLCAnLW1hJywgJzIwMCcsICctaW1hZScsICc8aW5maWxlLm1hZT4nLCAnLW9tYWUnLCAnPG91dGZpbGUubWFlPic=

>  <r_lp_tautomer_probability>  (234) 
1

>  <r_epik_Ionization_Penalty>  (234) 
0.0732701

>  <r_epik_Ionization_Penalty_Charging>  (234) 
0.0731844

>  <r_epik_Ionization_Penalty_Neutral>  (234) 
8.57169e-05

>  <r_epik_State_Penalty>  (234) 
0.0643587

>  <r_epik_Charging_Adjusted_Penalty>  (234) 
0.137543

>  <i_epik_Tot_Q>  (234) 
0

>  <i_epik_Tot_abs_Q>  (234) 
0

>  <s_lp_Force_Field>  (234) 
OPLS3e

>  <r_lp_Energy>  (234) 
4.30303

>  <b_lp_Chiralities_Consistent>  (234) 
1

>  <s_lp_Variant>  (234) 
66:0-1

>  <s_i_glide_gridfile>  (234) 
pfpi4k_grid

>  <i_i_glide_lignum>  (234) 
25

>  <i_i_glide_rotatable_bonds>  (234) 
5

>  <r_i_docking_score>  (234) 
-3.99854

>  <r_i_glide_ligand_efficiency>  (234) 
-0.181752

>  <r_i_glide_ligand_efficiency_sa>  (234) 
-0.509276

>  <r_i_glide_ligand_efficiency_ln>  (234) 
-0.97739

>  <r_i_glide_gscore>  (234) 
-3.99854

>  <r_i_glide_lipo>  (234) 
-0.550756

>  <r_i_glide_hbond>  (234) 
-0.32

>  <r_i_glide_metal>  (234) 
-0

>  <r_i_glide_rewards>  (234) 
-1.67657

>  <r_i_glide_evdw>  (234) 
-26.9152

>  <r_i_glide_ecoul>  (234) 
-7.23086

>  <r_i_glide_erotb>  (234) 
0.995431

>  <r_i_glide_esite>  (234) 
-0.0162573

>  <r_i_glide_emodel>  (234) 
-40.4795

>  <r_i_glide_energy>  (234) 
-34.1461

>  <r_i_glide_einternal>  (234) 
4.33508

>  <r_i_glide_intrahb_reward>  (234) 
-0

>  <i_i_glide_confnum>  (234) 
4

>  <i_i_glide_posenum>  (234) 
17

>  <r_i_glide_eff_state_penalty>  (234) 
0

>  <ligand_id>  (234) 
66

>  <original_smiles>  (234) 
Cn1cc(N2CCOCC2CNC(=O)c2nccn2C)cn1

>  <smiles>  (234) 
[H]c1nn(C([H])([H])[H])c([H])c1N1C([H])([H])C([H])([H])OC([H])([H])C1([H])C([H])([H])N([H])C(=O)c1nc([H])c([H])n1C([H])([H])[H]

$$$$
66:0:1
     RDKit          3D

 42 44  0  0  1  0  0  0  0  0999 V2000
    3.0196   -0.3021   -4.5220 C   0  0  0  0  0  0  0  0  0  0  0  0
    3.4812   -1.3726   -3.6693 N   0  0  0  0  0  0  0  0  0  0  0  0
    3.2753   -1.5641   -2.3212 C   0  0  0  0  0  0  0  0  0  0  0  0
    3.9303   -2.7145   -1.9598 C   0  0  0  0  0  0  0  0  0  0  0  0
    4.0462   -3.2938   -0.6695 N   0  0  0  0  0  0  0  0  0  0  0  0
    5.1984   -4.1040   -0.3271 C   0  0  0  0  0  0  0  0  0  0  0  0
    4.7375   -5.4896    0.1545 C   0  0  0  0  0  0  0  0  0  0  0  0
    3.7586   -5.3609    1.1851 O   0  0  0  0  0  0  0  0  0  0  0  0
    2.6062   -4.6322    0.7591 C   0  0  0  0  0  0  0  0  0  0  0  0
    3.0129   -3.1902    0.3461 C   0  0  1  0  0  0  0  0  0  0  0  0
    3.5371   -2.3683    1.5455 C   0  0  0  0  0  0  0  0  0  0  0  0
    2.4849   -1.6399    2.2294 N   0  0  0  0  0  0  0  0  0  0  0  0
    1.7185   -2.1110    3.2175 C   0  0  0  0  0  0  0  0  0  0  0  0
    1.8288   -3.2523    3.6753 O   0  0  0  0  0  0  0  0  0  0  0  0
    0.7036   -1.1197    3.7154 C   0  0  0  0  0  0  0  0  0  0  0  0
    0.6126    0.1410    3.2763 N   0  0  0  0  0  0  0  0  0  0  0  0
   -0.4457    0.7091    3.9727 C   0  0  0  0  0  0  0  0  0  0  0  0
   -0.9629   -0.2311    4.8326 C   0  0  0  0  0  0  0  0  0  0  0  0
   -0.2274   -1.4035    4.6559 N   0  0  0  0  0  0  0  0  0  0  0  0
   -0.4613   -2.6456    5.3756 C   0  0  0  0  0  0  0  0  0  0  0  0
    4.4821   -3.1672   -3.1920 C   0  0  0  0  0  0  0  0  0  0  0  0
    4.2126   -2.3607   -4.2031 N   0  0  0  0  0  0  0  0  0  0  0  0
    2.6909    0.5405   -3.9180 H   0  0  0  0  0  0  0  0  0  0  0  0
    2.1755   -0.6358   -5.1140 H   0  0  0  0  0  0  0  0  0  0  0  0
    3.8217    0.0287   -5.1806 H   0  0  0  0  0  0  0  0  0  0  0  0
    2.7076   -0.8613   -1.7331 H   0  0  0  0  0  0  0  0  0  0  0  0
    5.8795   -4.1805   -1.1690 H   0  0  0  0  0  0  0  0  0  0  0  0
    5.7407   -3.5931    0.4678 H   0  0  0  0  0  0  0  0  0  0  0  0
    4.3270   -6.0649   -0.6742 H   0  0  0  0  0  0  0  0  0  0  0  0
    5.5926   -6.0416    0.5417 H   0  0  0  0  0  0  0  0  0  0  0  0
    2.1329   -5.1594   -0.0747 H   0  0  0  0  0  0  0  0  0  0  0  0
    1.8699   -4.6386    1.5637 H   0  0  0  0  0  0  0  0  0  0  0  0
    2.1508   -2.6942   -0.0989 H   0  0  0  0  0  0  0  0  0  0  0  0
    4.0881   -2.9950    2.2457 H   0  0  0  0  0  0  0  0  0  0  0  0
    4.2492   -1.6173    1.2146 H   0  0  0  0  0  0  0  0  0  0  0  0
    2.3015   -0.6866    1.9491 H   0  0  0  0  0  0  0  0  0  0  0  0
   -0.7442    1.7350    3.8117 H   0  0  0  0  0  0  0  0  0  0  0  0
   -1.7808   -0.1623    5.5333 H   0  0  0  0  0  0  0  0  0  0  0  0
   -1.3863   -2.5755    5.9399 H   0  0  0  0  0  0  0  0  0  0  0  0
    0.3645   -2.8446    6.0597 H   0  0  0  0  0  0  0  0  0  0  0  0
   -0.5495   -3.4790    4.6809 H   0  0  0  0  0  0  0  0  0  0  0  0
    5.0705   -4.0571   -3.3823 H   0  0  0  0  0  0  0  0  0  0  0  0
  1  2  1  0
  1 23  1  0
  1 24  1  0
  1 25  1  0
  2 22  1  0
  2  3  1  0
  3  4  2  0
  3 26  1  0
  4  5  1  0
  4 21  1  0
  5 10  1  0
  5  6  1  0
  6  7  1  0
  6 27  1  0
  6 28  1  0
  7  8  1  0
  7 29  1  0
  7 30  1  0
  8  9  1  0
  9 10  1  0
  9 31  1  0
  9 32  1  0
 10 11  1  0
 10 33  1  6
 11 12  1  0
 11 34  1  0
 11 35  1  0
 12 13  1  0
 12 36  1  0
 13 14  2  0
 13 15  1  0
 15 19  1  0
 15 16  2  0
 16 17  1  0
 17 18  2  0
 17 37  1  0
 18 19  1  0
 18 38  1  0
 19 20  1  0
 20 39  1  0
 20 40  1  0
 20 41  1  0
 21 22  2  0
 21 42  1  0
M  END
>  <i_m_ct_stereo_status>  (235) 
1

>  <s_m_source_file>  (235) 
/var/tmp/pbs.5076255.sched01/tmp7qb2j_xu/82up84z1qn.sdf

>  <i_m_source_file_index>  (235) 
25

>  <i_lp_mmshare_version>  (235) 
48012

>  <i_f3d_flags>  (235) 
0

>  <s_epik_input>  (235) 
W0NIM11uMVtjSF1jKFtjSF1uMSlOMltDSDJdW0NIMl1PW0NIMl1bQ0BIXTJbQ0gyXVtOSF1DKD1PKWMzbltjSF1bY0hdbjNbQ0gzXQ==

>  <s_epik_cmdline>  (235) 
J2VwaWtfcHl0aG9uJywgJy1waHQnLCAnMi4wJywgJy1waCcsICc3LjAnLCAnLXRuJywgJzgnLCAnLW1hJywgJzIwMCcsICctaW1hZScsICc8aW5maWxlLm1hZT4nLCAnLW9tYWUnLCAnPG91dGZpbGUubWFlPic=

>  <r_lp_tautomer_probability>  (235) 
1

>  <r_epik_Ionization_Penalty>  (235) 
0.0732701

>  <r_epik_Ionization_Penalty_Charging>  (235) 
0.0731844

>  <r_epik_Ionization_Penalty_Neutral>  (235) 
8.57169e-05

>  <r_epik_State_Penalty>  (235) 
0.0643587

>  <r_epik_Charging_Adjusted_Penalty>  (235) 
0.137543

>  <i_epik_Tot_Q>  (235) 
0

>  <i_epik_Tot_abs_Q>  (235) 
0

>  <s_lp_Force_Field>  (235) 
OPLS3e

>  <r_lp_Energy>  (235) 
4.30303

>  <b_lp_Chiralities_Consistent>  (235) 
1

>  <s_lp_Variant>  (235) 
66:0-1

>  <s_i_glide_gridfile>  (235) 
pfpi4k_grid

>  <i_i_glide_lignum>  (235) 
25

>  <i_i_glide_rotatable_bonds>  (235) 
5

>  <r_i_docking_score>  (235) 
-3.59716

>  <r_i_glide_ligand_efficiency>  (235) 
-0.163507

>  <r_i_glide_ligand_efficiency_sa>  (235) 
-0.458153

>  <r_i_glide_ligand_efficiency_ln>  (235) 
-0.879276

>  <r_i_glide_gscore>  (235) 
-3.59716

>  <r_i_glide_lipo>  (235) 
-0.546443

>  <r_i_glide_hbond>  (235) 
-0.32

>  <r_i_glide_metal>  (235) 
-0

>  <r_i_glide_rewards>  (235) 
-1.69355

>  <r_i_glide_evdw>  (235) 
-27.142

>  <r_i_glide_ecoul>  (235) 
-4.18943

>  <r_i_glide_erotb>  (235) 
0.995431

>  <r_i_glide_esite>  (235) 
-0.0470837

>  <r_i_glide_emodel>  (235) 
-37.9256

>  <r_i_glide_energy>  (235) 
-31.3314

>  <r_i_glide_einternal>  (235) 
2.27273

>  <r_i_glide_intrahb_reward>  (235) 
-0

>  <i_i_glide_confnum>  (235) 
4

>  <i_i_glide_posenum>  (235) 
1

>  <r_i_glide_eff_state_penalty>  (235) 
0

>  <ligand_id>  (235) 
66

>  <original_smiles>  (235) 
Cn1cc(N2CCOCC2CNC(=O)c2nccn2C)cn1

>  <smiles>  (235) 
[H]c1nn(C([H])([H])[H])c([H])c1N1C([H])([H])C([H])([H])OC([H])([H])C1([H])C([H])([H])N([H])C(=O)c1nc([H])c([H])n1C([H])([H])[H]

$$$$
66:0:2
     RDKit          3D

 42 44  0  0  1  0  0  0  0  0999 V2000
    1.5465    0.3032    1.8493 C   0  0  0  0  0  0  0  0  0  0  0  0
    2.6592   -0.6140    1.7251 N   0  0  0  0  0  0  0  0  0  0  0  0
    2.6418   -1.9912    1.7168 C   0  0  0  0  0  0  0  0  0  0  0  0
    3.9384   -2.4293    1.6210 C   0  0  0  0  0  0  0  0  0  0  0  0
    4.3884   -3.7843    1.5816 N   0  0  0  0  0  0  0  0  0  0  0  0
    3.4880   -4.9179    1.6898 C   0  0  0  0  0  0  0  0  0  0  0  0
    3.9763   -5.8238    2.8359 C   0  0  0  0  0  0  0  0  0  0  0  0
    5.3581   -6.1599    2.6694 O   0  0  0  0  0  0  0  0  0  0  0  0
    6.2105   -5.0128    2.6338 C   0  0  0  0  0  0  0  0  0  0  0  0
    5.8064   -4.1082    1.4538 C   0  0  1  0  0  0  0  0  0  0  0  0
    6.1636   -4.7705    0.0964 C   0  0  0  0  0  0  0  0  0  0  0  0
    5.4205   -4.2087   -1.0259 N   0  0  0  0  0  0  0  0  0  0  0  0
    5.5818   -2.9824   -1.5312 C   0  0  0  0  0  0  0  0  0  0  0  0
    6.3842   -2.1498   -1.0963 O   0  0  0  0  0  0  0  0  0  0  0  0
    4.6254   -2.6942   -2.6504 C   0  0  0  0  0  0  0  0  0  0  0  0
    4.1609   -3.6105   -3.4963 N   0  0  0  0  0  0  0  0  0  0  0  0
    3.2618   -2.9385   -4.3089 C   0  0  0  0  0  0  0  0  0  0  0  0
    3.3181   -1.6005   -4.0331 C   0  0  0  0  0  0  0  0  0  0  0  0
    4.1579   -1.4675   -2.9343 N   0  0  0  0  0  0  0  0  0  0  0  0
    4.4311   -0.2170   -2.2790 C   0  0  0  0  0  0  0  0  0  0  0  0
    4.6741   -1.2053    1.5492 C   0  0  0  0  0  0  0  0  0  0  0  0
    3.9091   -0.1295    1.6137 N   0  0  0  0  0  0  0  0  0  0  0  0
    0.6630   -0.2273    2.2054 H   0  0  0  0  0  0  0  0  0  0  0  0
    1.3196    0.7510    0.8809 H   0  0  0  0  0  0  0  0  0  0  0  0
    1.7945    1.0905    2.5629 H   0  0  0  0  0  0  0  0  0  0  0  0
    1.7165   -2.5326    1.7852 H   0  0  0  0  0  0  0  0  0  0  0  0
    2.4530   -4.6189    1.8467 H   0  0  0  0  0  0  0  0  0  0  0  0
    3.5116   -5.4649    0.7467 H   0  0  0  0  0  0  0  0  0  0  0  0
    3.8426   -5.3135    3.7917 H   0  0  0  0  0  0  0  0  0  0  0  0
    3.3892   -6.7432    2.8631 H   0  0  0  0  0  0  0  0  0  0  0  0
    6.1311   -4.4697    3.5772 H   0  0  0  0  0  0  0  0  0  0  0  0
    7.2520   -5.3239    2.5310 H   0  0  0  0  0  0  0  0  0  0  0  0
    6.3697   -3.1825    1.5329 H   0  0  0  0  0  0  0  0  0  0  0  0
    7.2387   -4.7222   -0.0905 H   0  0  0  0  0  0  0  0  0  0  0  0
    5.9050   -5.8296    0.1212 H   0  0  0  0  0  0  0  0  0  0  0  0
    4.7009   -4.7721   -1.4534 H   0  0  0  0  0  0  0  0  0  0  0  0
    2.6991   -3.4453   -5.0730 H   0  0  0  0  0  0  0  0  0  0  0  0
    2.8251   -0.7603   -4.5058 H   0  0  0  0  0  0  0  0  0  0  0  0
    3.8125    0.5450   -2.7427 H   0  0  0  0  0  0  0  0  0  0  0  0
    5.4641    0.0533   -2.4245 H   0  0  0  0  0  0  0  0  0  0  0  0
    4.2334   -0.2808   -1.2123 H   0  0  0  0  0  0  0  0  0  0  0  0
    5.7373   -1.0440    1.4394 H   0  0  0  0  0  0  0  0  0  0  0  0
  1  2  1  0
  1 23  1  0
  1 24  1  0
  1 25  1  0
  2 22  1  0
  2  3  1  0
  3  4  2  0
  3 26  1  0
  4  5  1  0
  4 21  1  0
  5 10  1  0
  5  6  1  0
  6  7  1  0
  6 27  1  0
  6 28  1  0
  7  8  1  0
  7 29  1  0
  7 30  1  0
  8  9  1  0
  9 10  1  0
  9 31  1  0
  9 32  1  0
 10 11  1  0
 10 33  1  1
 11 12  1  0
 11 34  1  0
 11 35  1  0
 12 13  1  0
 12 36  1  0
 13 14  2  0
 13 15  1  0
 15 19  1  0
 15 16  2  0
 16 17  1  0
 17 18  2  0
 17 37  1  0
 18 19  1  0
 18 38  1  0
 19 20  1  0
 20 39  1  0
 20 40  1  0
 20 41  1  0
 21 22  2  0
 21 42  1  0
M  END
>  <i_m_ct_stereo_status>  (236) 
1

>  <s_m_source_file>  (236) 
/var/tmp/pbs.5076255.sched01/tmp7qb2j_xu/82up84z1qn.sdf

>  <i_m_source_file_index>  (236) 
25

>  <i_lp_mmshare_version>  (236) 
48012

>  <i_f3d_flags>  (236) 
0

>  <s_epik_input>  (236) 
W0NIM11uMVtjSF1jKFtjSF1uMSlOMltDSDJdW0NIMl1PW0NIMl1bQ0BIXTJbQ0gyXVtOSF1DKD1PKWMzbltjSF1bY0hdbjNbQ0gzXQ==

>  <s_epik_cmdline>  (236) 
J2VwaWtfcHl0aG9uJywgJy1waHQnLCAnMi4wJywgJy1waCcsICc3LjAnLCAnLXRuJywgJzgnLCAnLW1hJywgJzIwMCcsICctaW1hZScsICc8aW5maWxlLm1hZT4nLCAnLW9tYWUnLCAnPG91dGZpbGUubWFlPic=

>  <r_lp_tautomer_probability>  (236) 
1

>  <r_epik_Ionization_Penalty>  (236) 
0.0732701

>  <r_epik_Ionization_Penalty_Charging>  (236) 
0.0731844

>  <r_epik_Ionization_Penalty_Neutral>  (236) 
8.57169e-05

>  <r_epik_State_Penalty>  (236) 
0.0643587

>  <r_epik_Charging_Adjusted_Penalty>  (236) 
0.137543

>  <i_epik_Tot_Q>  (236) 
0

>  <i_epik_Tot_abs_Q>  (236) 
0

>  <s_lp_Force_Field>  (236) 
OPLS3e

>  <r_lp_Energy>  (236) 
4.30303

>  <b_lp_Chiralities_Consistent>  (236) 
1

>  <s_lp_Variant>  (236) 
66:0-1

>  <s_i_glide_gridfile>  (236) 
pfpi4k_grid

>  <i_i_glide_lignum>  (236) 
25

>  <i_i_glide_rotatable_bonds>  (236) 
5

>  <r_i_docking_score>  (236) 
-2.78781

>  <r_i_glide_ligand_efficiency>  (236) 
-0.126719

>  <r_i_glide_ligand_efficiency_sa>  (236) 
-0.355071

>  <r_i_glide_ligand_efficiency_ln>  (236) 
-0.681443

>  <r_i_glide_gscore>  (236) 
-2.78781

>  <r_i_glide_lipo>  (236) 
-0.304626

>  <r_i_glide_hbond>  (236) 
-0.114783

>  <r_i_glide_metal>  (236) 
-0

>  <r_i_glide_rewards>  (236) 
-1.56745

>  <r_i_glide_evdw>  (236) 
-24.5821

>  <r_i_glide_ecoul>  (236) 
-3.44659

>  <r_i_glide_erotb>  (236) 
0.995431

>  <r_i_glide_esite>  (236) 
-0.0502948

>  <r_i_glide_emodel>  (236) 
-32.2365

>  <r_i_glide_energy>  (236) 
-28.0287

>  <r_i_glide_einternal>  (236) 
3.78942

>  <r_i_glide_intrahb_reward>  (236) 
-0

>  <i_i_glide_confnum>  (236) 
3

>  <i_i_glide_posenum>  (236) 
8

>  <r_i_glide_eff_state_penalty>  (236) 
0

>  <ligand_id>  (236) 
66

>  <original_smiles>  (236) 
Cn1cc(N2CCOCC2CNC(=O)c2nccn2C)cn1

>  <smiles>  (236) 
[H]c1nn(C([H])([H])[H])c([H])c1N1C([H])([H])C([H])([H])OC([H])([H])C1([H])C([H])([H])N([H])C(=O)c1nc([H])c([H])n1C([H])([H])[H]

$$$$
66:1:0
     RDKit          3D

 43 45  0  0  1  0  0  0  0  0999 V2000
    3.3082   -8.2204    1.3559 C   0  0  0  0  0  0  0  0  0  0  0  0
    3.5663   -6.7975    1.2714 N   0  0  0  0  0  0  0  0  0  0  0  0
    4.2250   -6.1005    0.2834 C   0  0  0  0  0  0  0  0  0  0  0  0
    4.2527   -4.7821    0.6490 C   0  0  0  0  0  0  0  0  0  0  0  0
    4.8456   -3.6983   -0.0551 N   0  0  0  0  0  0  0  0  0  0  0  0
    5.4440   -3.8538   -1.3687 C   0  0  0  0  0  0  0  0  0  0  0  0
    6.8819   -3.3067   -1.3174 C   0  0  0  0  0  0  0  0  0  0  0  0
    6.9006   -1.9699   -0.8027 O   0  0  0  0  0  0  0  0  0  0  0  0
    6.3682   -1.8903    0.5229 C   0  0  0  0  0  0  0  0  0  0  0  0
    4.8976   -2.3633    0.5224 C   0  0  1  0  0  0  0  0  0  0  0  0
    4.0088   -1.3830   -0.2823 C   0  0  0  0  0  0  0  0  0  0  0  0
    3.0220   -0.6764    0.5082 N   0  0  0  0  0  0  0  0  0  0  0  0
    3.2172    0.0109    1.6483 C   0  0  0  0  0  0  0  0  0  0  0  0
    4.2811    0.0075    2.2637 O   0  0  0  0  0  0  0  0  0  0  0  0
    2.0439    0.8190    2.1362 C   0  0  0  0  0  0  0  0  0  0  0  0
    0.8736    0.9072    1.4926 N   0  0  0  0  0  0  0  0  0  0  0  0
    0.0357    1.7213    2.1989 C   0  0  0  0  0  0  0  0  0  0  0  0
    0.7308    2.1451    3.3049 C   0  0  0  0  0  0  0  0  0  0  0  0
    1.9751    1.5766    3.2444 N   0  0  0  0  0  0  0  0  0  0  0  0
    3.0425    1.7641    4.2353 C   0  0  0  0  0  0  0  0  0  0  0  0
    3.5388   -4.7810    1.8843 C   0  0  0  0  0  0  0  0  0  0  0  0
    3.1269   -5.9824    2.2498 N   0  0  0  0  0  0  0  0  0  0  0  0
    3.9114   -8.7589    0.6236 H   0  0  0  0  0  0  0  0  0  0  0  0
    2.2533   -8.4167    1.1633 H   0  0  0  0  0  0  0  0  0  0  0  0
    3.5599   -8.5852    2.3526 H   0  0  0  0  0  0  0  0  0  0  0  0
    4.6159   -6.6039   -0.5866 H   0  0  0  0  0  0  0  0  0  0  0  0
    5.4145   -4.8879   -1.7015 H   0  0  0  0  0  0  0  0  0  0  0  0
    4.8587   -3.2934   -2.0961 H   0  0  0  0  0  0  0  0  0  0  0  0
    7.5016   -3.9412   -0.6799 H   0  0  0  0  0  0  0  0  0  0  0  0
    7.3144   -3.3175   -2.3188 H   0  0  0  0  0  0  0  0  0  0  0  0
    6.9692   -2.4919    1.2079 H   0  0  0  0  0  0  0  0  0  0  0  0
    6.4413   -0.8589    0.8714 H   0  0  0  0  0  0  0  0  0  0  0  0
    4.5694   -2.4294    1.5591 H   0  0  0  0  0  0  0  0  0  0  0  0
    4.6118   -0.6563   -0.8280 H   0  0  0  0  0  0  0  0  0  0  0  0
    3.4297   -1.9028   -1.0445 H   0  0  0  0  0  0  0  0  0  0  0  0
    2.0962   -0.6581    0.0629 H   0  0  0  0  0  0  0  0  0  0  0  0
   -0.9694    1.9416    1.8604 H   0  0  0  0  0  0  0  0  0  0  0  0
    0.4285    2.8048    4.1093 H   0  0  0  0  0  0  0  0  0  0  0  0
    2.6802    2.4194    5.0274 H   0  0  0  0  0  0  0  0  0  0  0  0
    3.9067    2.2306    3.7640 H   0  0  0  0  0  0  0  0  0  0  0  0
    3.3222    0.8025    4.6686 H   0  0  0  0  0  0  0  0  0  0  0  0
    3.3005   -3.9475    2.5291 H   0  0  0  0  0  0  0  0  0  0  0  0
    0.6431    0.4389    0.6154 H   0  0  0  0  0  0  0  0  0  0  0  0
  1  2  1  0
  1 23  1  0
  1 24  1  0
  1 25  1  0
  2 22  1  0
  2  3  1  0
  3  4  2  0
  3 26  1  0
  4  5  1  0
  4 21  1  0
  5 10  1  0
  5  6  1  0
  6  7  1  0
  6 27  1  0
  6 28  1  0
  7  8  1  0
  7 29  1  0
  7 30  1  0
  8  9  1  0
  9 10  1  0
  9 31  1  0
  9 32  1  0
 10 11  1  0
 10 33  1  1
 11 12  1  0
 11 34  1  0
 11 35  1  0
 12 13  1  0
 12 36  1  0
 13 14  2  0
 13 15  1  0
 15 19  1  0
 15 16  2  0
 16 17  1  0
 16 43  1  0
 17 18  2  0
 17 37  1  0
 18 19  1  0
 18 38  1  0
 19 20  1  0
 20 39  1  0
 20 40  1  0
 20 41  1  0
 21 22  2  0
 21 42  1  0
M  CHG  1  16   1
M  END
>  <i_m_ct_stereo_status>  (237) 
1

>  <s_m_source_file>  (237) 
/var/tmp/pbs.5076255.sched01/tmp7qb2j_xu/82up84z1qn.sdf

>  <i_m_source_file_index>  (237) 
26

>  <i_lp_mmshare_version>  (237) 
48012

>  <i_f3d_flags>  (237) 
0

>  <s_epik_input>  (237) 
W0NIM11uMVtjSF1jKFtjSF1uMSlOMltDSDJdW0NIMl1PW0NIMl1bQ0BIXTJbQ0gyXVtOSF1DKD1PKWMzbltjSF1bY0hdbjNbQ0gzXQ==

>  <s_epik_cmdline>  (237) 
J2VwaWtfcHl0aG9uJywgJy1waHQnLCAnMi4wJywgJy1waCcsICc3LjAnLCAnLXRuJywgJzgnLCAnLW1hJywgJzIwMCcsICctaW1hZScsICc8aW5maWxlLm1hZT4nLCAnLW9tYWUnLCAnPG91dGZpbGUubWFlPic=

>  <r_lp_tautomer_probability>  (237) 
1

>  <r_epik_Ionization_Penalty>  (237) 
1.27545

>  <r_epik_Ionization_Penalty_Charging>  (237) 
0

>  <r_epik_Ionization_Penalty_Neutral>  (237) 
1.27545

>  <r_epik_State_Penalty>  (237) 
1.34712

>  <r_epik_Charging_Adjusted_Penalty>  (237) 
1.34712

>  <i_epik_Tot_Q>  (237) 
1

>  <i_epik_Tot_abs_Q>  (237) 
1

>  <s_lp_Force_Field>  (237) 
OPLS3e

>  <r_lp_Energy>  (237) 
11.5082

>  <b_lp_Chiralities_Consistent>  (237) 
1

>  <s_lp_Variant>  (237) 
66:0-2

>  <s_i_glide_gridfile>  (237) 
pfpi4k_grid

>  <i_i_glide_lignum>  (237) 
26

>  <i_i_glide_rotatable_bonds>  (237) 
5

>  <r_i_docking_score>  (237) 
-4.40323

>  <r_i_glide_ligand_efficiency>  (237) 
-0.200147

>  <r_i_glide_ligand_efficiency_sa>  (237) 
-0.560819

>  <r_i_glide_ligand_efficiency_ln>  (237) 
-1.07631

>  <r_i_glide_gscore>  (237) 
-4.40323

>  <r_i_glide_lipo>  (237) 
-0.382539

>  <r_i_glide_hbond>  (237) 
-0.59533

>  <r_i_glide_metal>  (237) 
-0

>  <r_i_glide_rewards>  (237) 
-1.48301

>  <r_i_glide_evdw>  (237) 
-21.2474

>  <r_i_glide_ecoul>  (237) 
-11.1579

>  <r_i_glide_erotb>  (237) 
0.989679

>  <r_i_glide_esite>  (237) 
-0.195974

>  <r_i_glide_emodel>  (237) 
-43.2692

>  <r_i_glide_energy>  (237) 
-32.4053

>  <r_i_glide_einternal>  (237) 
2.98681

>  <r_i_glide_intrahb_reward>  (237) 
-0

>  <i_i_glide_confnum>  (237) 
5

>  <i_i_glide_posenum>  (237) 
15

>  <r_i_glide_eff_state_penalty>  (237) 
0

>  <ligand_id>  (237) 
66

>  <original_smiles>  (237) 
Cn1cc(N2CCOCC2CNC(=O)c2nccn2C)cn1

>  <smiles>  (237) 
[H]c1nn(C([H])([H])[H])c([H])c1N1C([H])([H])C([H])([H])OC([H])([H])C1([H])C([H])([H])N([H])C(=O)c1n(C([H])([H])[H])c([H])c([H])[n+]1[H]

$$$$
66:1:1
     RDKit          3D

 43 45  0  0  1  0  0  0  0  0999 V2000
    3.1826   -0.6798   -4.0260 C   0  0  0  0  0  0  0  0  0  0  0  0
    4.1065   -1.4674   -3.2378 N   0  0  0  0  0  0  0  0  0  0  0  0
    4.6114   -1.2327   -1.9746 C   0  0  0  0  0  0  0  0  0  0  0  0
    5.4905   -2.2363   -1.6848 C   0  0  0  0  0  0  0  0  0  0  0  0
    6.3040   -2.3347   -0.5270 N   0  0  0  0  0  0  0  0  0  0  0  0
    7.7506   -2.3270   -0.6390 C   0  0  0  0  0  0  0  0  0  0  0  0
    8.3524   -3.6075   -0.0401 C   0  0  0  0  0  0  0  0  0  0  0  0
    7.8112   -3.8673    1.2504 O   0  0  0  0  0  0  0  0  0  0  0  0
    6.3952   -4.0408    1.2352 C   0  0  0  0  0  0  0  0  0  0  0  0
    5.7183   -2.7340    0.7468 C   0  0  1  0  0  0  0  0  0  0  0  0
    5.8924   -1.6045    1.8075 C   0  0  0  0  0  0  0  0  0  0  0  0
    4.7291   -0.7498    1.9171 N   0  0  0  0  0  0  0  0  0  0  0  0
    3.5212   -1.1299    2.3658 C   0  0  0  0  0  0  0  0  0  0  0  0
    3.2568   -2.2929    2.7055 O   0  0  0  0  0  0  0  0  0  0  0  0
    2.5033   -0.0336    2.4399 C   0  0  0  0  0  0  0  0  0  0  0  0
    2.7276    1.2402    2.0856 N   0  0  0  0  0  0  0  0  0  0  0  0
    1.5925    1.9847    2.2764 C   0  0  0  0  0  0  0  0  0  0  0  0
    0.6377    1.1227    2.7859 C   0  0  0  0  0  0  0  0  0  0  0  0
    1.2325   -0.1173    2.8916 N   0  0  0  0  0  0  0  0  0  0  0  0
    0.6023   -1.3334    3.3984 C   0  0  0  0  0  0  0  0  0  0  0  0
    5.4124   -3.0827   -2.8309 C   0  0  0  0  0  0  0  0  0  0  0  0
    4.5842   -2.6180   -3.7490 N   0  0  0  0  0  0  0  0  0  0  0  0
    3.0635    0.3131   -3.5915 H   0  0  0  0  0  0  0  0  0  0  0  0
    2.2300   -1.1773   -4.0647 H   0  0  0  0  0  0  0  0  0  0  0  0
    3.5472   -0.5701   -5.0487 H   0  0  0  0  0  0  0  0  0  0  0  0
    4.3456   -0.3539   -1.4103 H   0  0  0  0  0  0  0  0  0  0  0  0
    8.0539   -2.2249   -1.6781 H   0  0  0  0  0  0  0  0  0  0  0  0
    8.1530   -1.4780   -0.0859 H   0  0  0  0  0  0  0  0  0  0  0  0
    8.1903   -4.4605   -0.7002 H   0  0  0  0  0  0  0  0  0  0  0  0
    9.4320   -3.4808    0.0551 H   0  0  0  0  0  0  0  0  0  0  0  0
    6.1271   -4.8913    0.6017 H   0  0  0  0  0  0  0  0  0  0  0  0
    6.0573   -4.3032    2.2419 H   0  0  0  0  0  0  0  0  0  0  0  0
    4.6722   -2.9858    0.5746 H   0  0  0  0  0  0  0  0  0  0  0  0
    6.1353   -1.9922    2.7988 H   0  0  0  0  0  0  0  0  0  0  0  0
    6.7088   -0.9262    1.5793 H   0  0  0  0  0  0  0  0  0  0  0  0
    4.8785    0.2248    1.6922 H   0  0  0  0  0  0  0  0  0  0  0  0
    1.5327    3.0392    2.0389 H   0  0  0  0  0  0  0  0  0  0  0  0
   -0.3862    1.3300    3.0555 H   0  0  0  0  0  0  0  0  0  0  0  0
   -0.4270   -1.0934    3.6757 H   0  0  0  0  0  0  0  0  0  0  0  0
    1.1432   -1.6845    4.2785 H   0  0  0  0  0  0  0  0  0  0  0  0
    0.6291   -2.0940    2.6148 H   0  0  0  0  0  0  0  0  0  0  0  0
    5.9369   -3.9982   -3.0494 H   0  0  0  0  0  0  0  0  0  0  0  0
    3.6151    1.6063    1.7486 H   0  0  0  0  0  0  0  0  0  0  0  0
  1  2  1  0
  1 23  1  0
  1 24  1  0
  1 25  1  0
  2 22  1  0
  2  3  1  0
  3  4  2  0
  3 26  1  0
  4  5  1  0
  4 21  1  0
  5 10  1  0
  5  6  1  0
  6  7  1  0
  6 27  1  0
  6 28  1  0
  7  8  1  0
  7 29  1  0
  7 30  1  0
  8  9  1  0
  9 10  1  0
  9 31  1  0
  9 32  1  0
 10 11  1  0
 10 33  1  6
 11 12  1  0
 11 34  1  0
 11 35  1  0
 12 13  1  0
 12 36  1  0
 13 14  2  0
 13 15  1  0
 15 19  1  0
 15 16  2  0
 16 17  1  0
 16 43  1  0
 17 18  2  0
 17 37  1  0
 18 19  1  0
 18 38  1  0
 19 20  1  0
 20 39  1  0
 20 40  1  0
 20 41  1  0
 21 22  2  0
 21 42  1  0
M  CHG  1  16   1
M  END
>  <i_m_ct_stereo_status>  (238) 
1

>  <s_m_source_file>  (238) 
/var/tmp/pbs.5076255.sched01/tmp7qb2j_xu/82up84z1qn.sdf

>  <i_m_source_file_index>  (238) 
26

>  <i_lp_mmshare_version>  (238) 
48012

>  <i_f3d_flags>  (238) 
0

>  <s_epik_input>  (238) 
W0NIM11uMVtjSF1jKFtjSF1uMSlOMltDSDJdW0NIMl1PW0NIMl1bQ0BIXTJbQ0gyXVtOSF1DKD1PKWMzbltjSF1bY0hdbjNbQ0gzXQ==

>  <s_epik_cmdline>  (238) 
J2VwaWtfcHl0aG9uJywgJy1waHQnLCAnMi4wJywgJy1waCcsICc3LjAnLCAnLXRuJywgJzgnLCAnLW1hJywgJzIwMCcsICctaW1hZScsICc8aW5maWxlLm1hZT4nLCAnLW9tYWUnLCAnPG91dGZpbGUubWFlPic=

>  <r_lp_tautomer_probability>  (238) 
1

>  <r_epik_Ionization_Penalty>  (238) 
1.27545

>  <r_epik_Ionization_Penalty_Charging>  (238) 
0

>  <r_epik_Ionization_Penalty_Neutral>  (238) 
1.27545

>  <r_epik_State_Penalty>  (238) 
1.34712

>  <r_epik_Charging_Adjusted_Penalty>  (238) 
1.34712

>  <i_epik_Tot_Q>  (238) 
1

>  <i_epik_Tot_abs_Q>  (238) 
1

>  <s_lp_Force_Field>  (238) 
OPLS3e

>  <r_lp_Energy>  (238) 
11.5082

>  <b_lp_Chiralities_Consistent>  (238) 
1

>  <s_lp_Variant>  (238) 
66:0-2

>  <s_i_glide_gridfile>  (238) 
pfpi4k_grid

>  <i_i_glide_lignum>  (238) 
26

>  <i_i_glide_rotatable_bonds>  (238) 
5

>  <r_i_docking_score>  (238) 
-3.92593

>  <r_i_glide_ligand_efficiency>  (238) 
-0.178451

>  <r_i_glide_ligand_efficiency_sa>  (238) 
-0.500028

>  <r_i_glide_ligand_efficiency_ln>  (238) 
-0.959641

>  <r_i_glide_gscore>  (238) 
-3.92593

>  <r_i_glide_lipo>  (238) 
-0.860056

>  <r_i_glide_hbond>  (238) 
-0.0071969

>  <r_i_glide_metal>  (238) 
-0

>  <r_i_glide_rewards>  (238) 
-1.46526

>  <r_i_glide_evdw>  (238) 
-29.4042

>  <r_i_glide_ecoul>  (238) 
-6.99406

>  <r_i_glide_erotb>  (238) 
0.989679

>  <r_i_glide_esite>  (238) 
-0.0637829

>  <r_i_glide_emodel>  (238) 
-42.5139

>  <r_i_glide_energy>  (238) 
-36.3982

>  <r_i_glide_einternal>  (238) 
9.37382

>  <r_i_glide_intrahb_reward>  (238) 
-0

>  <i_i_glide_confnum>  (238) 
2

>  <i_i_glide_posenum>  (238) 
33

>  <r_i_glide_eff_state_penalty>  (238) 
0

>  <ligand_id>  (238) 
66

>  <original_smiles>  (238) 
Cn1cc(N2CCOCC2CNC(=O)c2nccn2C)cn1

>  <smiles>  (238) 
[H]c1nn(C([H])([H])[H])c([H])c1N1C([H])([H])C([H])([H])OC([H])([H])C1([H])C([H])([H])N([H])C(=O)c1n(C([H])([H])[H])c([H])c([H])[n+]1[H]

$$$$
66:1:2
     RDKit          3D

 43 45  0  0  1  0  0  0  0  0999 V2000
    3.3194   -0.1576   -5.2755 C   0  0  0  0  0  0  0  0  0  0  0  0
    3.6420   -0.8972   -4.0716 N   0  0  0  0  0  0  0  0  0  0  0  0
    4.0732   -0.4188   -2.8570 C   0  0  0  0  0  0  0  0  0  0  0  0
    4.2337   -1.4820   -2.0148 C   0  0  0  0  0  0  0  0  0  0  0  0
    4.7044   -1.4373   -0.6783 N   0  0  0  0  0  0  0  0  0  0  0  0
    6.1175   -1.5624   -0.3936 C   0  0  0  0  0  0  0  0  0  0  0  0
    6.3662   -2.7617    0.5377 C   0  0  0  0  0  0  0  0  0  0  0  0
    5.5126   -2.6912    1.6758 O   0  0  0  0  0  0  0  0  0  0  0  0
    4.1310   -2.7106    1.3194 C   0  0  0  0  0  0  0  0  0  0  0  0
    3.8018   -1.4567    0.4618 C   0  0  1  0  0  0  0  0  0  0  0  0
    3.9727   -0.1446    1.2675 C   0  0  0  0  0  0  0  0  0  0  0  0
    2.7266    0.4136    1.7602 N   0  0  0  0  0  0  0  0  0  0  0  0
    1.9684   -0.0934    2.7493 C   0  0  0  0  0  0  0  0  0  0  0  0
    2.2745   -1.0824    3.4092 O   0  0  0  0  0  0  0  0  0  0  0  0
    0.6768    0.6321    3.0046 C   0  0  0  0  0  0  0  0  0  0  0  0
    0.3258    1.7804    2.4182 N   0  0  0  0  0  0  0  0  0  0  0  0
   -0.9012    2.1725    2.8796 C   0  0  0  0  0  0  0  0  0  0  0  0
   -1.3060    1.2209    3.7852 C   0  0  0  0  0  0  0  0  0  0  0  0
   -0.3105    0.2701    3.8497 N   0  0  0  0  0  0  0  0  0  0  0  0
   -0.3322   -0.9389    4.6866 C   0  0  0  0  0  0  0  0  0  0  0  0
    3.8564   -2.5962   -2.8228 C   0  0  0  0  0  0  0  0  0  0  0  0
    3.5306   -2.2393   -4.0572 N   0  0  0  0  0  0  0  0  0  0  0  0
    3.6912    0.8658   -5.2138 H   0  0  0  0  0  0  0  0  0  0  0  0
    2.2397   -0.1268   -5.4214 H   0  0  0  0  0  0  0  0  0  0  0  0
    3.7707   -0.6422   -6.1383 H   0  0  0  0  0  0  0  0  0  0  0  0
    4.2307    0.6350   -2.7034 H   0  0  0  0  0  0  0  0  0  0  0  0
    6.6686   -1.6842   -1.3202 H   0  0  0  0  0  0  0  0  0  0  0  0
    6.4516   -0.6448    0.0897 H   0  0  0  0  0  0  0  0  0  0  0  0
    6.1855   -3.7061    0.0212 H   0  0  0  0  0  0  0  0  0  0  0  0
    7.4019   -2.7677    0.8793 H   0  0  0  0  0  0  0  0  0  0  0  0
    3.8909   -3.6331    0.7811 H   0  0  0  0  0  0  0  0  0  0  0  0
    3.5593   -2.7559    2.2438 H   0  0  0  0  0  0  0  0  0  0  0  0
    2.7851   -1.5394    0.0703 H   0  0  0  0  0  0  0  0  0  0  0  0
    4.7026   -0.2459    2.0686 H   0  0  0  0  0  0  0  0  0  0  0  0
    4.3740    0.6338    0.6253 H   0  0  0  0  0  0  0  0  0  0  0  0
    2.4306    1.2685    1.3086 H   0  0  0  0  0  0  0  0  0  0  0  0
   -1.3678    3.0763    2.5242 H   0  0  0  0  0  0  0  0  0  0  0  0
   -2.2186    1.1507    4.3590 H   0  0  0  0  0  0  0  0  0  0  0  0
   -1.2689   -0.9630    5.2419 H   0  0  0  0  0  0  0  0  0  0  0  0
    0.5057   -0.9196    5.3907 H   0  0  0  0  0  0  0  0  0  0  0  0
   -0.2654   -1.8280    4.0519 H   0  0  0  0  0  0  0  0  0  0  0  0
    3.8289   -3.6493   -2.5705 H   0  0  0  0  0  0  0  0  0  0  0  0
    0.8646    2.3066    1.7328 H   0  0  0  0  0  0  0  0  0  0  0  0
  1  2  1  0
  1 23  1  0
  1 24  1  0
  1 25  1  0
  2 22  1  0
  2  3  1  0
  3  4  2  0
  3 26  1  0
  4  5  1  0
  4 21  1  0
  5 10  1  0
  5  6  1  0
  6  7  1  0
  6 27  1  0
  6 28  1  0
  7  8  1  0
  7 29  1  0
  7 30  1  0
  8  9  1  0
  9 10  1  0
  9 31  1  0
  9 32  1  0
 10 11  1  0
 10 33  1  6
 11 12  1  0
 11 34  1  0
 11 35  1  0
 12 13  1  0
 12 36  1  0
 13 14  2  0
 13 15  1  0
 15 19  1  0
 15 16  2  0
 16 17  1  0
 16 43  1  0
 17 18  2  0
 17 37  1  0
 18 19  1  0
 18 38  1  0
 19 20  1  0
 20 39  1  0
 20 40  1  0
 20 41  1  0
 21 22  2  0
 21 42  1  0
M  CHG  1  16   1
M  END
>  <i_m_ct_stereo_status>  (239) 
1

>  <s_m_source_file>  (239) 
/var/tmp/pbs.5076255.sched01/tmp7qb2j_xu/82up84z1qn.sdf

>  <i_m_source_file_index>  (239) 
26

>  <i_lp_mmshare_version>  (239) 
48012

>  <i_f3d_flags>  (239) 
0

>  <s_epik_input>  (239) 
W0NIM11uMVtjSF1jKFtjSF1uMSlOMltDSDJdW0NIMl1PW0NIMl1bQ0BIXTJbQ0gyXVtOSF1DKD1PKWMzbltjSF1bY0hdbjNbQ0gzXQ==

>  <s_epik_cmdline>  (239) 
J2VwaWtfcHl0aG9uJywgJy1waHQnLCAnMi4wJywgJy1waCcsICc3LjAnLCAnLXRuJywgJzgnLCAnLW1hJywgJzIwMCcsICctaW1hZScsICc8aW5maWxlLm1hZT4nLCAnLW9tYWUnLCAnPG91dGZpbGUubWFlPic=

>  <r_lp_tautomer_probability>  (239) 
1

>  <r_epik_Ionization_Penalty>  (239) 
1.27545

>  <r_epik_Ionization_Penalty_Charging>  (239) 
0

>  <r_epik_Ionization_Penalty_Neutral>  (239) 
1.27545

>  <r_epik_State_Penalty>  (239) 
1.34712

>  <r_epik_Charging_Adjusted_Penalty>  (239) 
1.34712

>  <i_epik_Tot_Q>  (239) 
1

>  <i_epik_Tot_abs_Q>  (239) 
1

>  <s_lp_Force_Field>  (239) 
OPLS3e

>  <r_lp_Energy>  (239) 
11.5082

>  <b_lp_Chiralities_Consistent>  (239) 
1

>  <s_lp_Variant>  (239) 
66:0-2

>  <s_i_glide_gridfile>  (239) 
pfpi4k_grid

>  <i_i_glide_lignum>  (239) 
26

>  <i_i_glide_rotatable_bonds>  (239) 
5

>  <r_i_docking_score>  (239) 
-3.62176

>  <r_i_glide_ligand_efficiency>  (239) 
-0.164625

>  <r_i_glide_ligand_efficiency_sa>  (239) 
-0.461286

>  <r_i_glide_ligand_efficiency_ln>  (239) 
-0.885289

>  <r_i_glide_gscore>  (239) 
-3.62176

>  <r_i_glide_lipo>  (239) 
-0.472348

>  <r_i_glide_hbond>  (239) 
-0.207551

>  <r_i_glide_metal>  (239) 
-0

>  <r_i_glide_rewards>  (239) 
-1.53383

>  <r_i_glide_evdw>  (239) 
-31.787

>  <r_i_glide_ecoul>  (239) 
-4.21808

>  <r_i_glide_erotb>  (239) 
0.989679

>  <r_i_glide_esite>  (239) 
-0.175645

>  <r_i_glide_emodel>  (239) 
-41.9971

>  <r_i_glide_energy>  (239) 
-36.0051

>  <r_i_glide_einternal>  (239) 
7.86909

>  <r_i_glide_intrahb_reward>  (239) 
-0

>  <i_i_glide_confnum>  (239) 
1

>  <i_i_glide_posenum>  (239) 
27

>  <r_i_glide_eff_state_penalty>  (239) 
0

>  <ligand_id>  (239) 
66

>  <original_smiles>  (239) 
Cn1cc(N2CCOCC2CNC(=O)c2nccn2C)cn1

>  <smiles>  (239) 
[H]c1nn(C([H])([H])[H])c([H])c1N1C([H])([H])C([H])([H])OC([H])([H])C1([H])C([H])([H])N([H])C(=O)c1n(C([H])([H])[H])c([H])c([H])[n+]1[H]

$$$$
67:0:0
     RDKit          3D

 23 25  0  0  1  0  0  0  0  0999 V2000
    3.1996    0.1319   -4.4881 C   0  0  0  0  0  0  0  0  0  0  0  0
    3.7649   -1.0327   -3.8225 N   0  0  0  0  0  0  0  0  0  0  0  0
    4.6121   -1.0785   -2.7323 C   0  0  0  0  0  0  0  0  0  0  0  0
    4.8610   -2.3976   -2.4969 C   0  0  0  0  0  0  0  0  0  0  0  0
    5.7289   -2.9733   -1.4549 C   0  0  0  0  0  0  0  0  0  0  0  0
    5.3953   -4.1511   -0.8269 C   0  0  0  0  0  0  0  0  0  0  0  0
    6.2621   -4.6103    0.1104 N   0  0  0  0  0  0  0  0  0  0  0  0
    6.1369   -5.7274    0.8720 N   0  0  0  0  0  0  0  0  0  0  0  0
    7.2597   -5.6984    1.5806 C   0  0  0  0  0  0  0  0  0  0  0  0
    8.1165   -4.6616    1.3234 N   0  0  0  0  0  0  0  0  0  0  0  0
    7.4635   -3.9530    0.4102 C   0  0  0  0  0  0  0  0  0  0  0  0
    7.7147   -2.7380   -0.2869 C   0  0  0  0  0  0  0  0  0  0  0  0
    6.8755   -2.2619   -1.1682 N   0  0  0  0  0  0  0  0  0  0  0  0
    4.1049   -3.1037   -3.4733 C   0  0  0  0  0  0  0  0  0  0  0  0
    3.4756   -2.2662   -4.2879 N   0  0  0  0  0  0  0  0  0  0  0  0
    3.5643    1.0428   -4.0181 H   0  0  0  0  0  0  0  0  0  0  0  0
    2.1130    0.1266   -4.4185 H   0  0  0  0  0  0  0  0  0  0  0  0
    3.4698    0.1481   -5.5433 H   0  0  0  0  0  0  0  0  0  0  0  0
    4.9721   -0.1836   -2.2363 H   0  0  0  0  0  0  0  0  0  0  0  0
    4.5100   -4.7441   -1.0360 H   0  0  0  0  0  0  0  0  0  0  0  0
    7.4799   -6.4524    2.3209 H   0  0  0  0  0  0  0  0  0  0  0  0
    8.6371   -2.2074   -0.0735 H   0  0  0  0  0  0  0  0  0  0  0  0
    4.0076   -4.1711   -3.6488 H   0  0  0  0  0  0  0  0  0  0  0  0
  1  2  1  0
  1 16  1  0
  1 17  1  0
  1 18  1  0
  2 15  1  0
  2  3  1  0
  3  4  2  0
  3 19  1  0
  4  5  1  0
  4 14  1  0
  5 13  1  0
  5  6  2  0
  6  7  1  0
  6 20  1  0
  7 11  1  0
  7  8  1  0
  8  9  2  0
  9 10  1  0
  9 21  1  0
 10 11  2  0
 11 12  1  0
 12 13  2  0
 12 22  1  0
 14 15  2  0
 14 23  1  0
M  END
>  <i_m_ct_stereo_status>  (240) 
1

>  <s_m_source_file>  (240) 
/var/tmp/pbs.5076255.sched01/tmp7qb2j_xu/82up84z1qn.sdf

>  <i_m_source_file_index>  (240) 
27

>  <i_lp_mmshare_version>  (240) 
48012

>  <i_f3d_flags>  (240) 
0

>  <s_epik_input>  (240) 
W0NIM11uMVtjSF1jKFtjSF1uMSktYyhbY0hdMiluW2NIXWMobjIzKW5bY0hdbjM=

>  <s_epik_cmdline>  (240) 
J2VwaWtfcHl0aG9uJywgJy1waHQnLCAnMi4wJywgJy1waCcsICc3LjAnLCAnLXRuJywgJzgnLCAnLW1hJywgJzIwMCcsICctaW1hZScsICc8aW5maWxlLm1hZT4nLCAnLW9tYWUnLCAnPG91dGZpbGUubWFlPic=

>  <r_lp_tautomer_probability>  (240) 
1

>  <r_epik_Ionization_Penalty>  (240) 
0.000129015

>  <r_epik_Ionization_Penalty_Charging>  (240) 
0

>  <r_epik_Ionization_Penalty_Neutral>  (240) 
0.000129015

>  <r_epik_State_Penalty>  (240) 
-0

>  <r_epik_Charging_Adjusted_Penalty>  (240) 
0

>  <i_epik_Tot_Q>  (240) 
0

>  <i_epik_Tot_abs_Q>  (240) 
0

>  <s_lp_Force_Field>  (240) 
OPLS3e

>  <r_lp_Energy>  (240) 
15.4277

>  <b_lp_Chiralities_Consistent>  (240) 
1

>  <s_lp_Variant>  (240) 
67:0-1

>  <s_i_glide_gridfile>  (240) 
pfpi4k_grid

>  <i_i_glide_lignum>  (240) 
27

>  <i_i_glide_rotatable_bonds>  (240) 
1

>  <r_i_docking_score>  (240) 
-5.39506

>  <r_i_glide_ligand_efficiency>  (240) 
-0.359671

>  <r_i_glide_ligand_efficiency_sa>  (240) 
-0.887024

>  <r_i_glide_ligand_efficiency_ln>  (240) 
-1.45496

>  <r_i_glide_gscore>  (240) 
-5.39506

>  <r_i_glide_lipo>  (240) 
-0.51773

>  <r_i_glide_hbond>  (240) 
-0.48

>  <r_i_glide_metal>  (240) 
-0

>  <r_i_glide_rewards>  (240) 
-2.7364

>  <r_i_glide_evdw>  (240) 
-25.3004

>  <r_i_glide_ecoul>  (240) 
-5.35706

>  <r_i_glide_erotb>  (240) 
0.407654

>  <r_i_glide_esite>  (240) 
0

>  <r_i_glide_emodel>  (240) 
-40.1001

>  <r_i_glide_energy>  (240) 
-30.6575

>  <r_i_glide_einternal>  (240) 
1.31239

>  <r_i_glide_intrahb_reward>  (240) 
-0

>  <i_i_glide_confnum>  (240) 
4

>  <i_i_glide_posenum>  (240) 
1

>  <r_i_glide_eff_state_penalty>  (240) 
0

>  <ligand_id>  (240) 
67

>  <original_smiles>  (240) 
Cn1cc(-c2cn3ncnc3cn2)cn1

>  <smiles>  (240) 
[H]c1nc2c([H])nc(-c3c([H])nn(C([H])([H])[H])c3[H])c([H])n2n1

$$$$
67:0:1
     RDKit          3D

 23 25  0  0  1  0  0  0  0  0999 V2000
    3.5978    0.5067   -4.5550 C   0  0  0  0  0  0  0  0  0  0  0  0
    3.8155   -0.6914   -3.7643 N   0  0  0  0  0  0  0  0  0  0  0  0
    4.2699   -0.7987   -2.4633 C   0  0  0  0  0  0  0  0  0  0  0  0
    4.2871   -2.1334   -2.1702 C   0  0  0  0  0  0  0  0  0  0  0  0
    4.6984   -2.7802   -0.9123 C   0  0  0  0  0  0  0  0  0  0  0  0
    4.2439   -4.0323   -0.5541 C   0  0  0  0  0  0  0  0  0  0  0  0
    4.6845   -4.5397    0.6198 N   0  0  0  0  0  0  0  0  0  0  0  0
    4.3646   -5.7433    1.1690 N   0  0  0  0  0  0  0  0  0  0  0  0
    5.0615   -5.7188    2.2993 C   0  0  0  0  0  0  0  0  0  0  0  0
    5.8046   -4.5960    2.5272 N   0  0  0  0  0  0  0  0  0  0  0  0
    5.5678   -3.8470    1.4580 C   0  0  0  0  0  0  0  0  0  0  0  0
    5.9903   -2.5625    1.0044 C   0  0  0  0  0  0  0  0  0  0  0  0
    5.5777   -2.0582   -0.1265 N   0  0  0  0  0  0  0  0  0  0  0  0
    3.8085   -2.7763   -3.3474 C   0  0  0  0  0  0  0  0  0  0  0  0
    3.5698   -1.9005   -4.3112 N   0  0  0  0  0  0  0  0  0  0  0  0
    3.8669    1.3952   -3.9852 H   0  0  0  0  0  0  0  0  0  0  0  0
    2.5495    0.5885   -4.8437 H   0  0  0  0  0  0  0  0  0  0  0  0
    4.2079    0.4841   -5.4575 H   0  0  0  0  0  0  0  0  0  0  0  0
    4.5446    0.0662   -1.8683 H   0  0  0  0  0  0  0  0  0  0  0  0
    3.5560   -4.6496   -1.1213 H   0  0  0  0  0  0  0  0  0  0  0  0
    5.0364   -6.5469    2.9981 H   0  0  0  0  0  0  0  0  0  0  0  0
    6.6719   -1.9981    1.6299 H   0  0  0  0  0  0  0  0  0  0  0  0
    3.6595   -3.8305   -3.5443 H   0  0  0  0  0  0  0  0  0  0  0  0
  1  2  1  0
  1 16  1  0
  1 17  1  0
  1 18  1  0
  2 15  1  0
  2  3  1  0
  3  4  2  0
  3 19  1  0
  4  5  1  0
  4 14  1  0
  5 13  1  0
  5  6  2  0
  6  7  1  0
  6 20  1  0
  7 11  1  0
  7  8  1  0
  8  9  2  0
  9 10  1  0
  9 21  1  0
 10 11  2  0
 11 12  1  0
 12 13  2  0
 12 22  1  0
 14 15  2  0
 14 23  1  0
M  END
>  <i_m_ct_stereo_status>  (241) 
1

>  <s_m_source_file>  (241) 
/var/tmp/pbs.5076255.sched01/tmp7qb2j_xu/82up84z1qn.sdf

>  <i_m_source_file_index>  (241) 
27

>  <i_lp_mmshare_version>  (241) 
48012

>  <i_f3d_flags>  (241) 
0

>  <s_epik_input>  (241) 
W0NIM11uMVtjSF1jKFtjSF1uMSktYyhbY0hdMiluW2NIXWMobjIzKW5bY0hdbjM=

>  <s_epik_cmdline>  (241) 
J2VwaWtfcHl0aG9uJywgJy1waHQnLCAnMi4wJywgJy1waCcsICc3LjAnLCAnLXRuJywgJzgnLCAnLW1hJywgJzIwMCcsICctaW1hZScsICc8aW5maWxlLm1hZT4nLCAnLW9tYWUnLCAnPG91dGZpbGUubWFlPic=

>  <r_lp_tautomer_probability>  (241) 
1

>  <r_epik_Ionization_Penalty>  (241) 
0.000129015

>  <r_epik_Ionization_Penalty_Charging>  (241) 
0

>  <r_epik_Ionization_Penalty_Neutral>  (241) 
0.000129015

>  <r_epik_State_Penalty>  (241) 
-0

>  <r_epik_Charging_Adjusted_Penalty>  (241) 
0

>  <i_epik_Tot_Q>  (241) 
0

>  <i_epik_Tot_abs_Q>  (241) 
0

>  <s_lp_Force_Field>  (241) 
OPLS3e

>  <r_lp_Energy>  (241) 
15.4277

>  <b_lp_Chiralities_Consistent>  (241) 
1

>  <s_lp_Variant>  (241) 
67:0-1

>  <s_i_glide_gridfile>  (241) 
pfpi4k_grid

>  <i_i_glide_lignum>  (241) 
27

>  <i_i_glide_rotatable_bonds>  (241) 
1

>  <r_i_docking_score>  (241) 
-4.60483

>  <r_i_glide_ligand_efficiency>  (241) 
-0.306988

>  <r_i_glide_ligand_efficiency_sa>  (241) 
-0.757099

>  <r_i_glide_ligand_efficiency_ln>  (241) 
-1.24185

>  <r_i_glide_gscore>  (241) 
-4.60483

>  <r_i_glide_lipo>  (241) 
-0.294113

>  <r_i_glide_hbond>  (241) 
-0.32

>  <r_i_glide_metal>  (241) 
-0

>  <r_i_glide_rewards>  (241) 
-2.5095

>  <r_i_glide_evdw>  (241) 
-23.0338

>  <r_i_glide_ecoul>  (241) 
-4.91456

>  <r_i_glide_erotb>  (241) 
0.407654

>  <r_i_glide_esite>  (241) 
0

>  <r_i_glide_emodel>  (241) 
-36.3087

>  <r_i_glide_energy>  (241) 
-27.9483

>  <r_i_glide_einternal>  (241) 
0.594939

>  <r_i_glide_intrahb_reward>  (241) 
-0

>  <i_i_glide_confnum>  (241) 
2

>  <i_i_glide_posenum>  (241) 
16

>  <r_i_glide_eff_state_penalty>  (241) 
0

>  <ligand_id>  (241) 
67

>  <original_smiles>  (241) 
Cn1cc(-c2cn3ncnc3cn2)cn1

>  <smiles>  (241) 
[H]c1nc2c([H])nc(-c3c([H])nn(C([H])([H])[H])c3[H])c([H])n2n1

$$$$
67:0:2
     RDKit          3D

 23 25  0  0  1  0  0  0  0  0999 V2000
    3.8337    0.4434   -4.3290 C   0  0  0  0  0  0  0  0  0  0  0  0
    3.7547   -0.8187   -3.6158 N   0  0  0  0  0  0  0  0  0  0  0  0
    3.9481   -1.0702   -2.2714 C   0  0  0  0  0  0  0  0  0  0  0  0
    3.7164   -2.4026   -2.0918 C   0  0  0  0  0  0  0  0  0  0  0  0
    3.7817   -3.1651   -0.8329 C   0  0  0  0  0  0  0  0  0  0  0  0
    2.8435   -4.1208   -0.5142 C   0  0  0  0  0  0  0  0  0  0  0  0
    3.0114   -4.7876    0.6527 N   0  0  0  0  0  0  0  0  0  0  0  0
    2.2108   -5.7575    1.1713 N   0  0  0  0  0  0  0  0  0  0  0  0
    2.8403   -6.0524    2.3046 C   0  0  0  0  0  0  0  0  0  0  0  0
    3.9743   -5.3429    2.5744 N   0  0  0  0  0  0  0  0  0  0  0  0
    4.0842   -4.5385    1.5209 C   0  0  0  0  0  0  0  0  0  0  0  0
    5.0032   -3.5319    1.1047 C   0  0  0  0  0  0  0  0  0  0  0  0
    4.8504   -2.8712   -0.0127 N   0  0  0  0  0  0  0  0  0  0  0  0
    3.3908   -2.8987   -3.3842 C   0  0  0  0  0  0  0  0  0  0  0  0
    3.4554   -1.9429   -4.3049 N   0  0  0  0  0  0  0  0  0  0  0  0
    4.1165    1.2473   -3.6508 H   0  0  0  0  0  0  0  0  0  0  0  0
    2.8758    0.6889   -4.7880 H   0  0  0  0  0  0  0  0  0  0  0  0
    4.5831    0.3834   -5.1142 H   0  0  0  0  0  0  0  0  0  0  0  0
    4.2213   -0.2984   -1.5612 H   0  0  0  0  0  0  0  0  0  0  0  0
    2.0118   -4.4039   -1.1516 H   0  0  0  0  0  0  0  0  0  0  0  0
    2.4673   -6.8036    2.9836 H   0  0  0  0  0  0  0  0  0  0  0  0
    5.8476   -3.3046    1.7467 H   0  0  0  0  0  0  0  0  0  0  0  0
    3.1352   -3.9068   -3.6952 H   0  0  0  0  0  0  0  0  0  0  0  0
  1  2  1  0
  1 16  1  0
  1 17  1  0
  1 18  1  0
  2 15  1  0
  2  3  1  0
  3  4  2  0
  3 19  1  0
  4  5  1  0
  4 14  1  0
  5 13  1  0
  5  6  2  0
  6  7  1  0
  6 20  1  0
  7 11  1  0
  7  8  1  0
  8  9  2  0
  9 10  1  0
  9 21  1  0
 10 11  2  0
 11 12  1  0
 12 13  2  0
 12 22  1  0
 14 15  2  0
 14 23  1  0
M  END
>  <i_m_ct_stereo_status>  (242) 
1

>  <s_m_source_file>  (242) 
/var/tmp/pbs.5076255.sched01/tmp7qb2j_xu/82up84z1qn.sdf

>  <i_m_source_file_index>  (242) 
27

>  <i_lp_mmshare_version>  (242) 
48012

>  <i_f3d_flags>  (242) 
0

>  <s_epik_input>  (242) 
W0NIM11uMVtjSF1jKFtjSF1uMSktYyhbY0hdMiluW2NIXWMobjIzKW5bY0hdbjM=

>  <s_epik_cmdline>  (242) 
J2VwaWtfcHl0aG9uJywgJy1waHQnLCAnMi4wJywgJy1waCcsICc3LjAnLCAnLXRuJywgJzgnLCAnLW1hJywgJzIwMCcsICctaW1hZScsICc8aW5maWxlLm1hZT4nLCAnLW9tYWUnLCAnPG91dGZpbGUubWFlPic=

>  <r_lp_tautomer_probability>  (242) 
1

>  <r_epik_Ionization_Penalty>  (242) 
0.000129015

>  <r_epik_Ionization_Penalty_Charging>  (242) 
0

>  <r_epik_Ionization_Penalty_Neutral>  (242) 
0.000129015

>  <r_epik_State_Penalty>  (242) 
-0

>  <r_epik_Charging_Adjusted_Penalty>  (242) 
0

>  <i_epik_Tot_Q>  (242) 
0

>  <i_epik_Tot_abs_Q>  (242) 
0

>  <s_lp_Force_Field>  (242) 
OPLS3e

>  <r_lp_Energy>  (242) 
15.4277

>  <b_lp_Chiralities_Consistent>  (242) 
1

>  <s_lp_Variant>  (242) 
67:0-1

>  <s_i_glide_gridfile>  (242) 
pfpi4k_grid

>  <i_i_glide_lignum>  (242) 
27

>  <i_i_glide_rotatable_bonds>  (242) 
1

>  <r_i_docking_score>  (242) 
-4.41807

>  <r_i_glide_ligand_efficiency>  (242) 
-0.294538

>  <r_i_glide_ligand_efficiency_sa>  (242) 
-0.726394

>  <r_i_glide_ligand_efficiency_ln>  (242) 
-1.19148

>  <r_i_glide_gscore>  (242) 
-4.41807

>  <r_i_glide_lipo>  (242) 
-0.282245

>  <r_i_glide_hbond>  (242) 
-0.318288

>  <r_i_glide_metal>  (242) 
-0

>  <r_i_glide_rewards>  (242) 
-2.40303

>  <r_i_glide_evdw>  (242) 
-22.4554

>  <r_i_glide_ecoul>  (242) 
-4.51873

>  <r_i_glide_erotb>  (242) 
0.407654

>  <r_i_glide_esite>  (242) 
-0.0215813

>  <r_i_glide_emodel>  (242) 
-34.3797

>  <r_i_glide_energy>  (242) 
-26.9742

>  <r_i_glide_einternal>  (242) 
1.69844

>  <r_i_glide_intrahb_reward>  (242) 
-0

>  <i_i_glide_confnum>  (242) 
2

>  <i_i_glide_posenum>  (242) 
24

>  <r_i_glide_eff_state_penalty>  (242) 
0

>  <ligand_id>  (242) 
67

>  <original_smiles>  (242) 
Cn1cc(-c2cn3ncnc3cn2)cn1

>  <smiles>  (242) 
[H]c1nc2c([H])nc(-c3c([H])nn(C([H])([H])[H])c3[H])c([H])n2n1

$$$$
68:0:0
     RDKit          3D

 63 67  0  0  1  0  0  0  0  0999 V2000
    2.2251   -2.4450   -3.3288 C   0  0  0  0  0  0  0  0  0  0  0  0
    3.4733   -3.0946   -3.1802 O   0  0  0  0  0  0  0  0  0  0  0  0
    4.4545   -2.4821   -2.3316 C   0  0  0  0  0  0  0  0  0  0  0  0
    5.6604   -3.3167   -2.7961 C   0  0  0  0  0  0  0  0  0  0  0  0
    4.6768   -1.0468   -2.8804 C   0  0  0  0  0  0  0  0  0  0  0  0
    4.0778   -2.5550   -0.7444 C   0  0  1  0  0  0  0  0  0  0  0  0
    3.4020   -1.3200   -0.5050 O   0  0  0  0  0  0  0  0  0  0  0  0
    3.0674   -3.6695   -0.3935 C   0  0  0  0  0  0  0  0  0  0  0  0
    3.3306   -4.4018    0.9323 C   0  0  2  0  0  0  0  0  0  0  0  0
    3.4444   -3.5233    2.1616 C   0  0  0  0  0  0  0  0  0  0  0  0
    3.3560   -4.1609    3.3616 C   0  0  0  0  0  0  0  0  0  0  0  0
    4.6596   -4.4398    4.2200 C   0  0  1  0  0  0  0  0  0  0  0  0
    5.0046   -3.3775    5.2603 C   0  0  0  0  0  0  0  0  0  0  0  0
    4.5408   -5.8752    4.7682 C   0  0  0  0  0  0  0  0  0  0  0  0
    3.9113   -6.3805    3.4766 C   0  0  1  0  0  0  0  0  0  0  0  0
    2.6112   -5.5059    3.5568 C   0  0  0  0  0  0  0  0  0  0  0  0
    1.8069   -5.3562    4.8842 C   0  0  0  0  0  0  0  0  0  0  0  0
    1.5099   -6.0889    2.6312 C   0  0  0  0  0  0  0  0  0  0  0  0
    5.0283   -5.8929    2.3805 C   0  0  1  0  0  0  0  0  0  0  0  0
    5.9093   -6.9630    2.1344 O   0  0  0  0  0  0  0  0  0  0  0  0
    4.6434   -5.2147    0.9618 C   0  0  2  0  0  0  0  0  0  0  0  0
    5.7011   -4.1867    0.4061 C   0  0  0  0  0  0  0  0  0  0  0  0
    5.1792   -2.6787    0.4138 C   0  0  1  0  0  0  0  0  0  0  0  0
    6.3644   -1.6947    0.2563 C   0  0  0  0  0  0  0  0  0  0  0  0
    4.4823   -2.4311    1.8383 C   0  0  1  0  0  0  0  0  0  0  0  0
    3.8896   -1.1702    2.0479 O   0  0  0  0  0  0  0  0  0  0  0  0
    5.7836   -4.8669    3.2625 C   0  0  0  0  0  0  0  0  0  0  0  0
    1.4381   -3.1156   -3.6844 H   0  0  0  0  0  0  0  0  0  0  0  0
    2.2635   -1.6062   -4.0253 H   0  0  0  0  0  0  0  0  0  0  0  0
    1.9064   -2.0743   -2.3571 H   0  0  0  0  0  0  0  0  0  0  0  0
    6.6126   -2.9836   -2.3950 H   0  0  0  0  0  0  0  0  0  0  0  0
    5.7604   -3.2802   -3.8806 H   0  0  0  0  0  0  0  0  0  0  0  0
    5.5228   -4.3743   -2.6018 H   0  0  0  0  0  0  0  0  0  0  0  0
    5.4785   -0.5368   -2.3430 H   0  0  0  0  0  0  0  0  0  0  0  0
    3.8109   -0.3832   -2.8314 H   0  0  0  0  0  0  0  0  0  0  0  0
    4.9305   -1.1175   -3.9402 H   0  0  0  0  0  0  0  0  0  0  0  0
    2.4864   -1.3810   -0.7640 H   0  0  0  0  0  0  0  0  0  0  0  0
    2.0477   -3.2921   -0.4025 H   0  0  0  0  0  0  0  0  0  0  0  0
    3.1137   -4.4579   -1.1384 H   0  0  0  0  0  0  0  0  0  0  0  0
    2.5158   -5.0744    0.8768 H   0  0  0  0  0  0  0  0  0  0  0  0
    5.8907   -3.6574    5.8259 H   0  0  0  0  0  0  0  0  0  0  0  0
    4.1814   -3.2626    5.9628 H   0  0  0  0  0  0  0  0  0  0  0  0
    5.1845   -2.4018    4.8155 H   0  0  0  0  0  0  0  0  0  0  0  0
    5.4700   -6.3978    5.0109 H   0  0  0  0  0  0  0  0  0  0  0  0
    3.9683   -5.9876    5.6817 H   0  0  0  0  0  0  0  0  0  0  0  0
    3.7038   -7.4580    3.4830 H   0  0  0  0  0  0  0  0  0  0  0  0
    1.6239   -6.3256    5.3464 H   0  0  0  0  0  0  0  0  0  0  0  0
    0.8467   -4.8847    4.6992 H   0  0  0  0  0  0  0  0  0  0  0  0
    2.2866   -4.7158    5.6165 H   0  0  0  0  0  0  0  0  0  0  0  0
    0.8567   -6.7581    3.1846 H   0  0  0  0  0  0  0  0  0  0  0  0
    1.9062   -6.7277    1.8450 H   0  0  0  0  0  0  0  0  0  0  0  0
    0.8689   -5.3083    2.2193 H   0  0  0  0  0  0  0  0  0  0  0  0
    5.4287   -7.6440    1.7011 H   0  0  0  0  0  0  0  0  0  0  0  0
    4.5407   -6.0096    0.2449 H   0  0  0  0  0  0  0  0  0  0  0  0
    6.6629   -4.2567    0.8844 H   0  0  0  0  0  0  0  0  0  0  0  0
    5.9857   -4.5363   -0.5961 H   0  0  0  0  0  0  0  0  0  0  0  0
    6.9774   -1.6973    1.1475 H   0  0  0  0  0  0  0  0  0  0  0  0
    6.0162   -0.6766    0.0990 H   0  0  0  0  0  0  0  0  0  0  0  0
    7.0333   -1.9504   -0.5601 H   0  0  0  0  0  0  0  0  0  0  0  0
    5.2380   -2.3731    2.5969 H   0  0  0  0  0  0  0  0  0  0  0  0
    3.3585   -1.0020    1.2821 H   0  0  0  0  0  0  0  0  0  0  0  0
    6.2539   -4.0310    2.7903 H   0  0  0  0  0  0  0  0  0  0  0  0
    6.6456   -5.3080    3.7717 H   0  0  0  0  0  0  0  0  0  0  0  0
  1  2  1  0
  1 28  1  0
  1 29  1  0
  1 30  1  0
  2  3  1  0
  3  4  1  0
  3  5  1  0
  3  6  1  0
  4 31  1  0
  4 32  1  0
  4 33  1  0
  5 34  1  0
  5 35  1  0
  5 36  1  0
  6 23  1  0
  6  7  1  1
  6  8  1  0
  7 37  1  0
  8  9  1  0
  8 38  1  0
  8 39  1  0
  9 21  1  0
  9 10  1  0
  9 40  1  1
 10 25  1  0
 10 11  2  0
 11 16  1  0
 11 12  1  0
 12 27  1  0
 12 13  1  1
 12 14  1  0
 13 41  1  0
 13 42  1  0
 13 43  1  0
 14 15  1  0
 14 44  1  0
 14 45  1  0
 15 16  1  0
 15 19  1  0
 15 46  1  1
 16 17  1  0
 16 18  1  0
 17 47  1  0
 17 48  1  0
 17 49  1  0
 18 50  1  0
 18 51  1  0
 18 52  1  0
 19 20  1  6
 19 21  1  0
 19 27  1  0
 20 53  1  0
 21 22  1  0
 21 54  1  6
 22 23  1  0
 22 55  1  0
 22 56  1  0
 23 24  1  6
 23 25  1  0
 24 57  1  0
 24 58  1  0
 24 59  1  0
 25 26  1  0
 25 60  1  1
 26 61  1  0
 27 62  1  0
 27 63  1  0
M  END
>  <i_m_ct_stereo_status>  (243) 
1

>  <s_m_source_file>  (243) 
/var/tmp/pbs.5076255.sched01/tmp7qb2j_xu/82up84z1qn.sdf

>  <i_m_source_file_index>  (243) 
28

>  <i_lp_mmshare_version>  (243) 
48012

>  <i_f3d_flags>  (243) 
0

>  <s_epik_input>  (243) 
W0NIM11PQyhbQ0gzXSkoW0NIM10pW0NAQF0oW09IXSkoW0NIMl0xKVtDQEBdKFtDSDNdKShbQ0BIXTJbT0hdKVtDSDJdW0NAQEhdKFtDQEBdKFtPSF0pKFtDSDJdMylbQ0BASF0oW0NIMl00KUM1KFtDSDNdKVtDSDNdKVtDQEhdMUMyPUM1W0NAXTM0W0NIM10=

>  <s_epik_cmdline>  (243) 
J2VwaWtfcHl0aG9uJywgJy1waHQnLCAnMi4wJywgJy1waCcsICc3LjAnLCAnLXRuJywgJzgnLCAnLW1hJywgJzIwMCcsICctaW1hZScsICc8aW5maWxlLm1hZT4nLCAnLW9tYWUnLCAnPG91dGZpbGUubWFlPic=

>  <r_lp_tautomer_probability>  (243) 
1

>  <r_epik_Ionization_Penalty>  (243) 
2.34282e-06

>  <r_epik_Ionization_Penalty_Charging>  (243) 
0

>  <r_epik_Ionization_Penalty_Neutral>  (243) 
2.34282e-06

>  <r_epik_State_Penalty>  (243) 
-0

>  <r_epik_Charging_Adjusted_Penalty>  (243) 
0

>  <i_epik_Tot_Q>  (243) 
0

>  <i_epik_Tot_abs_Q>  (243) 
0

>  <s_lp_Force_Field>  (243) 
OPLS3e

>  <r_lp_Energy>  (243) 
188.318

>  <b_lp_Chiralities_Consistent>  (243) 
1

>  <s_lp_Variant>  (243) 
68:0-1

>  <s_i_glide_gridfile>  (243) 
pfpi4k_grid

>  <i_i_glide_lignum>  (243) 
28

>  <i_i_glide_rotatable_bonds>  (243) 
5

>  <r_i_docking_score>  (243) 
-3.44746

>  <r_i_glide_ligand_efficiency>  (243) 
-0.127684

>  <r_i_glide_ligand_efficiency_sa>  (243) 
-0.383051

>  <r_i_glide_ligand_efficiency_ln>  (243) 
-0.802512

>  <r_i_glide_gscore>  (243) 
-3.44746

>  <r_i_glide_lipo>  (243) 
-0.688039

>  <r_i_glide_hbond>  (243) 
0

>  <r_i_glide_metal>  (243) 
-0

>  <r_i_glide_rewards>  (243) 
-1.34184

>  <r_i_glide_evdw>  (243) 
-20.3385

>  <r_i_glide_ecoul>  (243) 
-3.58132

>  <r_i_glide_erotb>  (243) 
0.136545

>  <r_i_glide_esite>  (243) 
0

>  <r_i_glide_emodel>  (243) 
-29.8236

>  <r_i_glide_energy>  (243) 
-23.9198

>  <r_i_glide_einternal>  (243) 
5.94026

>  <r_i_glide_intrahb_reward>  (243) 
-0.5

>  <i_i_glide_confnum>  (243) 
5

>  <i_i_glide_posenum>  (243) 
1

>  <r_i_glide_eff_state_penalty>  (243) 
0

>  <ligand_id>  (243) 
68

>  <original_smiles>  (243) 
COC(C)(C)C1(O)CC2C3=C4C5(C)CC(C4(C)C)C(O)(C2CC1(C)C3O)C5

>  <smiles>  (243) 
[H]OC1([H])C2=C3C4(C([H])([H])[H])C([H])([H])C([H])(C(O[H])(C5([H])C([H])([H])C1(C([H])([H])[H])C(O[H])(C(OC([H])([H])[H])(C([H])([H])[H])C([H])([H])[H])C([H])([H])C25[H])C4([H])[H])C3(C([H])([H])[H])C([H])([H])[H]

$$$$
69:0:0
     RDKit          3D

 56 63  0  0  1  0  0  0  0  0999 V2000
    6.0079   -6.4512    1.5029 C   0  0  0  0  0  0  0  0  0  0  0  0
    4.9550   -5.5520    1.1778 O   0  0  0  0  0  0  0  0  0  0  0  0
    5.3107   -4.1728    1.1743 C   0  0  2  0  0  0  0  0  0  0  0  0
    4.0495   -3.4044    1.6400 C   0  0  1  0  0  0  0  0  0  0  0  0
    3.4722   -3.9447    3.2738 S   0  0  0  0  0  0  0  0  0  0  0  0
    2.7605   -2.3399    3.7358 C   0  0  0  0  0  0  0  0  0  0  0  0
    2.8720   -1.3787    2.5337 C   0  0  1  0  0  0  0  0  0  0  0  0
    2.8668    0.1055    2.9687 C   0  0  0  0  0  0  0  0  0  0  0  0
    4.0225    0.4335    3.7181 O   0  0  0  0  0  0  0  0  0  0  0  0
    4.1234   -1.8523    1.7369 C   0  0  2  0  0  0  0  0  0  0  0  0
    4.7146   -0.9746    0.5273 C   0  0  1  0  0  0  0  0  0  0  0  0
    6.2500   -1.2730    0.4222 C   0  0  1  0  0  0  0  0  0  0  0  0
    6.9109   -1.3668    1.5913 O   0  0  0  0  0  0  0  0  0  0  0  0
    6.6110   -2.5276   -0.4376 C   0  0  1  0  0  0  0  0  0  0  0  0
    5.8493   -3.8562   -0.2484 C   0  0  2  0  0  0  0  0  0  0  0  0
    4.9282   -4.0288   -1.5022 C   0  0  2  0  0  0  0  0  0  0  0  0
    5.6440   -3.2708   -2.7297 C   0  0  1  0  0  0  0  0  0  0  0  0
    4.6422   -2.5672   -3.9290 C   0  0  0  0  0  0  0  0  0  0  0  0
    3.1650   -2.0732   -3.2849 C   0  0  1  0  0  0  0  0  0  0  0  0
    2.9602   -3.4367   -2.8456 C   0  0  0  0  0  0  0  0  0  0  0  0
    3.8721   -3.0169   -1.6222 C   0  0  1  0  0  0  0  0  0  0  0  0
    2.7050   -2.4665   -0.9210 C   0  0  0  0  0  0  0  0  0  0  0  0
    3.0171   -1.3685   -1.8062 N   0  0  1  0  0  0  0  0  0  0  0  0
    4.1928   -0.7466   -1.0075 C   0  0  2  0  0  0  0  0  0  0  0  0
    4.9212   -1.7019   -1.6950 C   0  0  1  0  0  0  0  0  0  0  0  0
    6.2664   -2.1781   -1.8452 C   0  0  1  0  0  0  0  0  0  0  0  0
    5.6309   -7.4727    1.4710 H   0  0  0  0  0  0  0  0  0  0  0  0
    6.3877   -6.2707    2.5089 H   0  0  0  0  0  0  0  0  0  0  0  0
    6.8429   -6.3972    0.8052 H   0  0  0  0  0  0  0  0  0  0  0  0
    6.1104   -4.0026    1.8967 H   0  0  0  0  0  0  0  0  0  0  0  0
    3.2321   -3.7373    1.0175 H   0  0  0  0  0  0  0  0  0  0  0  0
    1.7328   -2.4508    4.0808 H   0  0  0  0  0  0  0  0  0  0  0  0
    3.3368   -1.9682    4.5821 H   0  0  0  0  0  0  0  0  0  0  0  0
    1.9716   -1.5311    1.9476 H   0  0  0  0  0  0  0  0  0  0  0  0
    2.8192    0.7564    2.0967 H   0  0  0  0  0  0  0  0  0  0  0  0
    1.9735    0.3280    3.5581 H   0  0  0  0  0  0  0  0  0  0  0  0
    4.0617    1.3753    3.8220 H   0  0  0  0  0  0  0  0  0  0  0  0
    4.8447   -1.7227    2.5224 H   0  0  0  0  0  0  0  0  0  0  0  0
    4.6745    0.0300    0.9318 H   0  0  0  0  0  0  0  0  0  0  0  0
    6.7020   -0.3872   -0.0268 H   0  0  0  0  0  0  0  0  0  0  0  0
    7.1855   -0.4857    1.8732 H   0  0  0  0  0  0  0  0  0  0  0  0
    7.6825   -2.7018   -0.3969 H   0  0  0  0  0  0  0  0  0  0  0  0
    6.6234   -4.5904   -0.4262 H   0  0  0  0  0  0  0  0  0  0  0  0
    4.6088   -5.0518   -1.7082 H   0  0  0  0  0  0  0  0  0  0  0  0
    6.4451   -3.8529   -3.1602 H   0  0  0  0  0  0  0  0  0  0  0  0
    5.0292   -1.6774   -4.4188 H   0  0  0  0  0  0  0  0  0  0  0  0
    4.5000   -3.3093   -4.7009 H   0  0  0  0  0  0  0  0  0  0  0  0
    2.4291   -1.7818   -4.0259 H   0  0  0  0  0  0  0  0  0  0  0  0
    1.8963   -3.6819   -2.7513 H   0  0  0  0  0  0  0  0  0  0  0  0
    3.2658   -4.2543   -3.4917 H   0  0  0  0  0  0  0  0  0  0  0  0
    1.7606   -2.9361   -1.0173 H   0  0  0  0  0  0  0  0  0  0  0  0
    2.6394   -2.0486    0.0368 H   0  0  0  0  0  0  0  0  0  0  0  0
    4.2924    0.2713   -1.3562 H   0  0  0  0  0  0  0  0  0  0  0  0
    5.0722   -0.9354   -2.4894 H   0  0  0  0  0  0  0  0  0  0  0  0
    6.9195   -1.4743   -2.3120 H   0  0  0  0  0  0  0  0  0  0  0  0
    2.1894   -0.7679   -1.7829 H   0  0  0  0  0  0  0  0  0  0  0  0
  1  2  1  0
  1 27  1  0
  1 28  1  0
  1 29  1  0
  2  3  1  0
  3 15  1  0
  3  4  1  0
  3 30  1  1
  4 10  1  0
  4  5  1  0
  4 31  1  6
  5  6  1  0
  6  7  1  0
  6 32  1  0
  6 33  1  0
  7  8  1  0
  7 10  1  0
  7 34  1  6
  8  9  1  0
  8 35  1  0
  8 36  1  0
  9 37  1  0
 10 11  1  0
 10 38  1  1
 11 24  1  0
 11 12  1  0
 11 39  1  1
 12 13  1  0
 12 14  1  0
 12 40  1  6
 13 41  1  0
 14 26  1  0
 14 15  1  0
 14 42  1  6
 15 16  1  0
 15 43  1  6
 16 21  1  0
 16 17  1  0
 16 44  1  6
 17 26  1  0
 17 18  1  0
 17 45  1  6
 18 19  1  0
 18 46  1  0
 18 47  1  0
 19 23  1  0
 19 20  1  0
 19 48  1  6
 21 20  1  6
 20 49  1  0
 20 50  1  0
 21 25  1  0
 21 22  1  0
 22 23  1  0
 22 51  1  0
 22 52  1  0
 23 24  1  0
 23 56  1  6
 24 25  1  0
 24 53  1  6
 25 26  1  0
 25 54  1  6
 26 55  1  6
M  CHG  1  23   1
M  END
>  <i_m_ct_stereo_status>  (244) 
1

>  <s_m_source_file>  (244) 
/var/tmp/pbs.5076255.sched01/tmp7qb2j_xu/82up84z1qn.sdf

>  <i_m_source_file_index>  (244) 
29

>  <i_lp_mmshare_version>  (244) 
48012

>  <i_f3d_flags>  (244) 
2

>  <s_epik_input>  (244) 
W09IXVtDSDJdW0NAQEhdMVtDSDJdU1tDQEBIXShbQ0BIXTJPW0NIM10pW0NASF0xW0NAQEhdKFtDQEhdM1tPSF0pW0NASF0oW0NAQEhdNDUpTihbQ0gyXTYpW0NASF0oW0NIMl03KVtDSDJdW0NASF04W0NAQEhdNVtDQEBIXTNbQ0BASF0yW0NASF04QzQ2Nw==

>  <s_epik_cmdline>  (244) 
J2VwaWtfcHl0aG9uJywgJy1waHQnLCAnMi4wJywgJy1waCcsICc3LjAnLCAnLXRuJywgJzgnLCAnLW1hJywgJzIwMCcsICctaW1hZScsICc8aW5maWxlLm1hZT4nLCAnLW9tYWUnLCAnPG91dGZpbGUubWFlPic=

>  <r_lp_tautomer_probability>  (244) 
1

>  <r_epik_Ionization_Penalty>  (244) 
0.000252597

>  <r_epik_Ionization_Penalty_Charging>  (244) 
0.000252405

>  <r_epik_Ionization_Penalty_Neutral>  (244) 
1.92013e-07

>  <r_epik_State_Penalty>  (244) 
-0

>  <r_epik_Charging_Adjusted_Penalty>  (244) 
0.000252405

>  <i_epik_Tot_Q>  (244) 
1

>  <i_epik_Tot_abs_Q>  (244) 
1

>  <s_lp_Force_Field>  (244) 
OPLS3e

>  <r_lp_Energy>  (244) 
367.259

>  <b_lp_Chiralities_Consistent>  (244) 
0

>  <s_lp_Variant>  (244) 
69:0-1

>  <s_i_glide_gridfile>  (244) 
pfpi4k_grid

>  <i_i_glide_lignum>  (244) 
29

>  <i_i_glide_rotatable_bonds>  (244) 
4

>  <r_i_docking_score>  (244) 
-3.52904

>  <r_i_glide_ligand_efficiency>  (244) 
-0.135732

>  <r_i_glide_ligand_efficiency_sa>  (244) 
-0.402107

>  <r_i_glide_ligand_efficiency_ln>  (244) 
-0.828784

>  <r_i_glide_gscore>  (244) 
-3.52904

>  <r_i_glide_lipo>  (244) 
-0.717762

>  <r_i_glide_hbond>  (244) 
-0.434656

>  <r_i_glide_metal>  (244) 
-0

>  <r_i_glide_rewards>  (244) 
-0.841815

>  <r_i_glide_evdw>  (244) 
-8.95437

>  <r_i_glide_ecoul>  (244) 
-7.49089

>  <r_i_glide_erotb>  (244) 
0.136543

>  <r_i_glide_esite>  (244) 
-0.1

>  <r_i_glide_emodel>  (244) 
-20.0468

>  <r_i_glide_energy>  (244) 
-16.4453

>  <r_i_glide_einternal>  (244) 
2.79077

>  <r_i_glide_intrahb_reward>  (244) 
-0

>  <i_i_glide_confnum>  (244) 
2

>  <i_i_glide_posenum>  (244) 
39

>  <r_i_glide_eff_state_penalty>  (244) 
0

>  <ligand_id>  (244) 
69

>  <original_smiles>  (244) 
COC1C2SCC(CO)C2C2C(O)C3C1C1C4CC5CC16CN5C2C6C43

>  <smiles>  (244) 
[H]OC([H])([H])C1([H])C([H])([H])SC2([H])C([H])(OC([H])([H])[H])C3([H])C4([H])C([H])(O[H])C([H])(C21[H])C1([H])C2([H])C4([H])C4([H])C([H])([H])C5([H])C([H])([H])C2(C43[H])C([H])([H])[N+]51[H]

$$$$
69:0:1
     RDKit          3D

 56 63  0  0  1  0  0  0  0  0999 V2000
    1.3390   -6.8109    1.3319 C   0  0  0  0  0  0  0  0  0  0  0  0
    1.6858   -5.4543    1.0871 O   0  0  0  0  0  0  0  0  0  0  0  0
    2.9455   -5.0442    1.6157 C   0  0  2  0  0  0  0  0  0  0  0  0
    2.7031   -3.6986    2.3553 C   0  0  1  0  0  0  0  0  0  0  0  0
    1.4684   -3.8460    3.6799 S   0  0  0  0  0  0  0  0  0  0  0  0
    2.1855   -2.5361    4.7149 C   0  0  0  0  0  0  0  0  0  0  0  0
    3.3457   -1.8691    3.9479 C   0  0  1  0  0  0  0  0  0  0  0  0
    4.3637   -1.2287    4.9156 C   0  0  0  0  0  0  0  0  0  0  0  0
    5.1559   -0.2788    4.2297 O   0  0  0  0  0  0  0  0  0  0  0  0
    3.9191   -2.9947    3.0366 C   0  0  2  0  0  0  0  0  0  0  0  0
    5.2864   -2.7823    2.2327 C   0  0  1  0  0  0  0  0  0  0  0  0
    5.9228   -4.2293    2.0317 C   0  0  1  0  0  0  0  0  0  0  0  0
    5.8369   -5.1243    3.1246 O   0  0  0  0  0  0  0  0  0  0  0  0
    5.4430   -4.9555    0.7357 C   0  0  1  0  0  0  0  0  0  0  0  0
    3.9328   -5.0260    0.4094 C   0  0  2  0  0  0  0  0  0  0  0  0
    3.6905   -4.0295   -0.7802 C   0  0  2  0  0  0  0  0  0  0  0  0
    5.0490   -3.9931   -1.6442 C   0  0  1  0  0  0  0  0  0  0  0  0
    5.3942   -2.5474   -2.4772 C   0  0  0  0  0  0  0  0  0  0  0  0
    4.7697   -1.1730   -1.6724 C   0  0  1  0  0  0  0  0  0  0  0  0
    3.4630   -1.8151   -1.7772 C   0  0  0  0  0  0  0  0  0  0  0  0
    3.8951   -2.5829   -0.4742 C   0  0  1  0  0  0  0  0  0  0  0  0
    3.4578   -1.4190    0.3800 C   0  0  0  0  0  0  0  0  0  0  0  0
    4.7655   -0.9276   -0.0219 N   0  0  1  0  0  0  0  0  0  0  0  0
    5.6549   -1.7982    0.9522 C   0  0  2  0  0  0  0  0  0  0  0  0
    5.5032   -2.7679   -0.0488 C   0  0  1  0  0  0  0  0  0  0  0  0
    5.9700   -4.1143   -0.4003 C   0  0  1  0  0  0  0  0  0  0  0  0
    0.3647   -7.0126    0.8906 H   0  0  0  0  0  0  0  0  0  0  0  0
    1.2665   -7.0080    2.3994 H   0  0  0  0  0  0  0  0  0  0  0  0
    2.0567   -7.4967    0.8898 H   0  0  0  0  0  0  0  0  0  0  0  0
    3.3020   -5.7737    2.3446 H   0  0  0  0  0  0  0  0  0  0  0  0
    2.1887   -3.0486    1.6598 H   0  0  0  0  0  0  0  0  0  0  0  0
    1.4212   -1.8115    4.9980 H   0  0  0  0  0  0  0  0  0  0  0  0
    2.5422   -3.0076    5.6320 H   0  0  0  0  0  0  0  0  0  0  0  0
    2.8859   -1.0688    3.3713 H   0  0  0  0  0  0  0  0  0  0  0  0
    3.8515   -0.7093    5.7263 H   0  0  0  0  0  0  0  0  0  0  0  0
    4.9982   -1.9819    5.3853 H   0  0  0  0  0  0  0  0  0  0  0  0
    4.5937    0.4114    3.9122 H   0  0  0  0  0  0  0  0  0  0  0  0
    4.1858   -3.6955    3.8230 H   0  0  0  0  0  0  0  0  0  0  0  0
    5.9268   -2.3646    3.0022 H   0  0  0  0  0  0  0  0  0  0  0  0
    7.0004   -4.0765    1.9217 H   0  0  0  0  0  0  0  0  0  0  0  0
    6.3662   -5.8814    2.9342 H   0  0  0  0  0  0  0  0  0  0  0  0
    5.8824   -5.9526    0.6763 H   0  0  0  0  0  0  0  0  0  0  0  0
    3.8158   -6.0042   -0.0531 H   0  0  0  0  0  0  0  0  0  0  0  0
    2.7841   -4.2418   -1.3525 H   0  0  0  0  0  0  0  0  0  0  0  0
    5.1322   -4.8713   -2.2842 H   0  0  0  0  0  0  0  0  0  0  0  0
    6.4726   -2.4666   -2.6376 H   0  0  0  0  0  0  0  0  0  0  0  0
    5.0092   -2.6230   -3.5030 H   0  0  0  0  0  0  0  0  0  0  0  0
    4.8300   -0.2583   -2.2615 H   0  0  0  0  0  0  0  0  0  0  0  0
    2.6572   -1.0843   -1.7960 H   0  0  0  0  0  0  0  0  0  0  0  0
    3.1797   -2.4228   -2.6428 H   0  0  0  0  0  0  0  0  0  0  0  0
    2.6167   -0.7802    0.1182 H   0  0  0  0  0  0  0  0  0  0  0  0
    3.4228   -1.3992    1.4352 H   0  0  0  0  0  0  0  0  0  0  0  0
    6.6588   -1.3749    1.0733 H   0  0  0  0  0  0  0  0  0  0  0  0
    6.4133   -2.3416   -0.5171 H   0  0  0  0  0  0  0  0  0  0  0  0
    7.0416   -4.2092   -0.5961 H   0  0  0  0  0  0  0  0  0  0  0  0
    4.8407    0.0557    0.1996 H   0  0  0  0  0  0  0  0  0  0  0  0
  1  2  1  0
  1 27  1  0
  1 28  1  0
  1 29  1  0
  2  3  1  0
  3 15  1  0
  3  4  1  0
  3 30  1  1
  4 10  1  0
  4  5  1  0
  4 31  1  6
  5  6  1  0
  6  7  1  0
  6 32  1  0
  6 33  1  0
  7  8  1  0
  7 10  1  0
  7 34  1  6
  8  9  1  0
  8 35  1  0
  8 36  1  0
  9 37  1  0
 10 11  1  0
 10 38  1  1
 11 24  1  0
 11 12  1  0
 11 39  1  1
 12 13  1  0
 12 14  1  0
 12 40  1  6
 13 41  1  0
 14 26  1  0
 14 15  1  0
 14 42  1  6
 15 16  1  0
 15 43  1  6
 16 21  1  0
 16 17  1  0
 16 44  1  6
 17 26  1  0
 17 18  1  0
 17 45  1  6
 18 19  1  0
 18 46  1  0
 18 47  1  0
 19 23  1  0
 19 20  1  0
 19 48  1  6
 21 20  1  6
 20 49  1  0
 20 50  1  0
 21 25  1  0
 21 22  1  0
 22 23  1  0
 22 51  1  0
 22 52  1  0
 23 24  1  0
 23 56  1  6
 24 25  1  0
 24 53  1  1
 25 26  1  0
 25 54  1  6
 26 55  1  6
M  CHG  1  23   1
M  END
>  <i_m_ct_stereo_status>  (245) 
1

>  <s_m_source_file>  (245) 
/var/tmp/pbs.5076255.sched01/tmp7qb2j_xu/82up84z1qn.sdf

>  <i_m_source_file_index>  (245) 
29

>  <i_lp_mmshare_version>  (245) 
48012

>  <i_f3d_flags>  (245) 
2

>  <s_epik_input>  (245) 
W09IXVtDSDJdW0NAQEhdMVtDSDJdU1tDQEBIXShbQ0BIXTJPW0NIM10pW0NASF0xW0NAQEhdKFtDQEhdM1tPSF0pW0NASF0oW0NAQEhdNDUpTihbQ0gyXTYpW0NASF0oW0NIMl03KVtDSDJdW0NASF04W0NAQEhdNVtDQEBIXTNbQ0BASF0yW0NASF04QzQ2Nw==

>  <s_epik_cmdline>  (245) 
J2VwaWtfcHl0aG9uJywgJy1waHQnLCAnMi4wJywgJy1waCcsICc3LjAnLCAnLXRuJywgJzgnLCAnLW1hJywgJzIwMCcsICctaW1hZScsICc8aW5maWxlLm1hZT4nLCAnLW9tYWUnLCAnPG91dGZpbGUubWFlPic=

>  <r_lp_tautomer_probability>  (245) 
1

>  <r_epik_Ionization_Penalty>  (245) 
0.000252597

>  <r_epik_Ionization_Penalty_Charging>  (245) 
0.000252405

>  <r_epik_Ionization_Penalty_Neutral>  (245) 
1.92013e-07

>  <r_epik_State_Penalty>  (245) 
-0

>  <r_epik_Charging_Adjusted_Penalty>  (245) 
0.000252405

>  <i_epik_Tot_Q>  (245) 
1

>  <i_epik_Tot_abs_Q>  (245) 
1

>  <s_lp_Force_Field>  (245) 
OPLS3e

>  <r_lp_Energy>  (245) 
367.259

>  <b_lp_Chiralities_Consistent>  (245) 
0

>  <s_lp_Variant>  (245) 
69:0-1

>  <s_i_glide_gridfile>  (245) 
pfpi4k_grid

>  <i_i_glide_lignum>  (245) 
29

>  <i_i_glide_rotatable_bonds>  (245) 
4

>  <r_i_docking_score>  (245) 
-2.87788

>  <r_i_glide_ligand_efficiency>  (245) 
-0.110688

>  <r_i_glide_ligand_efficiency_sa>  (245) 
-0.327912

>  <r_i_glide_ligand_efficiency_ln>  (245) 
-0.675861

>  <r_i_glide_gscore>  (245) 
-2.87788

>  <r_i_glide_lipo>  (245) 
-0.476294

>  <r_i_glide_hbond>  (245) 
-0.107145

>  <r_i_glide_metal>  (245) 
-0

>  <r_i_glide_rewards>  (245) 
-0.841815

>  <r_i_glide_evdw>  (245) 
-19.0291

>  <r_i_glide_ecoul>  (245) 
-4.2476

>  <r_i_glide_erotb>  (245) 
0.136543

>  <r_i_glide_esite>  (245) 
-0.000572411

>  <r_i_glide_emodel>  (245) 
-27.4447

>  <r_i_glide_energy>  (245) 
-23.2767

>  <r_i_glide_einternal>  (245) 
1.14963

>  <r_i_glide_intrahb_reward>  (245) 
-0

>  <i_i_glide_confnum>  (245) 
4

>  <i_i_glide_posenum>  (245) 
6

>  <r_i_glide_eff_state_penalty>  (245) 
0

>  <ligand_id>  (245) 
69

>  <original_smiles>  (245) 
COC1C2SCC(CO)C2C2C(O)C3C1C1C4CC5CC16CN5C2C6C43

>  <smiles>  (245) 
[H]OC([H])([H])C1([H])C([H])([H])SC2([H])C([H])(OC([H])([H])[H])C3([H])C4([H])C([H])(O[H])C([H])(C21[H])C1([H])C2([H])C4([H])C4([H])C([H])([H])C5([H])C([H])([H])C2(C43[H])C([H])([H])[N+]51[H]

$$$$
69:0:2
     RDKit          3D

 56 63  0  0  1  0  0  0  0  0999 V2000
    1.2876   -6.8014    1.3141 C   0  0  0  0  0  0  0  0  0  0  0  0
    1.6567   -5.4581    1.0552 O   0  0  0  0  0  0  0  0  0  0  0  0
    2.9245   -5.0671    1.5858 C   0  0  2  0  0  0  0  0  0  0  0  0
    2.6921   -3.7366    2.3509 C   0  0  1  0  0  0  0  0  0  0  0  0
    1.4594   -3.9044    3.6754 S   0  0  0  0  0  0  0  0  0  0  0  0
    2.1816   -2.6211    4.7404 C   0  0  0  0  0  0  0  0  0  0  0  0
    3.3613   -1.9594    3.9958 C   0  0  1  0  0  0  0  0  0  0  0  0
    4.3843   -1.3240    4.9668 C   0  0  0  0  0  0  0  0  0  0  0  0
    5.0115   -2.2967    5.7802 O   0  0  0  0  0  0  0  0  0  0  0  0
    3.9163   -3.0584    3.0438 C   0  0  2  0  0  0  0  0  0  0  0  0
    5.2818   -2.8314    2.2428 C   0  0  1  0  0  0  0  0  0  0  0  0
    5.9029   -4.2834    2.0137 C   0  0  1  0  0  0  0  0  0  0  0  0
    5.8552   -5.1996    3.0945 O   0  0  0  0  0  0  0  0  0  0  0  0
    5.4166   -4.9808    0.7036 C   0  0  1  0  0  0  0  0  0  0  0  0
    3.9049   -5.0375    0.3775 C   0  0  2  0  0  0  0  0  0  0  0  0
    3.6648   -4.0173   -0.7924 C   0  0  2  0  0  0  0  0  0  0  0  0
    5.0202   -3.9751   -1.6608 C   0  0  1  0  0  0  0  0  0  0  0  0
    5.3690   -2.5160   -2.4680 C   0  0  0  0  0  0  0  0  0  0  0  0
    4.7577   -1.1533   -1.6366 C   0  0  1  0  0  0  0  0  0  0  0  0
    3.4478   -1.7860   -1.7455 C   0  0  0  0  0  0  0  0  0  0  0  0
    3.8804   -2.5784   -0.4599 C   0  0  1  0  0  0  0  0  0  0  0  0
    3.4550   -1.4274    0.4169 C   0  0  0  0  0  0  0  0  0  0  0  0
    4.7637   -0.9364    0.0187 N   0  0  1  0  0  0  0  0  0  0  0  0
    5.6514   -1.8320    0.9714 C   0  0  2  0  0  0  0  0  0  0  0  0
    5.4905   -2.7824   -0.0450 C   0  0  1  0  0  0  0  0  0  0  0  0
    5.9451   -4.1250   -0.4227 C   0  0  1  0  0  0  0  0  0  0  0  0
    0.3095   -6.9958    0.8716 H   0  0  0  0  0  0  0  0  0  0  0  0
    1.2082   -6.9913    2.3869 H   0  0  0  0  0  0  0  0  0  0  0  0
    1.9975   -7.5082    0.8813 H   0  0  0  0  0  0  0  0  0  0  0  0
    3.2774   -5.8164    2.2977 H   0  0  0  0  0  0  0  0  0  0  0  0
    2.1797   -3.0681    1.6717 H   0  0  0  0  0  0  0  0  0  0  0  0
    1.4289   -1.8905    5.0373 H   0  0  0  0  0  0  0  0  0  0  0  0
    2.5202   -3.1201    5.6493 H   0  0  0  0  0  0  0  0  0  0  0  0
    2.9290   -1.1384    3.4277 H   0  0  0  0  0  0  0  0  0  0  0  0
    5.1503   -0.7765    4.4188 H   0  0  0  0  0  0  0  0  0  0  0  0
    3.8864   -0.5938    5.6068 H   0  0  0  0  0  0  0  0  0  0  0  0
    5.5823   -1.8679    6.4002 H   0  0  0  0  0  0  0  0  0  0  0  0
    4.1779   -3.7868    3.8046 H   0  0  0  0  0  0  0  0  0  0  0  0
    5.9216   -2.4200    3.0171 H   0  0  0  0  0  0  0  0  0  0  0  0
    6.9766   -4.1323    1.8961 H   0  0  0  0  0  0  0  0  0  0  0  0
    4.9624   -5.4817    3.2161 H   0  0  0  0  0  0  0  0  0  0  0  0
    5.8538   -5.9767    0.6265 H   0  0  0  0  0  0  0  0  0  0  0  0
    3.7834   -6.0071   -0.1012 H   0  0  0  0  0  0  0  0  0  0  0  0
    2.7557   -4.2131   -1.3661 H   0  0  0  0  0  0  0  0  0  0  0  0
    5.0972   -4.8405   -2.3196 H   0  0  0  0  0  0  0  0  0  0  0  0
    6.4463   -2.4364   -2.6342 H   0  0  0  0  0  0  0  0  0  0  0  0
    4.9780   -2.5683   -3.4924 H   0  0  0  0  0  0  0  0  0  0  0  0
    4.8200   -0.2315   -2.2109 H   0  0  0  0  0  0  0  0  0  0  0  0
    2.6482   -1.0482   -1.7470 H   0  0  0  0  0  0  0  0  0  0  0  0
    3.1565   -2.3740   -2.6221 H   0  0  0  0  0  0  0  0  0  0  0  0
    2.6151   -0.7777    0.1721 H   0  0  0  0  0  0  0  0  0  0  0  0
    3.4250   -1.4276    1.4727 H   0  0  0  0  0  0  0  0  0  0  0  0
    6.6601   -1.4175    1.0915 H   0  0  0  0  0  0  0  0  0  0  0  0
    6.4002   -2.3524   -0.5113 H   0  0  0  0  0  0  0  0  0  0  0  0
    7.0159   -4.2221   -0.6259 H   0  0  0  0  0  0  0  0  0  0  0  0
    4.8446    0.0415    0.2562 H   0  0  0  0  0  0  0  0  0  0  0  0
  1  2  1  0
  1 27  1  0
  1 28  1  0
  1 29  1  0
  2  3  1  0
  3 15  1  0
  3  4  1  0
  3 30  1  1
  4 10  1  0
  4  5  1  0
  4 31  1  6
  5  6  1  0
  6  7  1  0
  6 32  1  0
  6 33  1  0
  7  8  1  0
  7 10  1  0
  7 34  1  6
  8  9  1  0
  8 35  1  0
  8 36  1  0
  9 37  1  0
 10 11  1  0
 10 38  1  1
 11 24  1  0
 11 12  1  0
 11 39  1  1
 12 13  1  0
 12 14  1  0
 12 40  1  6
 13 41  1  0
 14 26  1  0
 14 15  1  0
 14 42  1  6
 15 16  1  0
 15 43  1  6
 16 21  1  0
 16 17  1  0
 16 44  1  6
 17 26  1  0
 17 18  1  0
 17 45  1  6
 18 19  1  0
 18 46  1  0
 18 47  1  0
 19 23  1  0
 19 20  1  0
 19 48  1  6
 21 20  1  6
 20 49  1  0
 20 50  1  0
 21 25  1  0
 21 22  1  0
 22 23  1  0
 22 51  1  0
 22 52  1  0
 23 24  1  0
 23 56  1  6
 24 25  1  0
 24 53  1  1
 25 26  1  0
 25 54  1  6
 26 55  1  6
M  CHG  1  23   1
M  END
>  <i_m_ct_stereo_status>  (246) 
1

>  <s_m_source_file>  (246) 
/var/tmp/pbs.5076255.sched01/tmp7qb2j_xu/82up84z1qn.sdf

>  <i_m_source_file_index>  (246) 
29

>  <i_lp_mmshare_version>  (246) 
48012

>  <i_f3d_flags>  (246) 
2

>  <s_epik_input>  (246) 
W09IXVtDSDJdW0NAQEhdMVtDSDJdU1tDQEBIXShbQ0BIXTJPW0NIM10pW0NASF0xW0NAQEhdKFtDQEhdM1tPSF0pW0NASF0oW0NAQEhdNDUpTihbQ0gyXTYpW0NASF0oW0NIMl03KVtDSDJdW0NASF04W0NAQEhdNVtDQEBIXTNbQ0BASF0yW0NASF04QzQ2Nw==

>  <s_epik_cmdline>  (246) 
J2VwaWtfcHl0aG9uJywgJy1waHQnLCAnMi4wJywgJy1waCcsICc3LjAnLCAnLXRuJywgJzgnLCAnLW1hJywgJzIwMCcsICctaW1hZScsICc8aW5maWxlLm1hZT4nLCAnLW9tYWUnLCAnPG91dGZpbGUubWFlPic=

>  <r_lp_tautomer_probability>  (246) 
1

>  <r_epik_Ionization_Penalty>  (246) 
0.000252597

>  <r_epik_Ionization_Penalty_Charging>  (246) 
0.000252405

>  <r_epik_Ionization_Penalty_Neutral>  (246) 
1.92013e-07

>  <r_epik_State_Penalty>  (246) 
-0

>  <r_epik_Charging_Adjusted_Penalty>  (246) 
0.000252405

>  <i_epik_Tot_Q>  (246) 
1

>  <i_epik_Tot_abs_Q>  (246) 
1

>  <s_lp_Force_Field>  (246) 
OPLS3e

>  <r_lp_Energy>  (246) 
367.259

>  <b_lp_Chiralities_Consistent>  (246) 
0

>  <s_lp_Variant>  (246) 
69:0-1

>  <s_i_glide_gridfile>  (246) 
pfpi4k_grid

>  <i_i_glide_lignum>  (246) 
29

>  <i_i_glide_rotatable_bonds>  (246) 
4

>  <r_i_docking_score>  (246) 
-2.79065

>  <r_i_glide_ligand_efficiency>  (246) 
-0.107333

>  <r_i_glide_ligand_efficiency_sa>  (246) 
-0.317973

>  <r_i_glide_ligand_efficiency_ln>  (246) 
-0.655375

>  <r_i_glide_gscore>  (246) 
-2.79065

>  <r_i_glide_lipo>  (246) 
-0.467659

>  <r_i_glide_hbond>  (246) 
-0.109113

>  <r_i_glide_metal>  (246) 
-0

>  <r_i_glide_rewards>  (246) 
-0.841815

>  <r_i_glide_evdw>  (246) 
-18.4257

>  <r_i_glide_ecoul>  (246) 
-3.91548

>  <r_i_glide_erotb>  (246) 
0.136543

>  <r_i_glide_esite>  (246) 
0

>  <r_i_glide_emodel>  (246) 
-25.7761

>  <r_i_glide_energy>  (246) 
-22.3412

>  <r_i_glide_einternal>  (246) 
2.26846

>  <r_i_glide_intrahb_reward>  (246) 
-0

>  <i_i_glide_confnum>  (246) 
4

>  <i_i_glide_posenum>  (246) 
1

>  <r_i_glide_eff_state_penalty>  (246) 
0

>  <ligand_id>  (246) 
69

>  <original_smiles>  (246) 
COC1C2SCC(CO)C2C2C(O)C3C1C1C4CC5CC16CN5C2C6C43

>  <smiles>  (246) 
[H]OC([H])([H])C1([H])C([H])([H])SC2([H])C([H])(OC([H])([H])[H])C3([H])C4([H])C([H])(O[H])C([H])(C21[H])C1([H])C2([H])C4([H])C4([H])C([H])([H])C5([H])C([H])([H])C2(C43[H])C([H])([H])[N+]51[H]

$$$$
70:0:0
     RDKit          3D

 75 82  0  0  1  0  0  0  0  0999 V2000
    4.4060   -2.5435    9.8269 C   0  0  0  0  0  0  0  0  0  0  0  0
    3.6173   -3.2040    8.6983 C   0  0  2  0  0  0  0  0  0  0  0  0
    4.4145   -4.2913    7.9647 C   0  0  0  0  0  0  0  0  0  0  0  0
    3.5545   -4.5164    6.7242 C   0  0  2  0  0  0  0  0  0  0  0  0
    2.5782   -5.4899    7.0673 O   0  0  0  0  0  0  0  0  0  0  0  0
    4.3395   -4.8907    5.6142 O   0  0  0  0  0  0  0  0  0  0  0  0
    3.9005   -4.1775    4.4450 C   0  0  1  0  0  0  0  0  0  0  0  0
    2.7483   -4.8894    3.7241 C   0  0  0  0  0  0  0  0  0  0  0  0
    2.2569   -6.0908    4.0850 C   0  0  0  0  0  0  0  0  0  0  0  0
    1.1292   -6.8061    3.5196 C   0  0  0  0  0  0  0  0  0  0  0  0
    0.7482   -6.6483    2.1714 C   0  0  0  0  0  0  0  0  0  0  0  0
   -0.3321   -7.3945    1.6543 C   0  0  0  0  0  0  0  0  0  0  0  0
   -1.0694   -8.2623    2.4920 C   0  0  0  0  0  0  0  0  0  0  0  0
   -0.7250   -8.3843    3.8553 C   0  0  0  0  0  0  0  0  0  0  0  0
    0.3682   -7.6508    4.3633 C   0  0  0  0  0  0  0  0  0  0  0  0
    3.5979   -2.7840    5.0411 C   0  0  1  0  0  0  0  0  0  0  0  0
    2.8165   -1.7349    4.1800 C   0  0  2  0  0  0  0  0  0  0  0  0
    3.2246   -0.2552    4.3323 C   0  0  0  0  0  0  0  0  0  0  0  0
    4.1370    0.2948    5.1445 C   0  0  0  0  0  0  0  0  0  0  0  0
    4.0730    1.7293    5.0469 C   0  0  0  0  0  0  0  0  0  0  0  0
    3.1103    2.0521    4.1626 C   0  0  0  0  0  0  0  0  0  0  0  0
    2.8011    3.4146    3.8898 N   0  0  0  0  0  0  0  0  0  0  0  0
    3.3087    4.5579    4.4675 C   0  0  0  0  0  0  0  0  0  0  0  0
    2.7002    5.6025    3.8454 C   0  0  0  0  0  0  0  0  0  0  0  0
    1.8414    5.0607    2.9161 N   0  0  0  0  0  0  0  0  0  0  0  0
    1.9097    3.7358    2.9465 C   0  0  0  0  0  0  0  0  0  0  0  0
    2.4533    0.8007    3.5415 C   0  0  1  0  0  0  0  0  0  0  0  0
    2.7926    0.6832    2.0491 C   0  0  0  0  0  0  0  0  0  0  0  0
    0.9665    0.6718    3.8839 C   0  0  0  0  0  0  0  0  0  0  0  0
    0.4511   -0.7596    3.6518 C   0  0  0  0  0  0  0  0  0  0  0  0
    1.2803   -1.8854    4.3362 C   0  0  2  0  0  0  0  0  0  0  0  0
    0.9135   -2.1055    5.8412 C   0  0  2  0  0  0  0  0  0  0  0  0
   -0.5899   -2.2998    6.1001 C   0  0  0  0  0  0  0  0  0  0  0  0
    1.3592   -1.0146    6.5971 O   0  0  0  0  0  0  0  0  0  0  0  0
    1.9846   -1.3537    7.8344 C   0  0  0  0  0  0  0  0  0  0  0  0
    3.2105   -2.2486    7.5626 C   0  0  2  0  0  0  0  0  0  0  0  0
    2.9119   -3.1593    6.3637 C   0  0  2  0  0  0  0  0  0  0  0  0
    1.5175   -3.3035    6.1938 O   0  0  0  0  0  0  0  0  0  0  0  0
    5.3249   -2.0990    9.4466 H   0  0  0  0  0  0  0  0  0  0  0  0
    4.6738   -3.2764   10.5885 H   0  0  0  0  0  0  0  0  0  0  0  0
    3.8140   -1.7611   10.3014 H   0  0  0  0  0  0  0  0  0  0  0  0
    2.7157   -3.6587    9.1104 H   0  0  0  0  0  0  0  0  0  0  0  0
    5.4142   -3.9663    7.6895 H   0  0  0  0  0  0  0  0  0  0  0  0
    4.4935   -5.2165    8.5456 H   0  0  0  0  0  0  0  0  0  0  0  0
    3.0401   -6.3054    7.1842 H   0  0  0  0  0  0  0  0  0  0  0  0
    4.7153   -4.1004    3.7232 H   0  0  0  0  0  0  0  0  0  0  0  0
    2.3298   -4.3544    2.8848 H   0  0  0  0  0  0  0  0  0  0  0  0
    2.7428   -6.6435    4.8662 H   0  0  0  0  0  0  0  0  0  0  0  0
    1.3321   -6.0123    1.5315 H   0  0  0  0  0  0  0  0  0  0  0  0
   -0.5815   -7.3273    0.6071 H   0  0  0  0  0  0  0  0  0  0  0  0
   -1.8770   -8.8473    2.0901 H   0  0  0  0  0  0  0  0  0  0  0  0
   -1.2787   -9.0518    4.4985 H   0  0  0  0  0  0  0  0  0  0  0  0
    0.6341   -7.7617    5.3989 H   0  0  0  0  0  0  0  0  0  0  0  0
    4.5874   -2.3789    5.2562 H   0  0  0  0  0  0  0  0  0  0  0  0
    3.0570   -1.9484    3.1373 H   0  0  0  0  0  0  0  0  0  0  0  0
    4.7949   -0.2217    5.8221 H   0  0  0  0  0  0  0  0  0  0  0  0
    4.6811    2.4225    5.6164 H   0  0  0  0  0  0  0  0  0  0  0  0
    4.0538    4.5419    5.2598 H   0  0  0  0  0  0  0  0  0  0  0  0
    2.8051    6.6728    3.9879 H   0  0  0  0  0  0  0  0  0  0  0  0
    1.3254    3.1089    2.2959 H   0  0  0  0  0  0  0  0  0  0  0  0
    3.8650    0.7809    1.8979 H   0  0  0  0  0  0  0  0  0  0  0  0
    2.3110    1.4423    1.4413 H   0  0  0  0  0  0  0  0  0  0  0  0
    2.5019   -0.2810    1.6380 H   0  0  0  0  0  0  0  0  0  0  0  0
    0.8055    0.9205    4.9330 H   0  0  0  0  0  0  0  0  0  0  0  0
    0.3663    1.3695    3.3060 H   0  0  0  0  0  0  0  0  0  0  0  0
   -0.6089   -0.8342    3.8809 H   0  0  0  0  0  0  0  0  0  0  0  0
    0.5114   -0.9471    2.5757 H   0  0  0  0  0  0  0  0  0  0  0  0
    0.9749   -2.8066    3.8447 H   0  0  0  0  0  0  0  0  0  0  0  0
   -0.7352   -2.6308    7.1276 H   0  0  0  0  0  0  0  0  0  0  0  0
   -0.9819   -3.0666    5.4355 H   0  0  0  0  0  0  0  0  0  0  0  0
   -1.1374   -1.3719    5.9519 H   0  0  0  0  0  0  0  0  0  0  0  0
    2.3032   -0.4425    8.3412 H   0  0  0  0  0  0  0  0  0  0  0  0
    1.2687   -1.8547    8.4861 H   0  0  0  0  0  0  0  0  0  0  0  0
    4.0721   -1.6328    7.3275 H   0  0  0  0  0  0  0  0  0  0  0  0
    1.2399    5.5756    2.2832 H   0  0  0  0  0  0  0  0  0  0  0  0
  1  2  1  0
  1 39  1  0
  1 40  1  0
  1 41  1  0
  2 36  1  0
  2  3  1  0
  2 42  1  1
  3  4  1  0
  3 43  1  0
  3 44  1  0
  4 37  1  0
  4  5  1  1
  4  6  1  0
  5 45  1  0
  6  7  1  0
  7  8  1  0
  7 16  1  0
  7 46  1  6
  8  9  2  3
  8 47  1  0
  9 10  1  0
  9 48  1  0
 10 15  1  0
 10 11  2  0
 11 12  1  0
 11 49  1  0
 12 13  2  0
 12 50  1  0
 13 14  1  0
 13 51  1  0
 14 15  2  0
 14 52  1  0
 15 53  1  0
 16 37  1  0
 16 17  1  0
 16 54  1  1
 17 31  1  0
 17 18  1  0
 17 55  1  6
 18 27  1  0
 18 19  2  0
 19 20  1  0
 19 56  1  0
 20 21  2  0
 20 57  1  0
 21 22  1  0
 21 27  1  0
 22 26  1  0
 22 23  1  0
 23 24  2  0
 23 58  1  0
 24 25  1  0
 24 59  1  0
 25 26  2  0
 25 75  1  0
 26 60  1  0
 27 28  1  6
 27 29  1  0
 28 61  1  0
 28 62  1  0
 28 63  1  0
 29 30  1  0
 29 64  1  0
 29 65  1  0
 30 31  1  0
 30 66  1  0
 30 67  1  0
 31 32  1  0
 31 68  1  6
 32 38  1  0
 32 33  1  6
 32 34  1  0
 33 69  1  0
 33 70  1  0
 33 71  1  0
 34 35  1  0
 35 36  1  0
 35 72  1  0
 35 73  1  0
 36 37  1  0
 36 74  1  6
 37 38  1  6
M  CHG  1  25   1
M  END
>  <i_m_ct_stereo_status>  (247) 
1

>  <s_m_source_file>  (247) 
/var/tmp/pbs.5076255.sched01/tmp7qb2j_xu/82up84z1qn.sdf

>  <i_m_source_file_index>  (247) 
30

>  <i_lp_mmshare_version>  (247) 
48012

>  <i_f3d_flags>  (247) 
0

>  <s_epik_input>  (247) 
W09IXVtDQEBdMShbQ0BdMjM0KVtDSDJdW0NAQEhdKFtDSDNdKVtDQEBIXTNbQ0gyXU9bQ0BAXShPNCkoW0NIM10pW0NAQEhdNVtDQEBIXShDPTZbQ0BAXShbQ0gzXSkoW0NIMl1bQ0gyXTUpQyg9W0NIXVtDSF02KW43W2NIXVtjSF1uW2NIXTcpW0NAQEhdMltDQEBIXShPMSkvW0NIXT1bQ0hdL2M4W2NIXVtjSF1bY0hdW2NIXVtjSF04

>  <s_epik_cmdline>  (247) 
J2VwaWtfcHl0aG9uJywgJy1waHQnLCAnMi4wJywgJy1waCcsICc3LjAnLCAnLXRuJywgJzgnLCAnLW1hJywgJzIwMCcsICctaW1hZScsICc8aW5maWxlLm1hZT4nLCAnLW9tYWUnLCAnPG91dGZpbGUubWFlPic=

>  <r_epik_Ionization_Penalty>  (247) 
0.239777

>  <r_epik_Ionization_Penalty_Charging>  (247) 
0

>  <r_epik_Ionization_Penalty_Neutral>  (247) 
0.239777

>  <r_epik_State_Penalty>  (247) 
0.23072

>  <r_epik_Charging_Adjusted_Penalty>  (247) 
0.23072

>  <i_epik_Tot_Q>  (247) 
1

>  <i_epik_Tot_abs_Q>  (247) 
1

>  <s_lp_Force_Field>  (247) 
OPLS3e

>  <r_lp_Energy>  (247) 
56.2959

>  <b_lp_Chiralities_Consistent>  (247) 
1

>  <s_lp_Variant>  (247) 
70:0-1

>  <s_i_glide_gridfile>  (247) 
pfpi4k_grid

>  <i_i_glide_lignum>  (247) 
30

>  <i_i_glide_rotatable_bonds>  (247) 
4

>  <r_i_docking_score>  (247) 
-1.97654

>  <r_i_glide_ligand_efficiency>  (247) 
-0.0520142

>  <r_i_glide_ligand_efficiency_sa>  (247) 
-0.17487

>  <r_i_glide_ligand_efficiency_ln>  (247) 
-0.4262

>  <r_i_glide_gscore>  (247) 
-1.97654

>  <r_i_glide_lipo>  (247) 
-0.0645828

>  <r_i_glide_hbond>  (247) 
-0.0329848

>  <r_i_glide_metal>  (247) 
-0

>  <r_i_glide_rewards>  (247) 
0

>  <r_i_glide_evdw>  (247) 
-26.6103

>  <r_i_glide_ecoul>  (247) 
-3.98504

>  <r_i_glide_erotb>  (247) 
0.233187

>  <r_i_glide_esite>  (247) 
-0.183886

>  <r_i_glide_emodel>  (247) 
-33.2511

>  <r_i_glide_energy>  (247) 
-30.5954

>  <r_i_glide_einternal>  (247) 
3.39201

>  <r_i_glide_intrahb_reward>  (247) 
-0

>  <i_i_glide_confnum>  (247) 
5

>  <i_i_glide_posenum>  (247) 
26

>  <r_i_glide_eff_state_penalty>  (247) 
0

>  <ligand_id>  (247) 
70

>  <original_smiles>  (247) 
CC1CC2(O)OC(C=Cc3ccccc3)C3C4C5=CC=C(n6ccnc6)C5(C)CCC4C4(C)OCC1C32O4

>  <smiles>  (247) 
[H]OC12OC([H])(C([H])=C([H])c3c([H])c([H])c([H])c([H])c3[H])C3([H])C4([H])C5=C([H])C([H])=C(n6c([H])c([H])[n+]([H])c6[H])C5(C([H])([H])[H])C([H])([H])C([H])([H])C4([H])C4(C([H])([H])[H])OC([H])([H])C([H])(C([H])(C([H])([H])[H])C1([H])[H])C23O4

$$$$
70:0:1
     RDKit          3D

 75 82  0  0  1  0  0  0  0  0999 V2000
    6.7205   -2.9336    7.4684 C   0  0  0  0  0  0  0  0  0  0  0  0
    5.4463   -3.5905    6.9200 C   0  0  2  0  0  0  0  0  0  0  0  0
    5.7098   -4.6275    5.8196 C   0  0  0  0  0  0  0  0  0  0  0  0
    4.3312   -4.8208    5.1789 C   0  0  2  0  0  0  0  0  0  0  0  0
    3.6506   -5.8911    5.8341 O   0  0  0  0  0  0  0  0  0  0  0  0
    4.4351   -5.0480    3.7966 O   0  0  0  0  0  0  0  0  0  0  0  0
    3.3908   -4.3338    3.1264 C   0  0  1  0  0  0  0  0  0  0  0  0
    2.0676   -5.1086    3.1065 C   0  0  0  0  0  0  0  0  0  0  0  0
    1.9606   -6.4477    3.0535 C   0  0  0  0  0  0  0  0  0  0  0  0
    0.7021   -7.1952    3.1028 C   0  0  0  0  0  0  0  0  0  0  0  0
   -0.4913   -6.6738    3.6693 C   0  0  0  0  0  0  0  0  0  0  0  0
   -1.6826   -7.4407    3.6634 C   0  0  0  0  0  0  0  0  0  0  0  0
   -1.6921   -8.7272    3.0854 C   0  0  0  0  0  0  0  0  0  0  0  0
   -0.5142   -9.2467    2.5169 C   0  0  0  0  0  0  0  0  0  0  0  0
    0.6701   -8.4798    2.5191 C   0  0  0  0  0  0  0  0  0  0  0  0
    3.4311   -2.9988    3.8970 C   0  0  1  0  0  0  0  0  0  0  0  0
    2.2942   -1.9531    3.6771 C   0  0  2  0  0  0  0  0  0  0  0  0
    2.7137   -0.4634    3.6694 C   0  0  0  0  0  0  0  0  0  0  0  0
    3.9152    0.0941    3.8817 C   0  0  0  0  0  0  0  0  0  0  0  0
    3.7794    1.5370    3.9321 C   0  0  0  0  0  0  0  0  0  0  0  0
    2.4970    1.8365    3.7342 C   0  0  0  0  0  0  0  0  0  0  0  0
    1.9306    3.1653    3.7311 N   0  0  0  0  0  0  0  0  0  0  0  0
    0.6180    3.5247    3.6712 C   0  0  0  0  0  0  0  0  0  0  0  0
    0.5952    4.8938    3.6894 C   0  0  0  0  0  0  0  0  0  0  0  0
    1.8973    5.2968    3.7326 N   0  0  0  0  0  0  0  0  0  0  0  0
    2.7162    4.2472    3.7577 C   0  0  0  0  0  0  0  0  0  0  0  0
    1.6222    0.5872    3.5054 C   0  0  1  0  0  0  0  0  0  0  0  0
    1.0842    0.5680    2.0633 C   0  0  0  0  0  0  0  0  0  0  0  0
    0.5584    0.3618    4.5993 C   0  0  0  0  0  0  0  0  0  0  0  0
    0.0141   -1.0688    4.5985 C   0  0  0  0  0  0  0  0  0  0  0  0
    1.0942   -2.1707    4.6473 C   0  0  2  0  0  0  0  0  0  0  0  0
    1.6176   -2.4768    6.0851 C   0  0  2  0  0  0  0  0  0  0  0  0
    0.5043   -2.7549    7.1081 C   0  0  0  0  0  0  0  0  0  0  0  0
    2.3948   -1.4030    6.5360 O   0  0  0  0  0  0  0  0  0  0  0  0
    3.5990   -1.7744    7.2020 C   0  0  0  0  0  0  0  0  0  0  0  0
    4.4775   -2.6080    6.2436 C   0  0  2  0  0  0  0  0  0  0  0  0
    3.5824   -3.4788    5.3449 C   0  0  2  0  0  0  0  0  0  0  0  0
    2.3273   -3.6667    5.9620 O   0  0  0  0  0  0  0  0  0  0  0  0
    7.2789   -2.4252    6.6835 H   0  0  0  0  0  0  0  0  0  0  0  0
    7.3799   -3.6742    7.9212 H   0  0  0  0  0  0  0  0  0  0  0  0
    6.4775   -2.1972    8.2352 H   0  0  0  0  0  0  0  0  0  0  0  0
    4.9277   -4.0916    7.7344 H   0  0  0  0  0  0  0  0  0  0  0  0
    6.3973   -4.2377    5.0779 H   0  0  0  0  0  0  0  0  0  0  0  0
    6.1107   -5.5687    6.2034 H   0  0  0  0  0  0  0  0  0  0  0  0
    4.1923   -6.6527    5.7749 H   0  0  0  0  0  0  0  0  0  0  0  0
    3.6715   -4.1759    2.0872 H   0  0  0  0  0  0  0  0  0  0  0  0
    1.1694   -4.5285    3.1089 H   0  0  0  0  0  0  0  0  0  0  0  0
    2.8680   -7.0361    2.9908 H   0  0  0  0  0  0  0  0  0  0  0  0
   -0.5031   -5.7053    4.1343 H   0  0  0  0  0  0  0  0  0  0  0  0
   -2.5813   -7.0541    4.1076 H   0  0  0  0  0  0  0  0  0  0  0  0
   -2.5719   -9.3423    3.0952 H   0  0  0  0  0  0  0  0  0  0  0  0
   -0.5177  -10.2310    2.0827 H   0  0  0  0  0  0  0  0  0  0  0  0
    1.5564   -8.8904    2.0774 H   0  0  0  0  0  0  0  0  0  0  0  0
    4.3750   -2.5573    3.5746 H   0  0  0  0  0  0  0  0  0  0  0  0
    1.9264   -2.1094    2.6612 H   0  0  0  0  0  0  0  0  0  0  0  0
    4.8395   -0.4216    4.0582 H   0  0  0  0  0  0  0  0  0  0  0  0
    4.5919    2.2258    4.1353 H   0  0  0  0  0  0  0  0  0  0  0  0
   -0.2194    2.8433    3.5637 H   0  0  0  0  0  0  0  0  0  0  0  0
   -0.2418    5.5702    3.6233 H   0  0  0  0  0  0  0  0  0  0  0  0
    3.8002    4.3045    3.7632 H   0  0  0  0  0  0  0  0  0  0  0  0
    1.8934    0.7139    1.3447 H   0  0  0  0  0  0  0  0  0  0  0  0
    0.3411    1.3432    1.8779 H   0  0  0  0  0  0  0  0  0  0  0  0
    0.6279   -0.3918    1.8154 H   0  0  0  0  0  0  0  0  0  0  0  0
    0.9967    0.5618    5.5781 H   0  0  0  0  0  0  0  0  0  0  0  0
   -0.3072    1.0046    4.4949 H   0  0  0  0  0  0  0  0  0  0  0  0
   -0.7479   -1.2012    5.3586 H   0  0  0  0  0  0  0  0  0  0  0  0
   -0.5200   -1.2055    3.6598 H   0  0  0  0  0  0  0  0  0  0  0  0
    0.5314   -3.0553    4.3859 H   0  0  0  0  0  0  0  0  0  0  0  0
    0.9474   -3.1320    8.0313 H   0  0  0  0  0  0  0  0  0  0  0  0
   -0.1727   -3.5160    6.7236 H   0  0  0  0  0  0  0  0  0  0  0  0
   -0.0516   -1.8490    7.3380 H   0  0  0  0  0  0  0  0  0  0  0  0
    4.1268   -0.8695    7.5060 H   0  0  0  0  0  0  0  0  0  0  0  0
    3.3580   -2.3309    8.1072 H   0  0  0  0  0  0  0  0  0  0  0  0
    5.0654   -1.9404    5.6239 H   0  0  0  0  0  0  0  0  0  0  0  0
    2.1730    6.2868    3.7053 H   0  0  0  0  0  0  0  0  0  0  0  0
  1  2  1  0
  1 39  1  0
  1 40  1  0
  1 41  1  0
  2 36  1  0
  2  3  1  0
  2 42  1  1
  3  4  1  0
  3 43  1  0
  3 44  1  0
  4 37  1  0
  4  5  1  1
  4  6  1  0
  5 45  1  0
  6  7  1  0
  7  8  1  0
  7 16  1  0
  7 46  1  6
  8  9  2  3
  8 47  1  0
  9 10  1  0
  9 48  1  0
 10 15  1  0
 10 11  2  0
 11 12  1  0
 11 49  1  0
 12 13  2  0
 12 50  1  0
 13 14  1  0
 13 51  1  0
 14 15  2  0
 14 52  1  0
 15 53  1  0
 16 37  1  0
 16 17  1  0
 16 54  1  6
 17 31  1  0
 17 18  1  0
 17 55  1  6
 18 27  1  0
 18 19  2  0
 19 20  1  0
 19 56  1  0
 20 21  2  0
 20 57  1  0
 21 22  1  0
 21 27  1  0
 22 26  1  0
 22 23  1  0
 23 24  2  0
 23 58  1  0
 24 25  1  0
 24 59  1  0
 25 26  2  0
 25 75  1  0
 26 60  1  0
 27 28  1  6
 27 29  1  0
 28 61  1  0
 28 62  1  0
 28 63  1  0
 29 30  1  0
 29 64  1  0
 29 65  1  0
 30 31  1  0
 30 66  1  0
 30 67  1  0
 31 32  1  0
 31 68  1  6
 32 38  1  0
 32 33  1  1
 32 34  1  0
 33 69  1  0
 33 70  1  0
 33 71  1  0
 34 35  1  0
 35 36  1  0
 35 72  1  0
 35 73  1  0
 36 37  1  0
 36 74  1  6
 37 38  1  1
M  CHG  1  25   1
M  END
>  <i_m_ct_stereo_status>  (248) 
1

>  <s_m_source_file>  (248) 
/var/tmp/pbs.5076255.sched01/tmp7qb2j_xu/82up84z1qn.sdf

>  <i_m_source_file_index>  (248) 
30

>  <i_lp_mmshare_version>  (248) 
48012

>  <i_f3d_flags>  (248) 
0

>  <s_epik_input>  (248) 
W09IXVtDQEBdMShbQ0BdMjM0KVtDSDJdW0NAQEhdKFtDSDNdKVtDQEBIXTNbQ0gyXU9bQ0BAXShPNCkoW0NIM10pW0NAQEhdNVtDQEBIXShDPTZbQ0BAXShbQ0gzXSkoW0NIMl1bQ0gyXTUpQyg9W0NIXVtDSF02KW43W2NIXVtjSF1uW2NIXTcpW0NAQEhdMltDQEBIXShPMSkvW0NIXT1bQ0hdL2M4W2NIXVtjSF1bY0hdW2NIXVtjSF04

>  <s_epik_cmdline>  (248) 
J2VwaWtfcHl0aG9uJywgJy1waHQnLCAnMi4wJywgJy1waCcsICc3LjAnLCAnLXRuJywgJzgnLCAnLW1hJywgJzIwMCcsICctaW1hZScsICc8aW5maWxlLm1hZT4nLCAnLW9tYWUnLCAnPG91dGZpbGUubWFlPic=

>  <r_epik_Ionization_Penalty>  (248) 
0.239777

>  <r_epik_Ionization_Penalty_Charging>  (248) 
0

>  <r_epik_Ionization_Penalty_Neutral>  (248) 
0.239777

>  <r_epik_State_Penalty>  (248) 
0.23072

>  <r_epik_Charging_Adjusted_Penalty>  (248) 
0.23072

>  <i_epik_Tot_Q>  (248) 
1

>  <i_epik_Tot_abs_Q>  (248) 
1

>  <s_lp_Force_Field>  (248) 
OPLS3e

>  <r_lp_Energy>  (248) 
56.2959

>  <b_lp_Chiralities_Consistent>  (248) 
1

>  <s_lp_Variant>  (248) 
70:0-1

>  <s_i_glide_gridfile>  (248) 
pfpi4k_grid

>  <i_i_glide_lignum>  (248) 
30

>  <i_i_glide_rotatable_bonds>  (248) 
4

>  <r_i_docking_score>  (248) 
-1.71029

>  <r_i_glide_ligand_efficiency>  (248) 
-0.0450076

>  <r_i_glide_ligand_efficiency_sa>  (248) 
-0.151314

>  <r_i_glide_ligand_efficiency_ln>  (248) 
-0.368789

>  <r_i_glide_gscore>  (248) 
-1.71029

>  <r_i_glide_lipo>  (248) 
-0.0880754

>  <r_i_glide_hbond>  (248) 
0

>  <r_i_glide_metal>  (248) 
-0

>  <r_i_glide_rewards>  (248) 
-2.72576e-05

>  <r_i_glide_evdw>  (248) 
-28.0823

>  <r_i_glide_ecoul>  (248) 
-2.47158

>  <r_i_glide_erotb>  (248) 
0.233187

>  <r_i_glide_esite>  (248) 
-0.0805194

>  <r_i_glide_emodel>  (248) 
-32.3938

>  <r_i_glide_energy>  (248) 
-30.5539

>  <r_i_glide_einternal>  (248) 
3.35249

>  <r_i_glide_intrahb_reward>  (248) 
-0

>  <i_i_glide_confnum>  (248) 
5

>  <i_i_glide_posenum>  (248) 
9

>  <r_i_glide_eff_state_penalty>  (248) 
0

>  <ligand_id>  (248) 
70

>  <original_smiles>  (248) 
CC1CC2(O)OC(C=Cc3ccccc3)C3C4C5=CC=C(n6ccnc6)C5(C)CCC4C4(C)OCC1C32O4

>  <smiles>  (248) 
[H]OC12OC([H])(C([H])=C([H])c3c([H])c([H])c([H])c([H])c3[H])C3([H])C4([H])C5=C([H])C([H])=C(n6c([H])c([H])[n+]([H])c6[H])C5(C([H])([H])[H])C([H])([H])C([H])([H])C4([H])C4(C([H])([H])[H])OC([H])([H])C([H])(C([H])(C([H])([H])[H])C1([H])[H])C23O4

$$$$
70:0:2
     RDKit          3D

 75 82  0  0  1  0  0  0  0  0999 V2000
    6.9094   -3.9241    7.7975 C   0  0  0  0  0  0  0  0  0  0  0  0
    5.7180   -4.5434    7.0564 C   0  0  2  0  0  0  0  0  0  0  0  0
    6.1266   -5.5359    5.9574 C   0  0  0  0  0  0  0  0  0  0  0  0
    4.8412   -5.6869    5.1412 C   0  0  2  0  0  0  0  0  0  0  0  0
    4.0674   -6.7612    5.6760 O   0  0  0  0  0  0  0  0  0  0  0  0
    5.1257   -5.8705    3.7790 O   0  0  0  0  0  0  0  0  0  0  0  0
    4.1889   -5.1162    3.0025 C   0  0  1  0  0  0  0  0  0  0  0  0
    2.8689   -5.8616    2.7896 C   0  0  0  0  0  0  0  0  0  0  0  0
    2.6762   -7.1787    2.9964 C   0  0  0  0  0  0  0  0  0  0  0  0
    1.4214   -7.9189    2.8595 C   0  0  0  0  0  0  0  0  0  0  0  0
    0.1808   -7.2898    2.5814 C   0  0  0  0  0  0  0  0  0  0  0  0
   -0.9995   -8.0554    2.4546 C   0  0  0  0  0  0  0  0  0  0  0  0
   -0.9486   -9.4559    2.5991 C   0  0  0  0  0  0  0  0  0  0  0  0
    0.2785  -10.0915    2.8872 C   0  0  0  0  0  0  0  0  0  0  0  0
    1.4536   -9.3241    3.0149 C   0  0  0  0  0  0  0  0  0  0  0  0
    4.1347   -3.8092    3.8166 C   0  0  1  0  0  0  0  0  0  0  0  0
    3.0433   -2.7447    3.4872 C   0  0  2  0  0  0  0  0  0  0  0  0
    3.4617   -1.2620    3.6070 C   0  0  0  0  0  0  0  0  0  0  0  0
    4.6236   -0.7307    4.0082 C   0  0  0  0  0  0  0  0  0  0  0  0
    4.4919    0.7081    4.0923 C   0  0  0  0  0  0  0  0  0  0  0  0
    3.2487    1.0343    3.7315 C   0  0  0  0  0  0  0  0  0  0  0  0
    2.6935    2.3698    3.6882 N   0  0  0  0  0  0  0  0  0  0  0  0
    1.5198    2.7859    3.1321 C   0  0  0  0  0  0  0  0  0  0  0  0
    1.4758    4.1438    3.2972 C   0  0  0  0  0  0  0  0  0  0  0  0
    2.6009    4.4808    3.9913 N   0  0  0  0  0  0  0  0  0  0  0  0
    3.3441    3.4026    4.2343 C   0  0  0  0  0  0  0  0  0  0  0  0
    2.4171   -0.1937    3.3122 C   0  0  1  0  0  0  0  0  0  0  0  0
    2.1013   -0.1928    1.7990 C   0  0  0  0  0  0  0  0  0  0  0  0
    1.2078   -0.4363    4.2310 C   0  0  0  0  0  0  0  0  0  0  0  0
    0.6563   -1.8727    4.1075 C   0  0  0  0  0  0  0  0  0  0  0  0
    1.7205   -2.9954    4.2652 C   0  0  2  0  0  0  0  0  0  0  0  0
    2.0385   -3.3664    5.7508 C   0  0  2  0  0  0  0  0  0  0  0  0
    0.7975   -3.6681    6.6075 C   0  0  0  0  0  0  0  0  0  0  0  0
    2.7530   -2.3183    6.3428 O   0  0  0  0  0  0  0  0  0  0  0  0
    3.8535   -2.7225    7.1565 C   0  0  0  0  0  0  0  0  0  0  0  0
    4.8532   -3.5241    6.2987 C   0  0  2  0  0  0  0  0  0  0  0  0
    4.0864   -4.3483    5.2531 C   0  0  2  0  0  0  0  0  0  0  0  0
    2.7559   -4.5582    5.6794 O   0  0  0  0  0  0  0  0  0  0  0  0
    7.5695   -3.3935    7.1130 H   0  0  0  0  0  0  0  0  0  0  0  0
    7.4955   -4.6921    8.3020 H   0  0  0  0  0  0  0  0  0  0  0  0
    6.5686   -3.2163    8.5537 H   0  0  0  0  0  0  0  0  0  0  0  0
    5.0917   -5.0741    7.7708 H   0  0  0  0  0  0  0  0  0  0  0  0
    6.9148   -5.1262    5.3289 H   0  0  0  0  0  0  0  0  0  0  0  0
    6.4560   -6.4988    6.3512 H   0  0  0  0  0  0  0  0  0  0  0  0
    3.2410   -6.7431    5.2356 H   0  0  0  0  0  0  0  0  0  0  0  0
    4.5976   -4.9307    2.0105 H   0  0  0  0  0  0  0  0  0  0  0  0
    2.0635   -5.2482    2.4311 H   0  0  0  0  0  0  0  0  0  0  0  0
    3.5306   -7.7676    3.3062 H   0  0  0  0  0  0  0  0  0  0  0  0
    0.1281   -6.2282    2.4706 H   0  0  0  0  0  0  0  0  0  0  0  0
   -1.9402   -7.5878    2.2338 H   0  0  0  0  0  0  0  0  0  0  0  0
   -1.8355  -10.0448    2.4898 H   0  0  0  0  0  0  0  0  0  0  0  0
    0.3220  -11.1600    2.9977 H   0  0  0  0  0  0  0  0  0  0  0  0
    2.3797   -9.8219    3.2320 H   0  0  0  0  0  0  0  0  0  0  0  0
    5.1152   -3.3682    3.6381 H   0  0  0  0  0  0  0  0  0  0  0  0
    2.8181   -2.8589    2.4251 H   0  0  0  0  0  0  0  0  0  0  0  0
    5.5132   -1.2662    4.2729 H   0  0  0  0  0  0  0  0  0  0  0  0
    5.2991    1.3481    4.4199 H   0  0  0  0  0  0  0  0  0  0  0  0
    0.7809    2.1681    2.6256 H   0  0  0  0  0  0  0  0  0  0  0  0
    0.7217    4.8475    2.9630 H   0  0  0  0  0  0  0  0  0  0  0  0
    4.2891    3.4041    4.7691 H   0  0  0  0  0  0  0  0  0  0  0  0
    3.0081   -0.0205    1.2193 H   0  0  0  0  0  0  0  0  0  0  0  0
    1.3624    0.5340    1.4738 H   0  0  0  0  0  0  0  0  0  0  0  0
    1.7063   -1.1616    1.4866 H   0  0  0  0  0  0  0  0  0  0  0  0
    1.4987   -0.2831    5.2722 H   0  0  0  0  0  0  0  0  0  0  0  0
    0.4148    0.2810    4.0290 H   0  0  0  0  0  0  0  0  0  0  0  0
   -0.1984   -2.0261    4.7590 H   0  0  0  0  0  0  0  0  0  0  0  0
    0.2512   -1.9734    3.0986 H   0  0  0  0  0  0  0  0  0  0  0  0
    1.2368   -3.8834    3.8734 H   0  0  0  0  0  0  0  0  0  0  0  0
    1.1102   -4.0806    7.5686 H   0  0  0  0  0  0  0  0  0  0  0  0
    0.1667   -4.4039    6.1122 H   0  0  0  0  0  0  0  0  0  0  0  0
    0.2232   -2.7635    6.7990 H   0  0  0  0  0  0  0  0  0  0  0  0
    4.3396   -1.8366    7.5647 H   0  0  0  0  0  0  0  0  0  0  0  0
    3.4918   -3.3098    7.9994 H   0  0  0  0  0  0  0  0  0  0  0  0
    5.5224   -2.8406    5.7889 H   0  0  0  0  0  0  0  0  0  0  0  0
    2.8137    5.4425    4.2887 H   0  0  0  0  0  0  0  0  0  0  0  0
  1  2  1  0
  1 39  1  0
  1 40  1  0
  1 41  1  0
  2 36  1  0
  2  3  1  0
  2 42  1  1
  3  4  1  0
  3 43  1  0
  3 44  1  0
  4 37  1  0
  4  5  1  1
  4  6  1  0
  5 45  1  0
  6  7  1  0
  7  8  1  0
  7 16  1  0
  7 46  1  6
  8  9  2  3
  8 47  1  0
  9 10  1  0
  9 48  1  0
 10 15  1  0
 10 11  2  0
 11 12  1  0
 11 49  1  0
 12 13  2  0
 12 50  1  0
 13 14  1  0
 13 51  1  0
 14 15  2  0
 14 52  1  0
 15 53  1  0
 16 37  1  0
 16 17  1  0
 16 54  1  1
 17 31  1  0
 17 18  1  0
 17 55  1  6
 18 27  1  0
 18 19  2  0
 19 20  1  0
 19 56  1  0
 20 21  2  0
 20 57  1  0
 21 22  1  0
 21 27  1  0
 22 26  1  0
 22 23  1  0
 23 24  2  0
 23 58  1  0
 24 25  1  0
 24 59  1  0
 25 26  2  0
 25 75  1  0
 26 60  1  0
 27 28  1  6
 27 29  1  0
 28 61  1  0
 28 62  1  0
 28 63  1  0
 29 30  1  0
 29 64  1  0
 29 65  1  0
 30 31  1  0
 30 66  1  0
 30 67  1  0
 31 32  1  0
 31 68  1  6
 32 38  1  0
 32 33  1  1
 32 34  1  0
 33 69  1  0
 33 70  1  0
 33 71  1  0
 34 35  1  0
 35 36  1  0
 35 72  1  0
 35 73  1  0
 36 37  1  0
 36 74  1  6
 37 38  1  1
M  CHG  1  25   1
M  END
>  <i_m_ct_stereo_status>  (249) 
1

>  <s_m_source_file>  (249) 
/var/tmp/pbs.5076255.sched01/tmp7qb2j_xu/82up84z1qn.sdf

>  <i_m_source_file_index>  (249) 
30

>  <i_lp_mmshare_version>  (249) 
48012

>  <i_f3d_flags>  (249) 
0

>  <s_epik_input>  (249) 
W09IXVtDQEBdMShbQ0BdMjM0KVtDSDJdW0NAQEhdKFtDSDNdKVtDQEBIXTNbQ0gyXU9bQ0BAXShPNCkoW0NIM10pW0NAQEhdNVtDQEBIXShDPTZbQ0BAXShbQ0gzXSkoW0NIMl1bQ0gyXTUpQyg9W0NIXVtDSF02KW43W2NIXVtjSF1uW2NIXTcpW0NAQEhdMltDQEBIXShPMSkvW0NIXT1bQ0hdL2M4W2NIXVtjSF1bY0hdW2NIXVtjSF04

>  <s_epik_cmdline>  (249) 
J2VwaWtfcHl0aG9uJywgJy1waHQnLCAnMi4wJywgJy1waCcsICc3LjAnLCAnLXRuJywgJzgnLCAnLW1hJywgJzIwMCcsICctaW1hZScsICc8aW5maWxlLm1hZT4nLCAnLW9tYWUnLCAnPG91dGZpbGUubWFlPic=

>  <r_epik_Ionization_Penalty>  (249) 
0.239777

>  <r_epik_Ionization_Penalty_Charging>  (249) 
0

>  <r_epik_Ionization_Penalty_Neutral>  (249) 
0.239777

>  <r_epik_State_Penalty>  (249) 
0.23072

>  <r_epik_Charging_Adjusted_Penalty>  (249) 
0.23072

>  <i_epik_Tot_Q>  (249) 
1

>  <i_epik_Tot_abs_Q>  (249) 
1

>  <s_lp_Force_Field>  (249) 
OPLS3e

>  <r_lp_Energy>  (249) 
56.2959

>  <b_lp_Chiralities_Consistent>  (249) 
1

>  <s_lp_Variant>  (249) 
70:0-1

>  <s_i_glide_gridfile>  (249) 
pfpi4k_grid

>  <i_i_glide_lignum>  (249) 
30

>  <i_i_glide_rotatable_bonds>  (249) 
4

>  <r_i_docking_score>  (249) 
-1.69803

>  <r_i_glide_ligand_efficiency>  (249) 
-0.0446851

>  <r_i_glide_ligand_efficiency_sa>  (249) 
-0.15023

>  <r_i_glide_ligand_efficiency_ln>  (249) 
-0.366146

>  <r_i_glide_gscore>  (249) 
-1.69803

>  <r_i_glide_lipo>  (249) 
-0.274002

>  <r_i_glide_hbond>  (249) 
0

>  <r_i_glide_metal>  (249) 
-0

>  <r_i_glide_rewards>  (249) 
0

>  <r_i_glide_evdw>  (249) 
-26.8831

>  <r_i_glide_ecoul>  (249) 
-1.79462

>  <r_i_glide_erotb>  (249) 
0.233187

>  <r_i_glide_esite>  (249) 
-0.0438724

>  <r_i_glide_emodel>  (249) 
-31.1435

>  <r_i_glide_energy>  (249) 
-28.6777

>  <r_i_glide_einternal>  (249) 
2.33979

>  <r_i_glide_intrahb_reward>  (249) 
-0

>  <i_i_glide_confnum>  (249) 
5

>  <i_i_glide_posenum>  (249) 
13

>  <r_i_glide_eff_state_penalty>  (249) 
0

>  <ligand_id>  (249) 
70

>  <original_smiles>  (249) 
CC1CC2(O)OC(C=Cc3ccccc3)C3C4C5=CC=C(n6ccnc6)C5(C)CCC4C4(C)OCC1C32O4

>  <smiles>  (249) 
[H]OC12OC([H])(C([H])=C([H])c3c([H])c([H])c([H])c([H])c3[H])C3([H])C4([H])C5=C([H])C([H])=C(n6c([H])c([H])[n+]([H])c6[H])C5(C([H])([H])[H])C([H])([H])C([H])([H])C4([H])C4(C([H])([H])[H])OC([H])([H])C([H])(C([H])(C([H])([H])[H])C1([H])[H])C23O4

$$$$
70:1:0
     RDKit          3D

 75 82  0  0  1  0  0  0  0  0999 V2000
    6.3624    4.8635    7.3368 C   0  0  0  0  0  0  0  0  0  0  0  0
    6.1010    3.3552    7.3962 C   0  0  2  0  0  0  0  0  0  0  0  0
    7.1609    2.5199    6.6717 C   0  0  0  0  0  0  0  0  0  0  0  0
    6.4813    1.1510    6.5430 C   0  0  2  0  0  0  0  0  0  0  0  0
    6.8060    0.3484    7.6553 O   0  0  0  0  0  0  0  0  0  0  0  0
    6.8399    0.5408    5.3422 O   0  0  0  0  0  0  0  0  0  0  0  0
    5.6929   -0.0830    4.7518 C   0  0  1  0  0  0  0  0  0  0  0  0
    5.3858   -1.4620    5.3462 C   0  0  0  0  0  0  0  0  0  0  0  0
    5.1160   -2.6152    4.7044 C   0  0  0  0  0  0  0  0  0  0  0  0
    4.9726   -2.8850    3.2535 C   0  0  0  0  0  0  0  0  0  0  0  0
    4.6504   -1.8840    2.3073 C   0  0  0  0  0  0  0  0  0  0  0  0
    4.6435   -2.1668    0.9338 C   0  0  0  0  0  0  0  0  0  0  0  0
    4.8820   -3.4732    0.4748 C   0  0  0  0  0  0  0  0  0  0  0  0
    5.1453   -4.4996    1.4023 C   0  0  0  0  0  0  0  0  0  0  0  0
    5.2052   -4.2000    2.7827 C   0  0  0  0  0  0  0  0  0  0  0  0
    4.6067    0.9821    5.0158 C   0  0  1  0  0  0  0  0  0  0  0  0
    3.0926    0.6478    4.7956 C   0  0  2  0  0  0  0  0  0  0  0  0
    2.2080    1.7677    4.2093 C   0  0  0  0  0  0  0  0  0  0  0  0
    2.5099    3.0363    3.8777 C   0  0  0  0  0  0  0  0  0  0  0  0
    1.3223    3.7523    3.4881 C   0  0  0  0  0  0  0  0  0  0  0  0
    0.2724    2.9023    3.5863 C   0  0  0  0  0  0  0  0  0  0  0  0
   -1.0720    3.2226    3.3298 N   0  0  0  0  0  0  0  0  0  0  0  0
   -2.1787    2.3888    3.3688 C   0  0  0  0  0  0  0  0  0  0  0  0
   -3.2507    3.1254    2.9868 C   0  0  0  0  0  0  0  0  0  0  0  0
   -2.7983    4.3975    2.7409 N   0  0  0  0  0  0  0  0  0  0  0  0
   -1.4741    4.4568    2.9415 C   0  0  0  0  0  0  0  0  0  0  0  0
    0.7213    1.4927    4.0111 C   0  0  1  0  0  0  0  0  0  0  0  0
    0.5170    0.4776    2.8596 C   0  0  0  0  0  0  0  0  0  0  0  0
    0.1334    1.0375    5.3657 C   0  0  0  0  0  0  0  0  0  0  0  0
    0.8967   -0.1579    5.9634 C   0  0  0  0  0  0  0  0  0  0  0  0
    2.4367    0.0441    6.0705 C   0  0  2  0  0  0  0  0  0  0  0  0
    2.8898    0.8393    7.3305 C   0  0  2  0  0  0  0  0  0  0  0  0
    2.3200    0.3173    8.6596 C   0  0  0  0  0  0  0  0  0  0  0  0
    2.5149    2.1870    7.1835 O   0  0  0  0  0  0  0  0  0  0  0  0
    3.5065    3.1344    7.5774 C   0  0  0  0  0  0  0  0  0  0  0  0
    4.7807    2.9188    6.7377 C   0  0  2  0  0  0  0  0  0  0  0  0
    4.9635    1.4248    6.4422 C   0  0  2  0  0  0  0  0  0  0  0  0
    4.2680    0.6591    7.4150 O   0  0  0  0  0  0  0  0  0  0  0  0
    6.3924    5.2198    6.3074 H   0  0  0  0  0  0  0  0  0  0  0  0
    7.3130    5.1087    7.8075 H   0  0  0  0  0  0  0  0  0  0  0  0
    5.5767    5.4065    7.8596 H   0  0  0  0  0  0  0  0  0  0  0  0
    6.0950    3.0305    8.4360 H   0  0  0  0  0  0  0  0  0  0  0  0
    7.3665    2.9271    5.6803 H   0  0  0  0  0  0  0  0  0  0  0  0
    8.1090    2.4315    7.1998 H   0  0  0  0  0  0  0  0  0  0  0  0
    6.2568   -0.4246    7.5929 H   0  0  0  0  0  0  0  0  0  0  0  0
    5.9817   -0.1484    3.7039 H   0  0  0  0  0  0  0  0  0  0  0  0
    5.3866   -1.5219    6.4299 H   0  0  0  0  0  0  0  0  0  0  0  0
    4.9623   -3.4695    5.3357 H   0  0  0  0  0  0  0  0  0  0  0  0
    4.4012   -0.8750    2.6048 H   0  0  0  0  0  0  0  0  0  0  0  0
    4.4412   -1.3652    0.2395 H   0  0  0  0  0  0  0  0  0  0  0  0
    4.8339   -3.6886   -0.5854 H   0  0  0  0  0  0  0  0  0  0  0  0
    5.3020   -5.5122    1.0603 H   0  0  0  0  0  0  0  0  0  0  0  0
    5.4276   -4.9978    3.4811 H   0  0  0  0  0  0  0  0  0  0  0  0
    4.8632    1.7629    4.3138 H   0  0  0  0  0  0  0  0  0  0  0  0
    3.0365   -0.1298    4.0420 H   0  0  0  0  0  0  0  0  0  0  0  0
    3.4830    3.4835    3.9401 H   0  0  0  0  0  0  0  0  0  0  0  0
    1.2857    4.7943    3.1927 H   0  0  0  0  0  0  0  0  0  0  0  0
   -2.1326    1.3329    3.6132 H   0  0  0  0  0  0  0  0  0  0  0  0
   -4.2822    2.8344    2.8442 H   0  0  0  0  0  0  0  0  0  0  0  0
   -0.8397    5.3066    2.7322 H   0  0  0  0  0  0  0  0  0  0  0  0
    0.9666    0.8461    1.9359 H   0  0  0  0  0  0  0  0  0  0  0  0
   -0.5288    0.2704    2.6458 H   0  0  0  0  0  0  0  0  0  0  0  0
    0.9880   -0.4792    3.0783 H   0  0  0  0  0  0  0  0  0  0  0  0
    0.1800    1.8660    6.0712 H   0  0  0  0  0  0  0  0  0  0  0  0
   -0.9160    0.7711    5.2813 H   0  0  0  0  0  0  0  0  0  0  0  0
    0.4591   -0.4544    6.9169 H   0  0  0  0  0  0  0  0  0  0  0  0
    0.7290   -1.0159    5.3108 H   0  0  0  0  0  0  0  0  0  0  0  0
    2.8452   -0.9578    6.2133 H   0  0  0  0  0  0  0  0  0  0  0  0
    2.8192    0.8121    9.4918 H   0  0  0  0  0  0  0  0  0  0  0  0
    2.4945   -0.7553    8.7447 H   0  0  0  0  0  0  0  0  0  0  0  0
    1.2525    0.5198    8.7365 H   0  0  0  0  0  0  0  0  0  0  0  0
    3.1205    4.1422    7.4254 H   0  0  0  0  0  0  0  0  0  0  0  0
    3.7121    3.0259    8.6438 H   0  0  0  0  0  0  0  0  0  0  0  0
    4.6845    3.4584    5.7962 H   0  0  0  0  0  0  0  0  0  0  0  0
   -3.3783    5.1221    2.3531 H   0  0  0  0  0  0  0  0  0  0  0  0
  1  2  1  0
  1 39  1  0
  1 40  1  0
  1 41  1  0
  2 36  1  0
  2  3  1  0
  2 42  1  1
  3  4  1  0
  3 43  1  0
  3 44  1  0
  4 37  1  0
  4  5  1  1
  4  6  1  0
  5 45  1  0
  6  7  1  0
  7  8  1  0
  7 16  1  0
  7 46  1  6
  8  9  2  3
  8 47  1  0
  9 10  1  0
  9 48  1  0
 10 15  1  0
 10 11  2  0
 11 12  1  0
 11 49  1  0
 12 13  2  0
 12 50  1  0
 13 14  1  0
 13 51  1  0
 14 15  2  0
 14 52  1  0
 15 53  1  0
 16 37  1  0
 16 17  1  0
 16 54  1  6
 17 31  1  0
 17 18  1  0
 17 55  1  6
 18 27  1  0
 18 19  2  0
 19 20  1  0
 19 56  1  0
 20 21  2  0
 20 57  1  0
 21 22  1  0
 21 27  1  0
 22 26  1  0
 22 23  1  0
 23 24  2  0
 23 58  1  0
 24 25  1  0
 24 59  1  0
 25 26  2  0
 25 75  1  0
 26 60  1  0
 27 28  1  6
 27 29  1  0
 28 61  1  0
 28 62  1  0
 28 63  1  0
 29 30  1  0
 29 64  1  0
 29 65  1  0
 30 31  1  0
 30 66  1  0
 30 67  1  0
 31 32  1  0
 31 68  1  1
 32 38  1  0
 32 33  1  1
 32 34  1  0
 33 69  1  0
 33 70  1  0
 33 71  1  0
 34 35  1  0
 35 36  1  0
 35 72  1  0
 35 73  1  0
 36 37  1  0
 36 74  1  6
 37 38  1  1
M  CHG  1  25   1
M  END
>  <i_m_ct_stereo_status>  (250) 
1

>  <s_m_source_file>  (250) 
/var/tmp/pbs.5076255.sched01/tmp7qb2j_xu/82up84z1qn.sdf

>  <i_m_source_file_index>  (250) 
31

>  <i_lp_mmshare_version>  (250) 
48012

>  <i_f3d_flags>  (250) 
0

>  <s_epik_input>  (250) 
W09IXVtDQEBdMShbQ0BdMjM0KVtDSDJdW0NAQEhdKFtDSDNdKVtDQEBIXTNbQ0gyXU9bQ0BAXShPNCkoW0NIM10pW0NAQEhdNVtDQEBIXShDPTZbQ0BAXShbQ0gzXSkoW0NIMl1bQ0gyXTUpQyg9W0NIXVtDSF02KW43W2NIXVtjSF1uW2NIXTcpW0NAQEhdMltDQEBIXShPMSkvW0NIXT1bQ0hdL2M4W2NIXVtjSF1bY0hdW2NIXVtjSF04

>  <s_epik_cmdline>  (250) 
J2VwaWtfcHl0aG9uJywgJy1waHQnLCAnMi4wJywgJy1waCcsICc3LjAnLCAnLXRuJywgJzgnLCAnLW1hJywgJzIwMCcsICctaW1hZScsICc8aW5maWxlLm1hZT4nLCAnLW9tYWUnLCAnPG91dGZpbGUubWFlPic=

>  <r_epik_Ionization_Penalty>  (250) 
0.239777

>  <r_epik_Ionization_Penalty_Charging>  (250) 
0

>  <r_epik_Ionization_Penalty_Neutral>  (250) 
0.239777

>  <r_epik_State_Penalty>  (250) 
0.23072

>  <r_epik_Charging_Adjusted_Penalty>  (250) 
0.23072

>  <i_epik_Tot_Q>  (250) 
1

>  <i_epik_Tot_abs_Q>  (250) 
1

>  <s_lp_Force_Field>  (250) 
OPLS3e

>  <r_lp_Energy>  (250) 
59.4353

>  <b_lp_Chiralities_Consistent>  (250) 
1

>  <s_lp_Variant>  (250) 
70:0-2

>  <s_i_glide_gridfile>  (250) 
pfpi4k_grid

>  <i_i_glide_lignum>  (250) 
31

>  <i_i_glide_rotatable_bonds>  (250) 
4

>  <r_i_docking_score>  (250) 
-2.36529

>  <r_i_glide_ligand_efficiency>  (250) 
-0.0622445

>  <r_i_glide_ligand_efficiency_sa>  (250) 
-0.209265

>  <r_i_glide_ligand_efficiency_ln>  (250) 
-0.510027

>  <r_i_glide_gscore>  (250) 
-2.36529

>  <r_i_glide_lipo>  (250) 
-0.418129

>  <r_i_glide_hbond>  (250) 
0

>  <r_i_glide_metal>  (250) 
-0

>  <r_i_glide_rewards>  (250) 
-0.104179

>  <r_i_glide_evdw>  (250) 
-22.477

>  <r_i_glide_ecoul>  (250) 
-4.55306

>  <r_i_glide_erotb>  (250) 
0.233187

>  <r_i_glide_esite>  (250) 
-0.269364

>  <r_i_glide_emodel>  (250) 
-31.5413

>  <r_i_glide_energy>  (250) 
-27.03

>  <r_i_glide_einternal>  (250) 
0.61934

>  <r_i_glide_intrahb_reward>  (250) 
-0

>  <i_i_glide_confnum>  (250) 
2

>  <i_i_glide_posenum>  (250) 
4

>  <r_i_glide_eff_state_penalty>  (250) 
0

>  <ligand_id>  (250) 
70

>  <original_smiles>  (250) 
CC1CC2(O)OC(C=Cc3ccccc3)C3C4C5=CC=C(n6ccnc6)C5(C)CCC4C4(C)OCC1C32O4

>  <smiles>  (250) 
[H]OC12OC([H])(C([H])=C([H])c3c([H])c([H])c([H])c([H])c3[H])C3([H])C4([H])C5=C([H])C([H])=C(n6c([H])c([H])[n+]([H])c6[H])C5(C([H])([H])[H])C([H])([H])C([H])([H])C4([H])C4(C([H])([H])[H])OC([H])([H])C([H])(C([H])(C([H])([H])[H])C1([H])[H])C23O4

$$$$
70:1:1
     RDKit          3D

 75 82  0  0  1  0  0  0  0  0999 V2000
    6.3662    4.8476    7.3358 C   0  0  0  0  0  0  0  0  0  0  0  0
    6.0858    3.3470    7.3998 C   0  0  2  0  0  0  0  0  0  0  0  0
    7.1349    2.4974    6.6735 C   0  0  0  0  0  0  0  0  0  0  0  0
    6.4326    1.1318    6.5423 C   0  0  2  0  0  0  0  0  0  0  0  0
    6.7742    0.3205    7.6486 O   0  0  0  0  0  0  0  0  0  0  0  0
    6.7466    0.5311    5.3264 O   0  0  0  0  0  0  0  0  0  0  0  0
    5.5819   -0.0765    4.7606 C   0  0  1  0  0  0  0  0  0  0  0  0
    5.3017   -1.4650    5.3634 C   0  0  0  0  0  0  0  0  0  0  0  0
    4.9972   -2.6093    4.7176 C   0  0  0  0  0  0  0  0  0  0  0  0
    4.8744   -2.8911    3.2598 C   0  0  0  0  0  0  0  0  0  0  0  0
    5.4840   -2.0757    2.2755 C   0  0  0  0  0  0  0  0  0  0  0  0
    5.2632   -2.3233    0.9112 C   0  0  0  0  0  0  0  0  0  0  0  0
    4.5208   -3.4363    0.4873 C   0  0  0  0  0  0  0  0  0  0  0  0
    3.9652   -4.3019    1.4604 C   0  0  0  0  0  0  0  0  0  0  0  0
    4.1235   -4.0160    2.8435 C   0  0  0  0  0  0  0  0  0  0  0  0
    4.5372    0.9945    5.0565 C   0  0  1  0  0  0  0  0  0  0  0  0
    3.0335    0.6675    4.8024 C   0  0  2  0  0  0  0  0  0  0  0  0
    2.1677    1.8049    4.2088 C   0  0  0  0  0  0  0  0  0  0  0  0
    2.4910    3.0665    3.8717 C   0  0  0  0  0  0  0  0  0  0  0  0
    1.3100    3.7979    3.4909 C   0  0  0  0  0  0  0  0  0  0  0  0
    0.2609    2.9632    3.5853 C   0  0  0  0  0  0  0  0  0  0  0  0
   -1.0877    3.3011    3.3058 N   0  0  0  0  0  0  0  0  0  0  0  0
   -2.1877    2.4784    3.3374 C   0  0  0  0  0  0  0  0  0  0  0  0
   -3.2720    3.2215    2.9638 C   0  0  0  0  0  0  0  0  0  0  0  0
   -2.8114    4.4840    2.7340 N   0  0  0  0  0  0  0  0  0  0  0  0
   -1.4806    4.5474    2.9388 C   0  0  0  0  0  0  0  0  0  0  0  0
    0.6781    1.5518    4.0062 C   0  0  1  0  0  0  0  0  0  0  0  0
    0.4713    0.5282    2.8599 C   0  0  0  0  0  0  0  0  0  0  0  0
    0.0899    1.0958    5.3639 C   0  0  0  0  0  0  0  0  0  0  0  0
    0.8312   -0.1090    5.9615 C   0  0  0  0  0  0  0  0  0  0  0  0
    2.3690    0.0718    6.0802 C   0  0  2  0  0  0  0  0  0  0  0  0
    2.8300    0.8660    7.3366 C   0  0  2  0  0  0  0  0  0  0  0  0
    2.2626    0.3559    8.6641 C   0  0  0  0  0  0  0  0  0  0  0  0
    2.4788    2.2253    7.1824 O   0  0  0  0  0  0  0  0  0  0  0  0
    3.4827    3.1631    7.5796 C   0  0  0  0  0  0  0  0  0  0  0  0
    4.7575    2.9324    6.7477 C   0  0  2  0  0  0  0  0  0  0  0  0
    4.9198    1.4312    6.4713 C   0  0  2  0  0  0  0  0  0  0  0  0
    4.2055    0.6756    7.4417 O   0  0  0  0  0  0  0  0  0  0  0  0
    6.3997    5.2012    6.3050 H   0  0  0  0  0  0  0  0  0  0  0  0
    7.3190    5.0829    7.8070 H   0  0  0  0  0  0  0  0  0  0  0  0
    5.5857    5.3995    7.8559 H   0  0  0  0  0  0  0  0  0  0  0  0
    6.0742    3.0207    8.4400 H   0  0  0  0  0  0  0  0  0  0  0  0
    7.3528    2.8992    5.6795 H   0  0  0  0  0  0  0  0  0  0  0  0
    8.0806    2.3970    7.2043 H   0  0  0  0  0  0  0  0  0  0  0  0
    7.7195    0.2659    7.6643 H   0  0  0  0  0  0  0  0  0  0  0  0
    5.6793   -0.0431    3.7059 H   0  0  0  0  0  0  0  0  0  0  0  0
    5.3513   -1.5379    6.4429 H   0  0  0  0  0  0  0  0  0  0  0  0
    4.8192   -3.4711    5.3506 H   0  0  0  0  0  0  0  0  0  0  0  0
    6.1783   -1.3040    2.5002 H   0  0  0  0  0  0  0  0  0  0  0  0
    5.7148   -1.6539    0.1951 H   0  0  0  0  0  0  0  0  0  0  0  0
    4.4182   -3.6514   -0.5736 H   0  0  0  0  0  0  0  0  0  0  0  0
    3.4244   -5.1985    1.1396 H   0  0  0  0  0  0  0  0  0  0  0  0
    3.6794   -4.6969    3.5688 H   0  0  0  0  0  0  0  0  0  0  0  0
    4.8063    1.7759    4.3516 H   0  0  0  0  0  0  0  0  0  0  0  0
    3.0110   -0.1085    4.0435 H   0  0  0  0  0  0  0  0  0  0  0  0
    3.4747    3.4907    3.9439 H   0  0  0  0  0  0  0  0  0  0  0  0
    1.3015    4.8363    3.1881 H   0  0  0  0  0  0  0  0  0  0  0  0
   -2.1601    1.4263    3.5786 H   0  0  0  0  0  0  0  0  0  0  0  0
   -4.3062    2.9420    2.8313 H   0  0  0  0  0  0  0  0  0  0  0  0
   -0.8533    5.4003    2.7503 H   0  0  0  0  0  0  0  0  0  0  0  0
    0.9254    0.8925    1.9359 H   0  0  0  0  0  0  0  0  0  0  0  0
   -0.5775    0.3365    2.6478 H   0  0  0  0  0  0  0  0  0  0  0  0
    0.9294   -0.4322    3.0828 H   0  0  0  0  0  0  0  0  0  0  0  0
    0.1490    1.9211    6.0716 H   0  0  0  0  0  0  0  0  0  0  0  0
   -0.9641    0.8479    5.2742 H   0  0  0  0  0  0  0  0  0  0  0  0
    0.3922   -0.3995    6.9154 H   0  0  0  0  0  0  0  0  0  0  0  0
    0.6585   -0.9643    5.3129 H   0  0  0  0  0  0  0  0  0  0  0  0
    2.7761   -0.9358    6.2255 H   0  0  0  0  0  0  0  0  0  0  0  0
    2.7722    0.8438    9.4937 H   0  0  0  0  0  0  0  0  0  0  0  0
    2.4287   -0.7195    8.7454 H   0  0  0  0  0  0  0  0  0  0  0  0
    1.1982    0.5706    8.7392 H   0  0  0  0  0  0  0  0  0  0  0  0
    3.1122    4.1738    7.4186 H   0  0  0  0  0  0  0  0  0  0  0  0
    3.6857    3.0534    8.6470 H   0  0  0  0  0  0  0  0  0  0  0  0
    4.6723    3.4625    5.7955 H   0  0  0  0  0  0  0  0  0  0  0  0
   -3.3965    5.2282    2.3713 H   0  0  0  0  0  0  0  0  0  0  0  0
  1  2  1  0
  1 39  1  0
  1 40  1  0
  1 41  1  0
  2 36  1  0
  2  3  1  0
  2 42  1  1
  3  4  1  0
  3 43  1  0
  3 44  1  0
  4 37  1  0
  4  5  1  1
  4  6  1  0
  5 45  1  0
  6  7  1  0
  7  8  1  0
  7 16  1  0
  7 46  1  6
  8  9  2  3
  8 47  1  0
  9 10  1  0
  9 48  1  0
 10 15  1  0
 10 11  2  0
 11 12  1  0
 11 49  1  0
 12 13  2  0
 12 50  1  0
 13 14  1  0
 13 51  1  0
 14 15  2  0
 14 52  1  0
 15 53  1  0
 16 37  1  0
 16 17  1  0
 16 54  1  6
 17 31  1  0
 17 18  1  0
 17 55  1  6
 18 27  1  0
 18 19  2  0
 19 20  1  0
 19 56  1  0
 20 21  2  0
 20 57  1  0
 21 22  1  0
 21 27  1  0
 22 26  1  0
 22 23  1  0
 23 24  2  0
 23 58  1  0
 24 25  1  0
 24 59  1  0
 25 26  2  0
 25 75  1  0
 26 60  1  0
 27 28  1  6
 27 29  1  0
 28 61  1  0
 28 62  1  0
 28 63  1  0
 29 30  1  0
 29 64  1  0
 29 65  1  0
 30 31  1  0
 30 66  1  0
 30 67  1  0
 31 32  1  0
 31 68  1  1
 32 38  1  0
 32 33  1  1
 32 34  1  0
 33 69  1  0
 33 70  1  0
 33 71  1  0
 34 35  1  0
 35 36  1  0
 35 72  1  0
 35 73  1  0
 36 37  1  0
 36 74  1  6
 37 38  1  1
M  CHG  1  25   1
M  END
>  <i_m_ct_stereo_status>  (251) 
1

>  <s_m_source_file>  (251) 
/var/tmp/pbs.5076255.sched01/tmp7qb2j_xu/82up84z1qn.sdf

>  <i_m_source_file_index>  (251) 
31

>  <i_lp_mmshare_version>  (251) 
48012

>  <i_f3d_flags>  (251) 
0

>  <s_epik_input>  (251) 
W09IXVtDQEBdMShbQ0BdMjM0KVtDSDJdW0NAQEhdKFtDSDNdKVtDQEBIXTNbQ0gyXU9bQ0BAXShPNCkoW0NIM10pW0NAQEhdNVtDQEBIXShDPTZbQ0BAXShbQ0gzXSkoW0NIMl1bQ0gyXTUpQyg9W0NIXVtDSF02KW43W2NIXVtjSF1uW2NIXTcpW0NAQEhdMltDQEBIXShPMSkvW0NIXT1bQ0hdL2M4W2NIXVtjSF1bY0hdW2NIXVtjSF04

>  <s_epik_cmdline>  (251) 
J2VwaWtfcHl0aG9uJywgJy1waHQnLCAnMi4wJywgJy1waCcsICc3LjAnLCAnLXRuJywgJzgnLCAnLW1hJywgJzIwMCcsICctaW1hZScsICc8aW5maWxlLm1hZT4nLCAnLW9tYWUnLCAnPG91dGZpbGUubWFlPic=

>  <r_epik_Ionization_Penalty>  (251) 
0.239777

>  <r_epik_Ionization_Penalty_Charging>  (251) 
0

>  <r_epik_Ionization_Penalty_Neutral>  (251) 
0.239777

>  <r_epik_State_Penalty>  (251) 
0.23072

>  <r_epik_Charging_Adjusted_Penalty>  (251) 
0.23072

>  <i_epik_Tot_Q>  (251) 
1

>  <i_epik_Tot_abs_Q>  (251) 
1

>  <s_lp_Force_Field>  (251) 
OPLS3e

>  <r_lp_Energy>  (251) 
59.4353

>  <b_lp_Chiralities_Consistent>  (251) 
1

>  <s_lp_Variant>  (251) 
70:0-2

>  <s_i_glide_gridfile>  (251) 
pfpi4k_grid

>  <i_i_glide_lignum>  (251) 
31

>  <i_i_glide_rotatable_bonds>  (251) 
4

>  <r_i_docking_score>  (251) 
-2.32775

>  <r_i_glide_ligand_efficiency>  (251) 
-0.0612566

>  <r_i_glide_ligand_efficiency_sa>  (251) 
-0.205943

>  <r_i_glide_ligand_efficiency_ln>  (251) 
-0.501931

>  <r_i_glide_gscore>  (251) 
-2.32775

>  <r_i_glide_lipo>  (251) 
-0.407631

>  <r_i_glide_hbond>  (251) 
0

>  <r_i_glide_metal>  (251) 
-0

>  <r_i_glide_rewards>  (251) 
-0.100029

>  <r_i_glide_evdw>  (251) 
-23.2005

>  <r_i_glide_ecoul>  (251) 
-4.11555

>  <r_i_glide_erotb>  (251) 
0.233187

>  <r_i_glide_esite>  (251) 
-0.275917

>  <r_i_glide_emodel>  (251) 
-31.2947

>  <r_i_glide_energy>  (251) 
-27.3161

>  <r_i_glide_einternal>  (251) 
0.415239

>  <r_i_glide_intrahb_reward>  (251) 
-0

>  <i_i_glide_confnum>  (251) 
2

>  <i_i_glide_posenum>  (251) 
15

>  <r_i_glide_eff_state_penalty>  (251) 
0

>  <ligand_id>  (251) 
70

>  <original_smiles>  (251) 
CC1CC2(O)OC(C=Cc3ccccc3)C3C4C5=CC=C(n6ccnc6)C5(C)CCC4C4(C)OCC1C32O4

>  <smiles>  (251) 
[H]OC12OC([H])(C([H])=C([H])c3c([H])c([H])c([H])c([H])c3[H])C3([H])C4([H])C5=C([H])C([H])=C(n6c([H])c([H])[n+]([H])c6[H])C5(C([H])([H])[H])C([H])([H])C([H])([H])C4([H])C4(C([H])([H])[H])OC([H])([H])C([H])(C([H])(C([H])([H])[H])C1([H])[H])C23O4

$$$$
70:1:2
     RDKit          3D

 75 82  0  0  1  0  0  0  0  0999 V2000
    6.4607   -2.3604   -0.5023 C   0  0  0  0  0  0  0  0  0  0  0  0
    6.1245   -3.2553    0.6970 C   0  0  2  0  0  0  0  0  0  0  0  0
    5.6086   -4.6503    0.3064 C   0  0  0  0  0  0  0  0  0  0  0  0
    4.9955   -5.1786    1.6093 C   0  0  2  0  0  0  0  0  0  0  0  0
    5.9700   -5.8938    2.3298 O   0  0  0  0  0  0  0  0  0  0  0  0
    3.8437   -5.9298    1.3615 O   0  0  0  0  0  0  0  0  0  0  0  0
    2.8330   -5.6287    2.3282 C   0  0  1  0  0  0  0  0  0  0  0  0
    3.0571   -6.3850    3.6409 C   0  0  0  0  0  0  0  0  0  0  0  0
    2.1946   -7.2087    4.2724 C   0  0  0  0  0  0  0  0  0  0  0  0
    0.8574   -7.6498    3.8385 C   0  0  0  0  0  0  0  0  0  0  0  0
   -0.1339   -7.9554    4.7983 C   0  0  0  0  0  0  0  0  0  0  0  0
   -1.4276   -8.3210    4.3856 C   0  0  0  0  0  0  0  0  0  0  0  0
   -1.7538   -8.3820    3.0203 C   0  0  0  0  0  0  0  0  0  0  0  0
   -0.7703   -8.0785    2.0672 C   0  0  0  0  0  0  0  0  0  0  0  0
    0.5346   -7.7440    2.4685 C   0  0  0  0  0  0  0  0  0  0  0  0
    2.9798   -4.1021    2.3834 C   0  0  1  0  0  0  0  0  0  0  0  0
    2.2132   -3.3354    3.4983 C   0  0  2  0  0  0  0  0  0  0  0  0
    1.6100   -1.9712    3.1034 C   0  0  0  0  0  0  0  0  0  0  0  0
    1.6524   -1.3023    1.9418 C   0  0  0  0  0  0  0  0  0  0  0  0
    1.0485   -0.0045    2.0917 C   0  0  0  0  0  0  0  0  0  0  0  0
    0.6347    0.1082    3.3656 C   0  0  0  0  0  0  0  0  0  0  0  0
   -0.0071    1.2316    3.9104 N   0  0  0  0  0  0  0  0  0  0  0  0
   -0.4457    1.4153    5.2106 C   0  0  0  0  0  0  0  0  0  0  0  0
   -1.0058    2.6717    5.2803 C   0  0  0  0  0  0  0  0  0  0  0  0
   -0.8963    3.2089    4.0220 N   0  0  0  0  0  0  0  0  0  0  0  0
   -0.2942    2.3336    3.1890 C   0  0  0  0  0  0  0  0  0  0  0  0
    0.9006   -1.1583    4.1789 C   0  0  1  0  0  0  0  0  0  0  0  0
   -0.4187   -1.8447    4.5907 C   0  0  0  0  0  0  0  0  0  0  0  0
    1.8796   -0.9686    5.3576 C   0  0  0  0  0  0  0  0  0  0  0  0
    2.4322   -2.3062    5.8832 C   0  0  0  0  0  0  0  0  0  0  0  0
    3.0627   -3.2100    4.7946 C   0  0  2  0  0  0  0  0  0  0  0  0
    4.5276   -2.8404    4.4402 C   0  0  2  0  0  0  0  0  0  0  0  0
    5.4409   -2.7287    5.6638 C   0  0  0  0  0  0  0  0  0  0  0  0
    4.5539   -1.6215    3.7248 O   0  0  0  0  0  0  0  0  0  0  0  0
    5.4011   -1.5878    2.5638 C   0  0  0  0  0  0  0  0  0  0  0  0
    5.0015   -2.7088    1.5897 C   0  0  2  0  0  0  0  0  0  0  0  0
    4.5028   -3.9317    2.3754 C   0  0  2  0  0  0  0  0  0  0  0  0
    5.0349   -3.9059    3.6973 O   0  0  0  0  0  0  0  0  0  0  0  0
    5.5884   -2.2135   -1.1381 H   0  0  0  0  0  0  0  0  0  0  0  0
    7.2539   -2.7982   -1.1085 H   0  0  0  0  0  0  0  0  0  0  0  0
    6.7948   -1.3831   -0.1556 H   0  0  0  0  0  0  0  0  0  0  0  0
    7.0228   -3.3958    1.2974 H   0  0  0  0  0  0  0  0  0  0  0  0
    4.8374   -4.5812   -0.4659 H   0  0  0  0  0  0  0  0  0  0  0  0
    6.3935   -5.3155   -0.0524 H   0  0  0  0  0  0  0  0  0  0  0  0
    6.2843   -6.5996    1.7757 H   0  0  0  0  0  0  0  0  0  0  0  0
    1.8551   -5.8390    1.9054 H   0  0  0  0  0  0  0  0  0  0  0  0
    4.0098   -6.2332    4.1165 H   0  0  0  0  0  0  0  0  0  0  0  0
    2.5233   -7.6247    5.2104 H   0  0  0  0  0  0  0  0  0  0  0  0
    0.1005   -7.9467    5.8542 H   0  0  0  0  0  0  0  0  0  0  0  0
   -2.1603   -8.6371    5.1176 H   0  0  0  0  0  0  0  0  0  0  0  0
   -2.7280   -8.7261    2.7010 H   0  0  0  0  0  0  0  0  0  0  0  0
   -1.0125   -8.1308    1.0170 H   0  0  0  0  0  0  0  0  0  0  0  0
    1.2915   -7.5591    1.7177 H   0  0  0  0  0  0  0  0  0  0  0  0
    2.5954   -3.7781    1.4183 H   0  0  0  0  0  0  0  0  0  0  0  0
    1.3486   -3.9472    3.7462 H   0  0  0  0  0  0  0  0  0  0  0  0
    2.1241   -1.6473    1.0415 H   0  0  0  0  0  0  0  0  0  0  0  0
    0.9761    0.7299    1.2904 H   0  0  0  0  0  0  0  0  0  0  0  0
   -0.3430    0.6864    6.0039 H   0  0  0  0  0  0  0  0  0  0  0  0
   -1.4478    3.1900    6.1122 H   0  0  0  0  0  0  0  0  0  0  0  0
   -0.0909    2.5231    2.1386 H   0  0  0  0  0  0  0  0  0  0  0  0
   -1.0254   -1.9729    3.7028 H   0  0  0  0  0  0  0  0  0  0  0  0
   -1.0043   -1.2814    5.3165 H   0  0  0  0  0  0  0  0  0  0  0  0
   -0.2570   -2.8467    4.9964 H   0  0  0  0  0  0  0  0  0  0  0  0
    2.7112   -0.3460    5.0309 H   0  0  0  0  0  0  0  0  0  0  0  0
    1.4167   -0.4496    6.1948 H   0  0  0  0  0  0  0  0  0  0  0  0
    3.1124   -2.1328    6.7137 H   0  0  0  0  0  0  0  0  0  0  0  0
    1.6055   -2.8595    6.3231 H   0  0  0  0  0  0  0  0  0  0  0  0
    3.1312   -4.2029    5.2458 H   0  0  0  0  0  0  0  0  0  0  0  0
    6.4752   -2.6899    5.3363 H   0  0  0  0  0  0  0  0  0  0  0  0
    5.3450   -3.6109    6.2978 H   0  0  0  0  0  0  0  0  0  0  0  0
    5.2396   -1.8199    6.2323 H   0  0  0  0  0  0  0  0  0  0  0  0
    5.3212   -0.6102    2.0872 H   0  0  0  0  0  0  0  0  0  0  0  0
    6.4438   -1.7059    2.8489 H   0  0  0  0  0  0  0  0  0  0  0  0
    4.2059   -2.3462    0.9396 H   0  0  0  0  0  0  0  0  0  0  0  0
   -1.2022    4.1268    3.7440 H   0  0  0  0  0  0  0  0  0  0  0  0
  1  2  1  0
  1 39  1  0
  1 40  1  0
  1 41  1  0
  2 36  1  0
  2  3  1  0
  2 42  1  1
  3  4  1  0
  3 43  1  0
  3 44  1  0
  4 37  1  0
  4  5  1  1
  4  6  1  0
  5 45  1  0
  6  7  1  0
  7  8  1  0
  7 16  1  0
  7 46  1  6
  8  9  2  3
  8 47  1  0
  9 10  1  0
  9 48  1  0
 10 15  1  0
 10 11  2  0
 11 12  1  0
 11 49  1  0
 12 13  2  0
 12 50  1  0
 13 14  1  0
 13 51  1  0
 14 15  2  0
 14 52  1  0
 15 53  1  0
 16 37  1  0
 16 17  1  0
 16 54  1  6
 17 31  1  0
 17 18  1  0
 17 55  1  1
 18 27  1  0
 18 19  2  0
 19 20  1  0
 19 56  1  0
 20 21  2  0
 20 57  1  0
 21 22  1  0
 21 27  1  0
 22 26  1  0
 22 23  1  0
 23 24  2  0
 23 58  1  0
 24 25  1  0
 24 59  1  0
 25 26  2  0
 25 75  1  0
 26 60  1  0
 27 28  1  1
 27 29  1  0
 28 61  1  0
 28 62  1  0
 28 63  1  0
 29 30  1  0
 29 64  1  0
 29 65  1  0
 30 31  1  0
 30 66  1  0
 30 67  1  0
 31 32  1  0
 31 68  1  1
 32 38  1  0
 32 33  1  1
 32 34  1  0
 33 69  1  0
 33 70  1  0
 33 71  1  0
 34 35  1  0
 35 36  1  0
 35 72  1  0
 35 73  1  0
 36 37  1  0
 36 74  1  6
 37 38  1  1
M  CHG  1  25   1
M  END
>  <i_m_ct_stereo_status>  (252) 
1

>  <s_m_source_file>  (252) 
/var/tmp/pbs.5076255.sched01/tmp7qb2j_xu/82up84z1qn.sdf

>  <i_m_source_file_index>  (252) 
31

>  <i_lp_mmshare_version>  (252) 
48012

>  <i_f3d_flags>  (252) 
0

>  <s_epik_input>  (252) 
W09IXVtDQEBdMShbQ0BdMjM0KVtDSDJdW0NAQEhdKFtDSDNdKVtDQEBIXTNbQ0gyXU9bQ0BAXShPNCkoW0NIM10pW0NAQEhdNVtDQEBIXShDPTZbQ0BAXShbQ0gzXSkoW0NIMl1bQ0gyXTUpQyg9W0NIXVtDSF02KW43W2NIXVtjSF1uW2NIXTcpW0NAQEhdMltDQEBIXShPMSkvW0NIXT1bQ0hdL2M4W2NIXVtjSF1bY0hdW2NIXVtjSF04

>  <s_epik_cmdline>  (252) 
J2VwaWtfcHl0aG9uJywgJy1waHQnLCAnMi4wJywgJy1waCcsICc3LjAnLCAnLXRuJywgJzgnLCAnLW1hJywgJzIwMCcsICctaW1hZScsICc8aW5maWxlLm1hZT4nLCAnLW9tYWUnLCAnPG91dGZpbGUubWFlPic=

>  <r_epik_Ionization_Penalty>  (252) 
0.239777

>  <r_epik_Ionization_Penalty_Charging>  (252) 
0

>  <r_epik_Ionization_Penalty_Neutral>  (252) 
0.239777

>  <r_epik_State_Penalty>  (252) 
0.23072

>  <r_epik_Charging_Adjusted_Penalty>  (252) 
0.23072

>  <i_epik_Tot_Q>  (252) 
1

>  <i_epik_Tot_abs_Q>  (252) 
1

>  <s_lp_Force_Field>  (252) 
OPLS3e

>  <r_lp_Energy>  (252) 
59.4353

>  <b_lp_Chiralities_Consistent>  (252) 
1

>  <s_lp_Variant>  (252) 
70:0-2

>  <s_i_glide_gridfile>  (252) 
pfpi4k_grid

>  <i_i_glide_lignum>  (252) 
31

>  <i_i_glide_rotatable_bonds>  (252) 
4

>  <r_i_docking_score>  (252) 
-2.0372

>  <r_i_glide_ligand_efficiency>  (252) 
-0.0536106

>  <r_i_glide_ligand_efficiency_sa>  (252) 
-0.180238

>  <r_i_glide_ligand_efficiency_ln>  (252) 
-0.439281

>  <r_i_glide_gscore>  (252) 
-2.0372

>  <r_i_glide_lipo>  (252) 
-0.327761

>  <r_i_glide_hbond>  (252) 
0

>  <r_i_glide_metal>  (252) 
-0

>  <r_i_glide_rewards>  (252) 
-0.0690769

>  <r_i_glide_evdw>  (252) 
-28.3862

>  <r_i_glide_ecoul>  (252) 
-2.10854

>  <r_i_glide_erotb>  (252) 
0.233187

>  <r_i_glide_esite>  (252) 
-0.137964

>  <r_i_glide_emodel>  (252) 
-33.4943

>  <r_i_glide_energy>  (252) 
-30.4947

>  <r_i_glide_einternal>  (252) 
0.710871

>  <r_i_glide_intrahb_reward>  (252) 
-0

>  <i_i_glide_confnum>  (252) 
4

>  <i_i_glide_posenum>  (252) 
7

>  <r_i_glide_eff_state_penalty>  (252) 
0

>  <ligand_id>  (252) 
70

>  <original_smiles>  (252) 
CC1CC2(O)OC(C=Cc3ccccc3)C3C4C5=CC=C(n6ccnc6)C5(C)CCC4C4(C)OCC1C32O4

>  <smiles>  (252) 
[H]OC12OC([H])(C([H])=C([H])c3c([H])c([H])c([H])c([H])c3[H])C3([H])C4([H])C5=C([H])C([H])=C(n6c([H])c([H])[n+]([H])c6[H])C5(C([H])([H])[H])C([H])([H])C([H])([H])C4([H])C4(C([H])([H])[H])OC([H])([H])C([H])(C([H])(C([H])([H])[H])C1([H])[H])C23O4

$$$$
70:2:0
     RDKit          3D

 74 81  0  0  1  0  0  0  0  0999 V2000
    0.1100   -5.5347   12.9962 C   0  0  0  0  0  0  0  0  0  0  0  0
    0.0444   -6.0157   11.5416 C   0  0  2  0  0  0  0  0  0  0  0  0
    1.1221   -7.0498   11.1850 C   0  0  0  0  0  0  0  0  0  0  0  0
    1.1071   -7.0613    9.6518 C   0  0  2  0  0  0  0  0  0  0  0  0
    0.2007   -8.0452    9.1993 O   0  0  0  0  0  0  0  0  0  0  0  0
    2.3936   -7.2565    9.1316 O   0  0  0  0  0  0  0  0  0  0  0  0
    2.5837   -6.4033    7.9988 C   0  0  1  0  0  0  0  0  0  0  0  0
    2.0153   -6.9955    6.7098 C   0  0  0  0  0  0  0  0  0  0  0  0
    1.8828   -8.3097    6.4521 C   0  0  0  0  0  0  0  0  0  0  0  0
    1.2905   -8.8980    5.2340 C   0  0  0  0  0  0  0  0  0  0  0  0
    0.6108   -8.1357    4.2527 C   0  0  0  0  0  0  0  0  0  0  0  0
    0.0734   -8.7584    3.1060 C   0  0  0  0  0  0  0  0  0  0  0  0
    0.2167  -10.1468    2.9258 C   0  0  0  0  0  0  0  0  0  0  0  0
    0.8932  -10.9104    3.8915 C   0  0  0  0  0  0  0  0  0  0  0  0
    1.4218  -10.2875    5.0378 C   0  0  0  0  0  0  0  0  0  0  0  0
    1.9360   -5.1062    8.5229 C   0  0  1  0  0  0  0  0  0  0  0  0
    1.6862   -3.9260    7.5277 C   0  0  2  0  0  0  0  0  0  0  0  0
    1.9100   -2.5107    8.0889 C   0  0  0  0  0  0  0  0  0  0  0  0
    2.2437   -2.1180    9.3286 C   0  0  0  0  0  0  0  0  0  0  0  0
    2.1908   -0.6821    9.4058 C   0  0  0  0  0  0  0  0  0  0  0  0
    1.8327   -0.2023    8.2072 C   0  0  0  0  0  0  0  0  0  0  0  0
    1.6939    1.1947    8.0041 N   0  0  0  0  0  0  0  0  0  0  0  0
    1.3717    1.7418    6.7576 C   0  0  0  0  0  0  0  0  0  0  0  0
    1.3413    3.1049    6.9385 C   0  0  0  0  0  0  0  0  0  0  0  0
    1.6312    3.4201    8.2676 N   0  0  0  0  0  0  0  0  0  0  0  0
    1.8267    2.2412    8.8354 C   0  0  0  0  0  0  0  0  0  0  0  0
    1.6462   -1.3124    7.1722 C   0  0  1  0  0  0  0  0  0  0  0  0
    2.7234   -1.2424    6.0716 C   0  0  0  0  0  0  0  0  0  0  0  0
    0.2046   -1.4185    6.6416 C   0  0  0  0  0  0  0  0  0  0  0  0
   -0.0749   -2.7740    5.9751 C   0  0  0  0  0  0  0  0  0  0  0  0
    0.2897   -4.0094    6.8404 C   0  0  2  0  0  0  0  0  0  0  0  0
   -0.7914   -4.4184    7.8812 C   0  0  2  0  0  0  0  0  0  0  0  0
   -2.1906   -4.5919    7.2844 C   0  0  0  0  0  0  0  0  0  0  0  0
   -0.8601   -3.4558    8.9062 O   0  0  0  0  0  0  0  0  0  0  0  0
   -0.9559   -3.9984   10.2232 C   0  0  0  0  0  0  0  0  0  0  0  0
    0.2610   -4.9061   10.5033 C   0  0  2  0  0  0  0  0  0  0  0  0
    0.6803   -5.6406    9.2197 C   0  0  2  0  0  0  0  0  0  0  0  0
   -0.4256   -5.6842    8.3326 O   0  0  0  0  0  0  0  0  0  0  0  0
    1.0748   -5.0793   13.2211 H   0  0  0  0  0  0  0  0  0  0  0  0
   -0.0388   -6.3622   13.6906 H   0  0  0  0  0  0  0  0  0  0  0  0
   -0.6639   -4.7929   13.1950 H   0  0  0  0  0  0  0  0  0  0  0  0
   -0.9296   -6.4728   11.3728 H   0  0  0  0  0  0  0  0  0  0  0  0
    2.1012   -6.7278   11.5338 H   0  0  0  0  0  0  0  0  0  0  0  0
    0.9205   -8.0429   11.5895 H   0  0  0  0  0  0  0  0  0  0  0  0
    0.5878   -8.8897    9.3831 H   0  0  0  0  0  0  0  0  0  0  0  0
    3.6462   -6.2499    7.8260 H   0  0  0  0  0  0  0  0  0  0  0  0
    1.7231   -6.2849    5.9612 H   0  0  0  0  0  0  0  0  0  0  0  0
    2.2320   -9.0099    7.2014 H   0  0  0  0  0  0  0  0  0  0  0  0
    0.4791   -7.0718    4.3660 H   0  0  0  0  0  0  0  0  0  0  0  0
   -0.4509   -8.1788    2.3629 H   0  0  0  0  0  0  0  0  0  0  0  0
   -0.1943  -10.6291    2.0522 H   0  0  0  0  0  0  0  0  0  0  0  0
    0.9981  -11.9775    3.7699 H   0  0  0  0  0  0  0  0  0  0  0  0
    1.9246  -10.8892    5.7777 H   0  0  0  0  0  0  0  0  0  0  0  0
    2.6439   -4.7742    9.2862 H   0  0  0  0  0  0  0  0  0  0  0  0
    2.4493   -4.0115    6.7538 H   0  0  0  0  0  0  0  0  0  0  0  0
    2.4582   -2.7534   10.1736 H   0  0  0  0  0  0  0  0  0  0  0  0
    2.3911   -0.1033   10.2932 H   0  0  0  0  0  0  0  0  0  0  0  0
    1.1978    1.1761    5.8569 H   0  0  0  0  0  0  0  0  0  0  0  0
    1.1348    3.8855    6.2179 H   0  0  0  0  0  0  0  0  0  0  0  0
    2.0751    2.1492    9.8793 H   0  0  0  0  0  0  0  0  0  0  0  0
    3.7131   -1.1673    6.5220 H   0  0  0  0  0  0  0  0  0  0  0  0
    2.5994   -0.3832    5.4171 H   0  0  0  0  0  0  0  0  0  0  0  0
    2.7263   -2.1282    5.4390 H   0  0  0  0  0  0  0  0  0  0  0  0
   -0.4897   -1.3021    7.4707 H   0  0  0  0  0  0  0  0  0  0  0  0
   -0.0222   -0.6212    5.9373 H   0  0  0  0  0  0  0  0  0  0  0  0
   -1.0953   -2.8293    5.6023 H   0  0  0  0  0  0  0  0  0  0  0  0
    0.5451   -2.8293    5.0789 H   0  0  0  0  0  0  0  0  0  0  0  0
    0.2863   -4.8293    6.1279 H   0  0  0  0  0  0  0  0  0  0  0  0
   -2.8528   -5.0378    8.0245 H   0  0  0  0  0  0  0  0  0  0  0  0
   -2.1419   -5.2750    6.4368 H   0  0  0  0  0  0  0  0  0  0  0  0
   -2.6110   -3.6380    6.9720 H   0  0  0  0  0  0  0  0  0  0  0  0
   -0.9888   -3.1777   10.9409 H   0  0  0  0  0  0  0  0  0  0  0  0
   -1.8931   -4.5506   10.3198 H   0  0  0  0  0  0  0  0  0  0  0  0
    1.0909   -4.2943   10.8485 H   0  0  0  0  0  0  0  0  0  0  0  0
  1  2  1  0
  1 39  1  0
  1 40  1  0
  1 41  1  0
  2 36  1  0
  2  3  1  0
  2 42  1  6
  3  4  1  0
  3 43  1  0
  3 44  1  0
  4 37  1  0
  4  5  1  1
  4  6  1  0
  5 45  1  0
  6  7  1  0
  7  8  1  0
  7 16  1  0
  7 46  1  6
  8  9  2  3
  8 47  1  0
  9 10  1  0
  9 48  1  0
 10 15  1  0
 10 11  2  0
 11 12  1  0
 11 49  1  0
 12 13  2  0
 12 50  1  0
 13 14  1  0
 13 51  1  0
 14 15  2  0
 14 52  1  0
 15 53  1  0
 16 37  1  0
 16 17  1  0
 16 54  1  1
 17 31  1  0
 17 18  1  0
 17 55  1  6
 18 27  1  0
 18 19  2  0
 19 20  1  0
 19 56  1  0
 20 21  2  0
 20 57  1  0
 21 22  1  0
 21 27  1  0
 22 26  1  0
 22 23  1  0
 23 24  2  0
 23 58  1  0
 24 25  1  0
 24 59  1  0
 25 26  2  0
 26 60  1  0
 27 28  1  6
 27 29  1  0
 28 61  1  0
 28 62  1  0
 28 63  1  0
 29 30  1  0
 29 64  1  0
 29 65  1  0
 30 31  1  0
 30 66  1  0
 30 67  1  0
 31 32  1  0
 31 68  1  6
 32 38  1  0
 32 33  1  6
 32 34  1  0
 33 69  1  0
 33 70  1  0
 33 71  1  0
 34 35  1  0
 35 36  1  0
 35 72  1  0
 35 73  1  0
 36 37  1  0
 36 74  1  1
 37 38  1  6
M  END
>  <i_m_ct_stereo_status>  (253) 
1

>  <s_m_source_file>  (253) 
/var/tmp/pbs.5076255.sched01/tmp7qb2j_xu/82up84z1qn.sdf

>  <i_m_source_file_index>  (253) 
32

>  <i_lp_mmshare_version>  (253) 
48012

>  <i_f3d_flags>  (253) 
0

>  <s_epik_input>  (253) 
W09IXVtDQEBdMShbQ0BdMjM0KVtDSDJdW0NAQEhdKFtDSDNdKVtDQEBIXTNbQ0gyXU9bQ0BAXShPNCkoW0NIM10pW0NAQEhdNVtDQEBIXShDPTZbQ0BAXShbQ0gzXSkoW0NIMl1bQ0gyXTUpQyg9W0NIXVtDSF02KW43W2NIXVtjSF1uW2NIXTcpW0NAQEhdMltDQEBIXShPMSkvW0NIXT1bQ0hdL2M4W2NIXVtjSF1bY0hdW2NIXVtjSF04

>  <s_epik_cmdline>  (253) 
J2VwaWtfcHl0aG9uJywgJy1waHQnLCAnMi4wJywgJy1waCcsICc3LjAnLCAnLXRuJywgJzgnLCAnLW1hJywgJzIwMCcsICctaW1hZScsICc8aW5maWxlLm1hZT4nLCAnLW9tYWUnLCAnPG91dGZpbGUubWFlPic=

>  <r_epik_Ionization_Penalty>  (253) 
0.651824

>  <r_epik_Ionization_Penalty_Charging>  (253) 
0.651823

>  <r_epik_Ionization_Penalty_Neutral>  (253) 
2.36955e-07

>  <r_epik_State_Penalty>  (253) 
0.670407

>  <r_epik_Charging_Adjusted_Penalty>  (253) 
1.32223

>  <i_epik_Tot_Q>  (253) 
0

>  <i_epik_Tot_abs_Q>  (253) 
0

>  <s_lp_Force_Field>  (253) 
OPLS3e

>  <r_lp_Energy>  (253) 
50.62

>  <b_lp_Chiralities_Consistent>  (253) 
1

>  <s_lp_Variant>  (253) 
70:0-3

>  <s_i_glide_gridfile>  (253) 
pfpi4k_grid

>  <i_i_glide_lignum>  (253) 
32

>  <i_i_glide_rotatable_bonds>  (253) 
4

>  <r_i_docking_score>  (253) 
-1.92675

>  <r_i_glide_ligand_efficiency>  (253) 
-0.050704

>  <r_i_glide_ligand_efficiency_sa>  (253) 
-0.170466

>  <r_i_glide_ligand_efficiency_ln>  (253) 
-0.415464

>  <r_i_glide_gscore>  (253) 
-1.92675

>  <r_i_glide_lipo>  (253) 
-0.111306

>  <r_i_glide_hbond>  (253) 
-0.145181

>  <r_i_glide_metal>  (253) 
-0

>  <r_i_glide_rewards>  (253) 
0

>  <r_i_glide_evdw>  (253) 
-24.792

>  <r_i_glide_ecoul>  (253) 
-4.27235

>  <r_i_glide_erotb>  (253) 
0.23403

>  <r_i_glide_esite>  (253) 
-0.0238449

>  <r_i_glide_emodel>  (253) 
-31.1615

>  <r_i_glide_energy>  (253) 
-29.0643

>  <r_i_glide_einternal>  (253) 
2.34082

>  <r_i_glide_intrahb_reward>  (253) 
-0

>  <i_i_glide_confnum>  (253) 
3

>  <i_i_glide_posenum>  (253) 
32

>  <r_i_glide_eff_state_penalty>  (253) 
0

>  <ligand_id>  (253) 
70

>  <original_smiles>  (253) 
CC1CC2(O)OC(C=Cc3ccccc3)C3C4C5=CC=C(n6ccnc6)C5(C)CCC4C4(C)OCC1C32O4

>  <smiles>  (253) 
[H]OC12OC([H])(C([H])=C([H])c3c([H])c([H])c([H])c([H])c3[H])C3([H])C4([H])C5=C([H])C([H])=C(n6c([H])nc([H])c6[H])C5(C([H])([H])[H])C([H])([H])C([H])([H])C4([H])C4(C([H])([H])[H])OC([H])([H])C([H])(C([H])(C([H])([H])[H])C1([H])[H])C23O4

$$$$
70:2:1
     RDKit          3D

 74 81  0  0  1  0  0  0  0  0999 V2000
    6.7517   -3.6210    8.2514 C   0  0  0  0  0  0  0  0  0  0  0  0
    5.6839   -4.2242    7.3381 C   0  0  2  0  0  0  0  0  0  0  0  0
    6.2576   -5.1674    6.2699 C   0  0  0  0  0  0  0  0  0  0  0  0
    5.0829   -5.3306    5.2986 C   0  0  2  0  0  0  0  0  0  0  0  0
    4.2966   -6.4411    5.6590 O   0  0  0  0  0  0  0  0  0  0  0  0
    5.5307   -5.4205    3.9762 O   0  0  0  0  0  0  0  0  0  0  0  0
    4.6425   -4.7117    3.0948 C   0  0  1  0  0  0  0  0  0  0  0  0
    3.4208   -5.5333    2.6193 C   0  0  0  0  0  0  0  0  0  0  0  0
    2.3155   -5.7201    3.3561 C   0  0  0  0  0  0  0  0  0  0  0  0
    1.0574   -6.3773    3.0884 C   0  0  0  0  0  0  0  0  0  0  0  0
    0.7394   -6.8469    1.8059 C   0  0  0  0  0  0  0  0  0  0  0  0
   -0.4968   -7.4916    1.6155 C   0  0  0  0  0  0  0  0  0  0  0  0
   -1.4058   -7.6628    2.6983 C   0  0  0  0  0  0  0  0  0  0  0  0
   -1.0910   -7.1637    3.9649 C   0  0  0  0  0  0  0  0  0  0  0  0
    0.1433   -6.5671    4.1648 C   0  0  0  0  0  0  0  0  0  0  0  0
    4.4383   -3.4380    3.9735 C   0  0  1  0  0  0  0  0  0  0  0  0
    3.3693   -2.3907    3.5460 C   0  0  2  0  0  0  0  0  0  0  0  0
    3.7337   -0.9050    3.7581 C   0  0  0  0  0  0  0  0  0  0  0  0
    4.8228   -0.3507    4.3112 C   0  0  0  0  0  0  0  0  0  0  0  0
    4.6102    1.0635    4.4608 C   0  0  0  0  0  0  0  0  0  0  0  0
    3.4114    1.3803    3.9566 C   0  0  0  0  0  0  0  0  0  0  0  0
    2.9271    2.7237    3.9747 N   0  0  0  0  0  0  0  0  0  0  0  0
    1.7658    3.1226    3.3280 C   0  0  0  0  0  0  0  0  0  0  0  0
    1.6677    4.4731    3.5394 C   0  0  0  0  0  0  0  0  0  0  0  0
    2.7237    4.9036    4.3141 N   0  0  0  0  0  0  0  0  0  0  0  0
    3.4217    3.8225    4.5403 C   0  0  0  0  0  0  0  0  0  0  0  0
    2.6953    0.1641    3.3927 C   0  0  1  0  0  0  0  0  0  0  0  0
    2.5323    0.2270    1.8514 C   0  0  0  0  0  0  0  0  0  0  0  0
    1.3787   -0.1480    4.1437 C   0  0  0  0  0  0  0  0  0  0  0  0
    0.9141   -1.5861    3.9084 C   0  0  0  0  0  0  0  0  0  0  0  0
    1.9747   -2.6715    4.1751 C   0  0  2  0  0  0  0  0  0  0  0  0
    2.1322   -3.0519    5.6792 C   0  0  2  0  0  0  0  0  0  0  0  0
    0.8134   -3.4578    6.3612 C   0  0  0  0  0  0  0  0  0  0  0  0
    2.7402   -2.0301    6.4468 O   0  0  0  0  0  0  0  0  0  0  0  0
    3.7928   -2.4275    7.3370 C   0  0  0  0  0  0  0  0  0  0  0  0
    4.8978   -3.1726    6.5335 C   0  0  2  0  0  0  0  0  0  0  0  0
    4.2835   -3.9976    5.3835 C   0  0  2  0  0  0  0  0  0  0  0  0
    2.9343   -4.1716    5.7323 O   0  0  0  0  0  0  0  0  0  0  0  0
    7.4587   -3.0345    7.6636 H   0  0  0  0  0  0  0  0  0  0  0  0
    7.3026   -4.3957    8.7916 H   0  0  0  0  0  0  0  0  0  0  0  0
    6.2805   -2.9598    8.9785 H   0  0  0  0  0  0  0  0  0  0  0  0
    4.9938   -4.8228    7.9423 H   0  0  0  0  0  0  0  0  0  0  0  0
    7.1087   -4.7142    5.7463 H   0  0  0  0  0  0  0  0  0  0  0  0
    6.5722   -6.1453    6.6404 H   0  0  0  0  0  0  0  0  0  0  0  0
    3.5485   -6.4679    5.0808 H   0  0  0  0  0  0  0  0  0  0  0  0
    5.1839   -4.4301    2.2082 H   0  0  0  0  0  0  0  0  0  0  0  0
    3.5618   -5.9897    1.6086 H   0  0  0  0  0  0  0  0  0  0  0  0
    2.1894   -5.3709    4.3259 H   0  0  0  0  0  0  0  0  0  0  0  0
    1.4480   -6.6966    0.9903 H   0  0  0  0  0  0  0  0  0  0  0  0
   -0.7044   -7.8837    0.6237 H   0  0  0  0  0  0  0  0  0  0  0  0
   -2.3250   -8.2225    2.5396 H   0  0  0  0  0  0  0  0  0  0  0  0
   -1.7823   -7.2864    4.8160 H   0  0  0  0  0  0  0  0  0  0  0  0
    0.4000   -6.2162    5.1576 H   0  0  0  0  0  0  0  0  0  0  0  0
    5.4140   -2.9482    3.9095 H   0  0  0  0  0  0  0  0  0  0  0  0
    3.2833   -2.4597    2.4671 H   0  0  0  0  0  0  0  0  0  0  0  0
    5.6784   -0.8738    4.6954 H   0  0  0  0  0  0  0  0  0  0  0  0
    5.3019    1.7442    4.9090 H   0  0  0  0  0  0  0  0  0  0  0  0
    1.1035    2.4833    2.7670 H   0  0  0  0  0  0  0  0  0  0  0  0
    0.9052    5.1502    3.1799 H   0  0  0  0  0  0  0  0  0  0  0  0
    4.3587    3.8492    5.1250 H   0  0  0  0  0  0  0  0  0  0  0  0
    3.4981    0.4698    1.4017 H   0  0  0  0  0  0  0  0  0  0  0  0
    1.8203    0.9840    1.5245 H   0  0  0  0  0  0  0  0  0  0  0  0
    2.1930   -0.7211    1.4212 H   0  0  0  0  0  0  0  0  0  0  0  0
    1.5378   -0.0517    5.2194 H   0  0  0  0  0  0  0  0  0  0  0  0
    0.5732    0.5455    3.8739 H   0  0  0  0  0  0  0  0  0  0  0  0
   -0.0145   -1.8206    4.4301 H   0  0  0  0  0  0  0  0  0  0  0  0
    0.6549   -1.6692    2.8657 H   0  0  0  0  0  0  0  0  0  0  0  0
    1.5844   -3.5626    3.6727 H   0  0  0  0  0  0  0  0  0  0  0  0
    0.9878   -3.9813    7.3123 H   0  0  0  0  0  0  0  0  0  0  0  0
    0.2922   -4.1347    5.6842 H   0  0  0  0  0  0  0  0  0  0  0  0
    0.1730   -2.5867    6.5189 H   0  0  0  0  0  0  0  0  0  0  0  0
    4.1672   -1.5373    7.8738 H   0  0  0  0  0  0  0  0  0  0  0  0
    3.3195   -3.0908    8.0690 H   0  0  0  0  0  0  0  0  0  0  0  0
    5.6171   -2.4514    6.1364 H   0  0  0  0  0  0  0  0  0  0  0  0
  1  2  1  0
  1 39  1  0
  1 40  1  0
  1 41  1  0
  2 36  1  0
  2  3  1  0
  2 42  1  1
  3  4  1  0
  3 43  1  0
  3 44  1  0
  4 37  1  0
  4  5  1  1
  4  6  1  0
  5 45  1  0
  6  7  1  0
  7  8  1  0
  7 16  1  0
  7 46  1  6
  8  9  2  3
  8 47  1  0
  9 10  1  0
  9 48  1  0
 10 15  1  0
 10 11  2  0
 11 12  1  0
 11 49  1  0
 12 13  2  0
 12 50  1  0
 13 14  1  0
 13 51  1  0
 14 15  2  0
 14 52  1  0
 15 53  1  0
 16 37  1  0
 16 17  1  0
 16 54  1  1
 17 31  1  0
 17 18  1  0
 17 55  1  6
 18 27  1  0
 18 19  2  0
 19 20  1  0
 19 56  1  0
 20 21  2  0
 20 57  1  0
 21 22  1  0
 21 27  1  0
 22 26  1  0
 22 23  1  0
 23 24  2  0
 23 58  1  0
 24 25  1  0
 24 59  1  0
 25 26  2  0
 26 60  1  0
 27 28  1  6
 27 29  1  0
 28 61  1  0
 28 62  1  0
 28 63  1  0
 29 30  1  0
 29 64  1  0
 29 65  1  0
 30 31  1  0
 30 66  1  0
 30 67  1  0
 31 32  1  0
 31 68  1  6
 32 38  1  0
 32 33  1  1
 32 34  1  0
 33 69  1  0
 33 70  1  0
 33 71  1  0
 34 35  1  0
 35 36  1  0
 35 72  1  0
 35 73  1  0
 36 37  1  0
 36 74  1  6
 37 38  1  1
M  END
>  <i_m_ct_stereo_status>  (254) 
1

>  <s_m_source_file>  (254) 
/var/tmp/pbs.5076255.sched01/tmp7qb2j_xu/82up84z1qn.sdf

>  <i_m_source_file_index>  (254) 
32

>  <i_lp_mmshare_version>  (254) 
48012

>  <i_f3d_flags>  (254) 
0

>  <s_epik_input>  (254) 
W09IXVtDQEBdMShbQ0BdMjM0KVtDSDJdW0NAQEhdKFtDSDNdKVtDQEBIXTNbQ0gyXU9bQ0BAXShPNCkoW0NIM10pW0NAQEhdNVtDQEBIXShDPTZbQ0BAXShbQ0gzXSkoW0NIMl1bQ0gyXTUpQyg9W0NIXVtDSF02KW43W2NIXVtjSF1uW2NIXTcpW0NAQEhdMltDQEBIXShPMSkvW0NIXT1bQ0hdL2M4W2NIXVtjSF1bY0hdW2NIXVtjSF04

>  <s_epik_cmdline>  (254) 
J2VwaWtfcHl0aG9uJywgJy1waHQnLCAnMi4wJywgJy1waCcsICc3LjAnLCAnLXRuJywgJzgnLCAnLW1hJywgJzIwMCcsICctaW1hZScsICc8aW5maWxlLm1hZT4nLCAnLW9tYWUnLCAnPG91dGZpbGUubWFlPic=

>  <r_epik_Ionization_Penalty>  (254) 
0.651824

>  <r_epik_Ionization_Penalty_Charging>  (254) 
0.651823

>  <r_epik_Ionization_Penalty_Neutral>  (254) 
2.36955e-07

>  <r_epik_State_Penalty>  (254) 
0.670407

>  <r_epik_Charging_Adjusted_Penalty>  (254) 
1.32223

>  <i_epik_Tot_Q>  (254) 
0

>  <i_epik_Tot_abs_Q>  (254) 
0

>  <s_lp_Force_Field>  (254) 
OPLS3e

>  <r_lp_Energy>  (254) 
50.62

>  <b_lp_Chiralities_Consistent>  (254) 
1

>  <s_lp_Variant>  (254) 
70:0-3

>  <s_i_glide_gridfile>  (254) 
pfpi4k_grid

>  <i_i_glide_lignum>  (254) 
32

>  <i_i_glide_rotatable_bonds>  (254) 
4

>  <r_i_docking_score>  (254) 
-1.43627

>  <r_i_glide_ligand_efficiency>  (254) 
-0.0377967

>  <r_i_glide_ligand_efficiency_sa>  (254) 
-0.127071

>  <r_i_glide_ligand_efficiency_ln>  (254) 
-0.309703

>  <r_i_glide_gscore>  (254) 
-1.43627

>  <r_i_glide_lipo>  (254) 
-0.118596

>  <r_i_glide_hbond>  (254) 
0

>  <r_i_glide_metal>  (254) 
-0

>  <r_i_glide_rewards>  (254) 
-2.32329e-06

>  <r_i_glide_evdw>  (254) 
-27.5216

>  <r_i_glide_ecoul>  (254) 
-1.22322

>  <r_i_glide_erotb>  (254) 
0.23403

>  <r_i_glide_esite>  (254) 
-0.0269969

>  <r_i_glide_emodel>  (254) 
-23.4444

>  <r_i_glide_energy>  (254) 
-28.7448

>  <r_i_glide_einternal>  (254) 
7.78316

>  <r_i_glide_intrahb_reward>  (254) 
-0

>  <i_i_glide_confnum>  (254) 
3

>  <i_i_glide_posenum>  (254) 
21

>  <r_i_glide_eff_state_penalty>  (254) 
0

>  <ligand_id>  (254) 
70

>  <original_smiles>  (254) 
CC1CC2(O)OC(C=Cc3ccccc3)C3C4C5=CC=C(n6ccnc6)C5(C)CCC4C4(C)OCC1C32O4

>  <smiles>  (254) 
[H]OC12OC([H])(C([H])=C([H])c3c([H])c([H])c([H])c([H])c3[H])C3([H])C4([H])C5=C([H])C([H])=C(n6c([H])nc([H])c6[H])C5(C([H])([H])[H])C([H])([H])C([H])([H])C4([H])C4(C([H])([H])[H])OC([H])([H])C([H])(C([H])(C([H])([H])[H])C1([H])[H])C23O4

$$$$
70:2:2
     RDKit          3D

 74 81  0  0  1  0  0  0  0  0999 V2000
    4.0107   -8.9122   11.8680 C   0  0  0  0  0  0  0  0  0  0  0  0
    3.2023   -8.6787   10.5852 C   0  0  2  0  0  0  0  0  0  0  0  0
    3.5460   -9.6571    9.4580 C   0  0  0  0  0  0  0  0  0  0  0  0
    2.9269   -8.9962    8.2210 C   0  0  2  0  0  0  0  0  0  0  0  0
    1.5954   -9.4604    8.0613 O   0  0  0  0  0  0  0  0  0  0  0  0
    3.7126   -9.2119    7.0816 O   0  0  0  0  0  0  0  0  0  0  0  0
    3.7752   -8.0124    6.3069 C   0  0  1  0  0  0  0  0  0  0  0  0
    2.5607   -7.8335    5.3995 C   0  0  0  0  0  0  0  0  0  0  0  0
    1.7061   -8.8147    5.0653 C   0  0  0  0  0  0  0  0  0  0  0  0
    0.5016   -8.6645    4.2493 C   0  0  0  0  0  0  0  0  0  0  0  0
   -0.3659   -7.5552    4.3703 C   0  0  0  0  0  0  0  0  0  0  0  0
   -1.5155   -7.4765    3.5561 C   0  0  0  0  0  0  0  0  0  0  0  0
   -1.7776   -8.4772    2.6020 C   0  0  0  0  0  0  0  0  0  0  0  0
   -0.9115   -9.5725    2.4790 C   0  0  0  0  0  0  0  0  0  0  0  0
    0.2217   -9.6658    3.3046 C   0  0  0  0  0  0  0  0  0  0  0  0
    3.9809   -6.9795    7.4303 C   0  0  1  0  0  0  0  0  0  0  0  0
    3.8781   -5.4638    7.0812 C   0  0  2  0  0  0  0  0  0  0  0  0
    4.8529   -4.5276    7.8241 C   0  0  0  0  0  0  0  0  0  0  0  0
    5.7723   -4.7911    8.7708 C   0  0  0  0  0  0  0  0  0  0  0  0
    6.3342   -3.5498    9.2593 C   0  0  0  0  0  0  0  0  0  0  0  0
    5.7523   -2.5408    8.5940 C   0  0  0  0  0  0  0  0  0  0  0  0
    6.0101   -1.1564    8.7644 N   0  0  0  0  0  0  0  0  0  0  0  0
    6.9492   -0.6883    9.6794 C   0  0  0  0  0  0  0  0  0  0  0  0
    6.9267    0.6904    9.5579 C   0  0  0  0  0  0  0  0  0  0  0  0
    6.0056    1.0699    8.5946 N   0  0  0  0  0  0  0  0  0  0  0  0
    5.4989   -0.0706    8.1626 C   0  0  0  0  0  0  0  0  0  0  0  0
    4.7543   -3.0333    7.5470 C   0  0  1  0  0  0  0  0  0  0  0  0
    5.2489   -2.7166    6.1161 C   0  0  0  0  0  0  0  0  0  0  0  0
    3.3022   -2.5815    7.8182 C   0  0  0  0  0  0  0  0  0  0  0  0
    2.2711   -3.4011    7.0295 C   0  0  0  0  0  0  0  0  0  0  0  0
    2.4129   -4.9352    7.1974 C   0  0  2  0  0  0  0  0  0  0  0  0
    1.7381   -5.5018    8.4758 C   0  0  2  0  0  0  0  0  0  0  0  0
    0.2732   -5.0772    8.6661 C   0  0  0  0  0  0  0  0  0  0  0  0
    2.4761   -5.1033    9.6059 O   0  0  0  0  0  0  0  0  0  0  0  0
    2.6764   -6.1236   10.5839 C   0  0  0  0  0  0  0  0  0  0  0  0
    3.4299   -7.3034    9.9391 C   0  0  2  0  0  0  0  0  0  0  0  0
    2.9834   -7.4752    8.4822 C   0  0  2  0  0  0  0  0  0  0  0  0
    1.7065   -6.8825    8.3001 O   0  0  0  0  0  0  0  0  0  0  0  0
    5.0809   -8.8256   11.6815 H   0  0  0  0  0  0  0  0  0  0  0  0
    3.8211   -9.9056   12.2754 H   0  0  0  0  0  0  0  0  0  0  0  0
    3.7436   -8.1821   12.6326 H   0  0  0  0  0  0  0  0  0  0  0  0
    2.1412   -8.7897   10.8094 H   0  0  0  0  0  0  0  0  0  0  0  0
    4.6258   -9.7442    9.3262 H   0  0  0  0  0  0  0  0  0  0  0  0
    3.1355  -10.6528    9.6026 H   0  0  0  0  0  0  0  0  0  0  0  0
    1.6190  -10.4012    7.9095 H   0  0  0  0  0  0  0  0  0  0  0  0
    4.6461   -8.0421    5.6539 H   0  0  0  0  0  0  0  0  0  0  0  0
    2.4128   -6.8534    4.9817 H   0  0  0  0  0  0  0  0  0  0  0  0
    1.8822   -9.8104    5.4430 H   0  0  0  0  0  0  0  0  0  0  0  0
   -0.1781   -6.7919    5.1112 H   0  0  0  0  0  0  0  0  0  0  0  0
   -2.2020   -6.6555    3.6751 H   0  0  0  0  0  0  0  0  0  0  0  0
   -2.6479   -8.4286    1.9705 H   0  0  0  0  0  0  0  0  0  0  0  0
   -1.1091  -10.3443    1.7502 H   0  0  0  0  0  0  0  0  0  0  0  0
    0.8823  -10.5125    3.2063 H   0  0  0  0  0  0  0  0  0  0  0  0
    4.9978   -7.1840    7.7710 H   0  0  0  0  0  0  0  0  0  0  0  0
    4.1787   -5.3604    6.0394 H   0  0  0  0  0  0  0  0  0  0  0  0
    6.0088   -5.7632    9.1650 H   0  0  0  0  0  0  0  0  0  0  0  0
    7.0788   -3.4740   10.0419 H   0  0  0  0  0  0  0  0  0  0  0  0
    7.5500   -1.3138   10.3263 H   0  0  0  0  0  0  0  0  0  0  0  0
    7.4969    1.4454   10.0796 H   0  0  0  0  0  0  0  0  0  0  0  0
    4.7493   -0.0820    7.3885 H   0  0  0  0  0  0  0  0  0  0  0  0
    6.2759   -3.0619    5.9899 H   0  0  0  0  0  0  0  0  0  0  0  0
    5.2364   -1.6509    5.8928 H   0  0  0  0  0  0  0  0  0  0  0  0
    4.6473   -3.2090    5.3508 H   0  0  0  0  0  0  0  0  0  0  0  0
    3.0845   -2.6835    8.8796 H   0  0  0  0  0  0  0  0  0  0  0  0
    3.1496   -1.5318    7.5803 H   0  0  0  0  0  0  0  0  0  0  0  0
    1.2552   -3.0606    7.2354 H   0  0  0  0  0  0  0  0  0  0  0  0
    2.4210   -3.1814    5.9730 H   0  0  0  0  0  0  0  0  0  0  0  0
    1.8235   -5.3523    6.3818 H   0  0  0  0  0  0  0  0  0  0  0  0
   -0.1740   -5.6504    9.4777 H   0  0  0  0  0  0  0  0  0  0  0  0
   -0.2932   -5.2781    7.7566 H   0  0  0  0  0  0  0  0  0  0  0  0
    0.2001   -4.0190    8.9172 H   0  0  0  0  0  0  0  0  0  0  0  0
    3.2549   -5.7113   11.4102 H   0  0  0  0  0  0  0  0  0  0  0  0
    1.7133   -6.4415   10.9884 H   0  0  0  0  0  0  0  0  0  0  0  0
    4.5008   -7.1052    9.9668 H   0  0  0  0  0  0  0  0  0  0  0  0
  1  2  1  0
  1 39  1  0
  1 40  1  0
  1 41  1  0
  2 36  1  0
  2  3  1  0
  2 42  1  1
  3  4  1  0
  3 43  1  0
  3 44  1  0
  4 37  1  0
  4  5  1  6
  4  6  1  0
  5 45  1  0
  6  7  1  0
  7  8  1  0
  7 16  1  0
  7 46  1  6
  8  9  2  3
  8 47  1  0
  9 10  1  0
  9 48  1  0
 10 15  1  0
 10 11  2  0
 11 12  1  0
 11 49  1  0
 12 13  2  0
 12 50  1  0
 13 14  1  0
 13 51  1  0
 14 15  2  0
 14 52  1  0
 15 53  1  0
 16 37  1  0
 16 17  1  0
 16 54  1  1
 17 31  1  0
 17 18  1  0
 17 55  1  6
 18 27  1  0
 18 19  2  0
 19 20  1  0
 19 56  1  0
 20 21  2  0
 20 57  1  0
 21 22  1  0
 21 27  1  0
 22 26  1  0
 22 23  1  0
 23 24  2  0
 23 58  1  0
 24 25  1  0
 24 59  1  0
 25 26  2  0
 26 60  1  0
 27 28  1  6
 27 29  1  0
 28 61  1  0
 28 62  1  0
 28 63  1  0
 29 30  1  0
 29 64  1  0
 29 65  1  0
 30 31  1  0
 30 66  1  0
 30 67  1  0
 31 32  1  0
 31 68  1  6
 32 38  1  0
 32 33  1  1
 32 34  1  0
 33 69  1  0
 33 70  1  0
 33 71  1  0
 34 35  1  0
 35 36  1  0
 35 72  1  0
 35 73  1  0
 36 37  1  0
 36 74  1  6
 37 38  1  1
M  END
>  <i_m_ct_stereo_status>  (255) 
1

>  <s_m_source_file>  (255) 
/var/tmp/pbs.5076255.sched01/tmp7qb2j_xu/82up84z1qn.sdf

>  <i_m_source_file_index>  (255) 
32

>  <i_lp_mmshare_version>  (255) 
48012

>  <i_f3d_flags>  (255) 
0

>  <s_epik_input>  (255) 
W09IXVtDQEBdMShbQ0BdMjM0KVtDSDJdW0NAQEhdKFtDSDNdKVtDQEBIXTNbQ0gyXU9bQ0BAXShPNCkoW0NIM10pW0NAQEhdNVtDQEBIXShDPTZbQ0BAXShbQ0gzXSkoW0NIMl1bQ0gyXTUpQyg9W0NIXVtDSF02KW43W2NIXVtjSF1uW2NIXTcpW0NAQEhdMltDQEBIXShPMSkvW0NIXT1bQ0hdL2M4W2NIXVtjSF1bY0hdW2NIXVtjSF04

>  <s_epik_cmdline>  (255) 
J2VwaWtfcHl0aG9uJywgJy1waHQnLCAnMi4wJywgJy1waCcsICc3LjAnLCAnLXRuJywgJzgnLCAnLW1hJywgJzIwMCcsICctaW1hZScsICc8aW5maWxlLm1hZT4nLCAnLW9tYWUnLCAnPG91dGZpbGUubWFlPic=

>  <r_epik_Ionization_Penalty>  (255) 
0.651824

>  <r_epik_Ionization_Penalty_Charging>  (255) 
0.651823

>  <r_epik_Ionization_Penalty_Neutral>  (255) 
2.36955e-07

>  <r_epik_State_Penalty>  (255) 
0.670407

>  <r_epik_Charging_Adjusted_Penalty>  (255) 
1.32223

>  <i_epik_Tot_Q>  (255) 
0

>  <i_epik_Tot_abs_Q>  (255) 
0

>  <s_lp_Force_Field>  (255) 
OPLS3e

>  <r_lp_Energy>  (255) 
50.62

>  <b_lp_Chiralities_Consistent>  (255) 
1

>  <s_lp_Variant>  (255) 
70:0-3

>  <s_i_glide_gridfile>  (255) 
pfpi4k_grid

>  <i_i_glide_lignum>  (255) 
32

>  <i_i_glide_rotatable_bonds>  (255) 
4

>  <r_i_docking_score>  (255) 
-1.3993

>  <r_i_glide_ligand_efficiency>  (255) 
-0.0368238

>  <r_i_glide_ligand_efficiency_sa>  (255) 
-0.123801

>  <r_i_glide_ligand_efficiency_ln>  (255) 
-0.301731

>  <r_i_glide_gscore>  (255) 
-1.3993

>  <r_i_glide_lipo>  (255) 
-0.270436

>  <r_i_glide_hbond>  (255) 
0

>  <r_i_glide_metal>  (255) 
-0

>  <r_i_glide_rewards>  (255) 
-0.000338097

>  <r_i_glide_evdw>  (255) 
-20.1545

>  <r_i_glide_ecoul>  (255) 
-2.17545

>  <r_i_glide_erotb>  (255) 
0.23403

>  <r_i_glide_esite>  (255) 
-0.0285159

>  <r_i_glide_emodel>  (255) 
-22.1002

>  <r_i_glide_energy>  (255) 
-22.33

>  <r_i_glide_einternal>  (255) 
4.46006

>  <r_i_glide_intrahb_reward>  (255) 
-0

>  <i_i_glide_confnum>  (255) 
3

>  <i_i_glide_posenum>  (255) 
15

>  <r_i_glide_eff_state_penalty>  (255) 
0

>  <ligand_id>  (255) 
70

>  <original_smiles>  (255) 
CC1CC2(O)OC(C=Cc3ccccc3)C3C4C5=CC=C(n6ccnc6)C5(C)CCC4C4(C)OCC1C32O4

>  <smiles>  (255) 
[H]OC12OC([H])(C([H])=C([H])c3c([H])c([H])c([H])c([H])c3[H])C3([H])C4([H])C5=C([H])C([H])=C(n6c([H])nc([H])c6[H])C5(C([H])([H])[H])C([H])([H])C([H])([H])C4([H])C4(C([H])([H])[H])OC([H])([H])C([H])(C([H])(C([H])([H])[H])C1([H])[H])C23O4

$$$$
70:3:0
     RDKit          3D

 74 81  0  0  1  0  0  0  0  0999 V2000
    0.2358   -5.9951    6.3314 C   0  0  0  0  0  0  0  0  0  0  0  0
    0.5728   -4.5559    6.7367 C   0  0  2  0  0  0  0  0  0  0  0  0
   -0.6559   -3.6548    6.9074 C   0  0  0  0  0  0  0  0  0  0  0  0
   -0.0605   -2.2418    6.9033 C   0  0  2  0  0  0  0  0  0  0  0  0
    0.2345   -1.8506    8.2287 O   0  0  0  0  0  0  0  0  0  0  0  0
   -0.9105   -1.3295    6.2584 O   0  0  0  0  0  0  0  0  0  0  0  0
   -0.1265   -0.4428    5.4540 C   0  0  1  0  0  0  0  0  0  0  0  0
    0.4828    0.6990    6.2796 C   0  0  0  0  0  0  0  0  0  0  0  0
    0.3271    2.0302    6.1116 C   0  0  0  0  0  0  0  0  0  0  0  0
   -0.5188    2.7621    5.1549 C   0  0  0  0  0  0  0  0  0  0  0  0
   -1.7715    2.2723    4.7193 C   0  0  0  0  0  0  0  0  0  0  0  0
   -2.5131    2.9609    3.7471 C   0  0  0  0  0  0  0  0  0  0  0  0
   -2.0362    4.1736    3.2261 C   0  0  0  0  0  0  0  0  0  0  0  0
   -0.8095    4.6987    3.6808 C   0  0  0  0  0  0  0  0  0  0  0  0
   -0.0502    3.9896    4.6314 C   0  0  0  0  0  0  0  0  0  0  0  0
    0.8583   -1.4365    4.8391 C   0  0  1  0  0  0  0  0  0  0  0  0
    2.0678   -0.8679    4.0433 C   0  0  2  0  0  0  0  0  0  0  0  0
    2.4755   -1.6557    2.7878 C   0  0  0  0  0  0  0  0  0  0  0  0
    1.9762   -2.7926    2.2702 C   0  0  0  0  0  0  0  0  0  0  0  0
    2.7844   -3.2125    1.1453 C   0  0  0  0  0  0  0  0  0  0  0  0
    3.7747   -2.3174    0.9922 C   0  0  0  0  0  0  0  0  0  0  0  0
    4.8003   -2.3567    0.0158 N   0  0  0  0  0  0  0  0  0  0  0  0
    4.8692   -3.3522   -0.9612 C   0  0  0  0  0  0  0  0  0  0  0  0
    5.9893   -3.0482   -1.7121 C   0  0  0  0  0  0  0  0  0  0  0  0
    6.6104   -1.9040   -1.2201 N   0  0  0  0  0  0  0  0  0  0  0  0
    5.8408   -1.5410   -0.2078 C   0  0  0  0  0  0  0  0  0  0  0  0
    3.6843   -1.1736    1.9978 C   0  0  1  0  0  0  0  0  0  0  0  0
    3.3641    0.1562    1.2841 C   0  0  0  0  0  0  0  0  0  0  0  0
    4.8874   -1.0881    2.9626 C   0  0  0  0  0  0  0  0  0  0  0  0
    4.5943   -0.2235    4.1998 C   0  0  0  0  0  0  0  0  0  0  0  0
    3.2985   -0.6137    4.9630 C   0  0  2  0  0  0  0  0  0  0  0  0
    3.4778   -1.8033    5.9535 C   0  0  2  0  0  0  0  0  0  0  0  0
    4.6570   -1.6501    6.9262 C   0  0  0  0  0  0  0  0  0  0  0  0
    3.6543   -2.9918    5.2216 O   0  0  0  0  0  0  0  0  0  0  0  0
    2.9348   -4.1210    5.7172 C   0  0  0  0  0  0  0  0  0  0  0  0
    1.4276   -3.8026    5.7107 C   0  0  2  0  0  0  0  0  0  0  0  0
    1.2095   -2.3202    6.0360 C   0  0  2  0  0  0  0  0  0  0  0  0
    2.3290   -1.8124    6.7466 O   0  0  0  0  0  0  0  0  0  0  0  0
   -0.3066   -6.0288    5.3868 H   0  0  0  0  0  0  0  0  0  0  0  0
   -0.3762   -6.4780    7.0916 H   0  0  0  0  0  0  0  0  0  0  0  0
    1.1444   -6.5869    6.2163 H   0  0  0  0  0  0  0  0  0  0  0  0
    1.1030   -4.5721    7.6878 H   0  0  0  0  0  0  0  0  0  0  0  0
   -1.3401   -3.7604    6.0737 H   0  0  0  0  0  0  0  0  0  0  0  0
   -1.2137   -3.8486    7.8190 H   0  0  0  0  0  0  0  0  0  0  0  0
    0.9695   -1.2482    8.1777 H   0  0  0  0  0  0  0  0  0  0  0  0
   -0.7260   -0.0735    4.6294 H   0  0  0  0  0  0  0  0  0  0  0  0
    1.1316    0.3984    7.0923 H   0  0  0  0  0  0  0  0  0  0  0  0
    0.8851    2.6564    6.7909 H   0  0  0  0  0  0  0  0  0  0  0  0
   -2.1817    1.3630    5.1245 H   0  0  0  0  0  0  0  0  0  0  0  0
   -3.4448    2.5483    3.3952 H   0  0  0  0  0  0  0  0  0  0  0  0
   -2.6108    4.6913    2.4733 H   0  0  0  0  0  0  0  0  0  0  0  0
   -0.4317    5.6204    3.2640 H   0  0  0  0  0  0  0  0  0  0  0  0
    0.9036    4.3897    4.9452 H   0  0  0  0  0  0  0  0  0  0  0  0
    0.2311   -2.0022    4.1494 H   0  0  0  0  0  0  0  0  0  0  0  0
    1.7573    0.1003    3.6483 H   0  0  0  0  0  0  0  0  0  0  0  0
    1.1431   -3.3480    2.6616 H   0  0  0  0  0  0  0  0  0  0  0  0
    2.6264   -4.1068    0.5577 H   0  0  0  0  0  0  0  0  0  0  0  0
    4.1630   -4.1682   -1.0702 H   0  0  0  0  0  0  0  0  0  0  0  0
    6.4038   -3.5544   -2.5673 H   0  0  0  0  0  0  0  0  0  0  0  0
    6.0622   -0.6649    0.3641 H   0  0  0  0  0  0  0  0  0  0  0  0
    2.4968    0.0368    0.6331 H   0  0  0  0  0  0  0  0  0  0  0  0
    4.1873    0.5127    0.6662 H   0  0  0  0  0  0  0  0  0  0  0  0
    3.1251    0.9591    1.9823 H   0  0  0  0  0  0  0  0  0  0  0  0
    5.1565   -2.0911    3.2918 H   0  0  0  0  0  0  0  0  0  0  0  0
    5.7736   -0.6850    2.4810 H   0  0  0  0  0  0  0  0  0  0  0  0
    5.4634   -0.1831    4.8568 H   0  0  0  0  0  0  0  0  0  0  0  0
    4.4678    0.8043    3.8544 H   0  0  0  0  0  0  0  0  0  0  0  0
    3.0696    0.2451    5.5934 H   0  0  0  0  0  0  0  0  0  0  0  0
    4.6088   -2.4272    7.6886 H   0  0  0  0  0  0  0  0  0  0  0  0
    4.6082   -0.6813    7.4221 H   0  0  0  0  0  0  0  0  0  0  0  0
    5.6110   -1.7442    6.4083 H   0  0  0  0  0  0  0  0  0  0  0  0
    3.1413   -4.9829    5.0831 H   0  0  0  0  0  0  0  0  0  0  0  0
    3.2847   -4.3680    6.7205 H   0  0  0  0  0  0  0  0  0  0  0  0
    1.0213   -4.0160    4.7243 H   0  0  0  0  0  0  0  0  0  0  0  0
  1  2  1  0
  1 39  1  0
  1 40  1  0
  1 41  1  0
  2 36  1  0
  2  3  1  0
  2 42  1  1
  3  4  1  0
  3 43  1  0
  3 44  1  0
  4 37  1  0
  4  5  1  1
  4  6  1  0
  5 45  1  0
  6  7  1  0
  7  8  1  0
  7 16  1  0
  7 46  1  6
  8  9  2  3
  8 47  1  0
  9 10  1  0
  9 48  1  0
 10 15  1  0
 10 11  2  0
 11 12  1  0
 11 49  1  0
 12 13  2  0
 12 50  1  0
 13 14  1  0
 13 51  1  0
 14 15  2  0
 14 52  1  0
 15 53  1  0
 16 37  1  0
 16 17  1  0
 16 54  1  6
 17 31  1  0
 17 18  1  0
 17 55  1  6
 18 27  1  0
 18 19  2  0
 19 20  1  0
 19 56  1  0
 20 21  2  0
 20 57  1  0
 21 22  1  0
 21 27  1  0
 22 26  1  0
 22 23  1  0
 23 24  2  0
 23 58  1  0
 24 25  1  0
 24 59  1  0
 25 26  2  0
 26 60  1  0
 27 28  1  6
 27 29  1  0
 28 61  1  0
 28 62  1  0
 28 63  1  0
 29 30  1  0
 29 64  1  0
 29 65  1  0
 30 31  1  0
 30 66  1  0
 30 67  1  0
 31 32  1  0
 31 68  1  1
 32 38  1  0
 32 33  1  1
 32 34  1  0
 33 69  1  0
 33 70  1  0
 33 71  1  0
 34 35  1  0
 35 36  1  0
 35 72  1  0
 35 73  1  0
 36 37  1  0
 36 74  1  6
 37 38  1  1
M  END
>  <i_m_ct_stereo_status>  (256) 
1

>  <s_m_source_file>  (256) 
/var/tmp/pbs.5076255.sched01/tmp7qb2j_xu/82up84z1qn.sdf

>  <i_m_source_file_index>  (256) 
33

>  <i_lp_mmshare_version>  (256) 
48012

>  <i_f3d_flags>  (256) 
0

>  <s_epik_input>  (256) 
W09IXVtDQEBdMShbQ0BdMjM0KVtDSDJdW0NAQEhdKFtDSDNdKVtDQEBIXTNbQ0gyXU9bQ0BAXShPNCkoW0NIM10pW0NAQEhdNVtDQEBIXShDPTZbQ0BAXShbQ0gzXSkoW0NIMl1bQ0gyXTUpQyg9W0NIXVtDSF02KW43W2NIXVtjSF1uW2NIXTcpW0NAQEhdMltDQEBIXShPMSkvW0NIXT1bQ0hdL2M4W2NIXVtjSF1bY0hdW2NIXVtjSF04

>  <s_epik_cmdline>  (256) 
J2VwaWtfcHl0aG9uJywgJy1waHQnLCAnMi4wJywgJy1waCcsICc3LjAnLCAnLXRuJywgJzgnLCAnLW1hJywgJzIwMCcsICctaW1hZScsICc8aW5maWxlLm1hZT4nLCAnLW9tYWUnLCAnPG91dGZpbGUubWFlPic=

>  <r_epik_Ionization_Penalty>  (256) 
0.651824

>  <r_epik_Ionization_Penalty_Charging>  (256) 
0.651823

>  <r_epik_Ionization_Penalty_Neutral>  (256) 
2.36955e-07

>  <r_epik_State_Penalty>  (256) 
0.670407

>  <r_epik_Charging_Adjusted_Penalty>  (256) 
1.32223

>  <i_epik_Tot_Q>  (256) 
0

>  <i_epik_Tot_abs_Q>  (256) 
0

>  <s_lp_Force_Field>  (256) 
OPLS3e

>  <r_lp_Energy>  (256) 
52.654

>  <b_lp_Chiralities_Consistent>  (256) 
1

>  <s_lp_Variant>  (256) 
70:0-4

>  <s_i_glide_gridfile>  (256) 
pfpi4k_grid

>  <i_i_glide_lignum>  (256) 
33

>  <i_i_glide_rotatable_bonds>  (256) 
4

>  <r_i_docking_score>  (256) 
-3.00664

>  <r_i_glide_ligand_efficiency>  (256) 
-0.0791221

>  <r_i_glide_ligand_efficiency_sa>  (256) 
-0.266007

>  <r_i_glide_ligand_efficiency_ln>  (256) 
-0.64832

>  <r_i_glide_gscore>  (256) 
-3.00664

>  <r_i_glide_lipo>  (256) 
-0.302279

>  <r_i_glide_hbond>  (256) 
-0.165995

>  <r_i_glide_metal>  (256) 
-0

>  <r_i_glide_rewards>  (256) 
0

>  <r_i_glide_evdw>  (256) 
-30.0957

>  <r_i_glide_ecoul>  (256) 
-8.00571

>  <r_i_glide_erotb>  (256) 
0.23403

>  <r_i_glide_esite>  (256) 
-0.0667554

>  <r_i_glide_emodel>  (256) 
-44.607

>  <r_i_glide_energy>  (256) 
-38.1014

>  <r_i_glide_einternal>  (256) 
0.648704

>  <r_i_glide_intrahb_reward>  (256) 
-0

>  <i_i_glide_confnum>  (256) 
1

>  <i_i_glide_posenum>  (256) 
9

>  <r_i_glide_eff_state_penalty>  (256) 
0

>  <ligand_id>  (256) 
70

>  <original_smiles>  (256) 
CC1CC2(O)OC(C=Cc3ccccc3)C3C4C5=CC=C(n6ccnc6)C5(C)CCC4C4(C)OCC1C32O4

>  <smiles>  (256) 
[H]OC12OC([H])(C([H])=C([H])c3c([H])c([H])c([H])c([H])c3[H])C3([H])C4([H])C5=C([H])C([H])=C(n6c([H])nc([H])c6[H])C5(C([H])([H])[H])C([H])([H])C([H])([H])C4([H])C4(C([H])([H])[H])OC([H])([H])C([H])(C([H])(C([H])([H])[H])C1([H])[H])C23O4

$$$$
70:3:1
     RDKit          3D

 74 81  0  0  1  0  0  0  0  0999 V2000
    1.8128   -5.0452    8.3514 C   0  0  0  0  0  0  0  0  0  0  0  0
    2.0227   -3.5295    8.4085 C   0  0  2  0  0  0  0  0  0  0  0  0
    0.7818   -2.7542    8.8647 C   0  0  0  0  0  0  0  0  0  0  0  0
    1.1201   -1.3042    8.4830 C   0  0  2  0  0  0  0  0  0  0  0  0
    1.7576   -0.6605    9.5579 O   0  0  0  0  0  0  0  0  0  0  0  0
   -0.0310   -0.6363    8.0600 O   0  0  0  0  0  0  0  0  0  0  0  0
    0.2664    0.1565    6.9088 C   0  0  1  0  0  0  0  0  0  0  0  0
    0.9076    1.5009    7.2819 C   0  0  0  0  0  0  0  0  0  0  0  0
    0.6956    2.7177    6.7315 C   0  0  0  0  0  0  0  0  0  0  0  0
   -0.2228    3.1413    5.6472 C   0  0  0  0  0  0  0  0  0  0  0  0
   -1.4557    2.4882    5.4014 C   0  0  0  0  0  0  0  0  0  0  0  0
   -2.2370    2.8397    4.2763 C   0  0  0  0  0  0  0  0  0  0  0  0
   -1.8569    3.9032    3.4442 C   0  0  0  0  0  0  0  0  0  0  0  0
   -0.6688    4.6066    3.7186 C   0  0  0  0  0  0  0  0  0  0  0  0
    0.1519    4.2106    4.7994 C   0  0  0  0  0  0  0  0  0  0  0  0
    1.1570   -0.8155    6.1250 C   0  0  1  0  0  0  0  0  0  0  0  0
    1.9172   -0.2750    4.8813 C   0  0  2  0  0  0  0  0  0  0  0  0
    2.0160   -1.2307    3.6780 C   0  0  0  0  0  0  0  0  0  0  0  0
    1.5734   -2.4872    3.5183 C   0  0  0  0  0  0  0  0  0  0  0  0
    2.0499   -3.0101    2.2581 C   0  0  0  0  0  0  0  0  0  0  0  0
    2.7684   -2.0557    1.6512 C   0  0  0  0  0  0  0  0  0  0  0  0
    3.4186   -2.1726    0.4066 N   0  0  0  0  0  0  0  0  0  0  0  0
    3.3083   -3.2995   -0.4037 C   0  0  0  0  0  0  0  0  0  0  0  0
    4.0694   -3.0290   -1.5315 C   0  0  0  0  0  0  0  0  0  0  0  0
    4.6449   -1.7973   -1.4420 N   0  0  0  0  0  0  0  0  0  0  0  0
    4.2183   -1.3091   -0.2874 C   0  0  0  0  0  0  0  0  0  0  0  0
    2.8099   -0.7652    2.4613 C   0  0  1  0  0  0  0  0  0  0  0  0
    2.0533    0.3681    1.7410 C   0  0  0  0  0  0  0  0  0  0  0  0
    4.2296   -0.3730    2.9324 C   0  0  0  0  0  0  0  0  0  0  0  0
    4.2111    0.6650    4.0626 C   0  0  0  0  0  0  0  0  0  0  0  0
    3.3213    0.2847    5.2716 C   0  0  2  0  0  0  0  0  0  0  0  0
    4.0152   -0.6612    6.2804 C   0  0  2  0  0  0  0  0  0  0  0  0
    5.3997   -0.2002    6.7511 C   0  0  0  0  0  0  0  0  0  0  0  0
    4.1337   -1.9452    5.7063 O   0  0  0  0  0  0  0  0  0  0  0  0
    3.8174   -3.0335    6.5782 C   0  0  0  0  0  0  0  0  0  0  0  0
    2.3632   -2.8907    7.0549 C   0  0  2  0  0  0  0  0  0  0  0  0
    2.0248   -1.4053    7.2310 C   0  0  2  0  0  0  0  0  0  0  0  0
    3.2196   -0.6519    7.4202 O   0  0  0  0  0  0  0  0  0  0  0  0
    1.0088   -5.3069    7.6646 H   0  0  0  0  0  0  0  0  0  0  0  0
    1.5644   -5.4391    9.3350 H   0  0  0  0  0  0  0  0  0  0  0  0
    2.7215   -5.5377    8.0104 H   0  0  0  0  0  0  0  0  0  0  0  0
    2.8244   -3.2992    9.1091 H   0  0  0  0  0  0  0  0  0  0  0  0
   -0.1087   -3.0862    8.3194 H   0  0  0  0  0  0  0  0  0  0  0  0
    0.5821   -2.8329    9.9323 H   0  0  0  0  0  0  0  0  0  0  0  0
    1.1796   -0.7203   10.3189 H   0  0  0  0  0  0  0  0  0  0  0  0
   -0.6465    0.2508    6.3350 H   0  0  0  0  0  0  0  0  0  0  0  0
    1.6299    1.4711    8.0786 H   0  0  0  0  0  0  0  0  0  0  0  0
    1.2825    3.5181    7.1482 H   0  0  0  0  0  0  0  0  0  0  0  0
   -1.8359    1.7277    6.0647 H   0  0  0  0  0  0  0  0  0  0  0  0
   -3.1331    2.2776    4.0568 H   0  0  0  0  0  0  0  0  0  0  0  0
   -2.4958    4.1834    2.6089 H   0  0  0  0  0  0  0  0  0  0  0  0
   -0.3764    5.4445    3.0818 H   0  0  0  0  0  0  0  0  0  0  0  0
    1.0814    4.7481    4.9723 H   0  0  0  0  0  0  0  0  0  0  0  0
    0.4525   -1.5695    5.7810 H   0  0  0  0  0  0  0  0  0  0  0  0
    1.3424    0.5577    4.4916 H   0  0  0  0  0  0  0  0  0  0  0  0
    1.0154   -3.0518    4.2484 H   0  0  0  0  0  0  0  0  0  0  0  0
    1.8628   -4.0257    1.9043 H   0  0  0  0  0  0  0  0  0  0  0  0
    2.7148   -4.1818   -0.1663 H   0  0  0  0  0  0  0  0  0  0  0  0
    4.2300   -3.6554   -2.4181 H   0  0  0  0  0  0  0  0  0  0  0  0
    4.4799   -0.3190    0.0428 H   0  0  0  0  0  0  0  0  0  0  0  0
    1.0619    0.0358    1.4315 H   0  0  0  0  0  0  0  0  0  0  0  0
    2.5849    0.6748    0.8502 H   0  0  0  0  0  0  0  0  0  0  0  0
    1.9214    1.2596    2.3563 H   0  0  0  0  0  0  0  0  0  0  0  0
    4.7521   -1.2638    3.2755 H   0  0  0  0  0  0  0  0  0  0  0  0
    4.8300    0.0365    2.1231 H   0  0  0  0  0  0  0  0  0  0  0  0
    5.2290    0.9287    4.3599 H   0  0  0  0  0  0  0  0  0  0  0  0
    3.8101    1.5846    3.6432 H   0  0  0  0  0  0  0  0  0  0  0  0
    3.1667    1.2222    5.8144 H   0  0  0  0  0  0  0  0  0  0  0  0
    5.7287   -0.8187    7.5867 H   0  0  0  0  0  0  0  0  0  0  0  0
    5.3448    0.8333    7.0945 H   0  0  0  0  0  0  0  0  0  0  0  0
    6.1378   -0.2817    5.9521 H   0  0  0  0  0  0  0  0  0  0  0  0
    3.9470   -3.9686    6.0376 H   0  0  0  0  0  0  0  0  0  0  0  0
    4.5081   -3.0405    7.4236 H   0  0  0  0  0  0  0  0  0  0  0  0
    1.6925   -3.3231    6.3091 H   0  0  0  0  0  0  0  0  0  0  0  0
  1  2  1  0
  1 39  1  0
  1 40  1  0
  1 41  1  0
  2 36  1  0
  2  3  1  0
  2 42  1  1
  3  4  1  0
  3 43  1  0
  3 44  1  0
  4 37  1  0
  4  5  1  1
  4  6  1  0
  5 45  1  0
  6  7  1  0
  7  8  1  0
  7 16  1  0
  7 46  1  6
  8  9  2  3
  8 47  1  0
  9 10  1  0
  9 48  1  0
 10 15  1  0
 10 11  2  0
 11 12  1  0
 11 49  1  0
 12 13  2  0
 12 50  1  0
 13 14  1  0
 13 51  1  0
 14 15  2  0
 14 52  1  0
 15 53  1  0
 16 37  1  0
 16 17  1  0
 16 54  1  6
 17 31  1  0
 17 18  1  0
 17 55  1  6
 18 27  1  0
 18 19  2  0
 19 20  1  0
 19 56  1  0
 20 21  2  0
 20 57  1  0
 21 22  1  0
 21 27  1  0
 22 26  1  0
 22 23  1  0
 23 24  2  0
 23 58  1  0
 24 25  1  0
 24 59  1  0
 25 26  2  0
 26 60  1  0
 27 28  1  6
 27 29  1  0
 28 61  1  0
 28 62  1  0
 28 63  1  0
 29 30  1  0
 29 64  1  0
 29 65  1  0
 30 31  1  0
 30 66  1  0
 30 67  1  0
 31 32  1  0
 31 68  1  1
 32 38  1  0
 32 33  1  1
 32 34  1  0
 33 69  1  0
 33 70  1  0
 33 71  1  0
 34 35  1  0
 35 36  1  0
 35 72  1  0
 35 73  1  0
 36 37  1  0
 36 74  1  6
 37 38  1  1
M  END
>  <i_m_ct_stereo_status>  (257) 
1

>  <s_m_source_file>  (257) 
/var/tmp/pbs.5076255.sched01/tmp7qb2j_xu/82up84z1qn.sdf

>  <i_m_source_file_index>  (257) 
33

>  <i_lp_mmshare_version>  (257) 
48012

>  <i_f3d_flags>  (257) 
0

>  <s_epik_input>  (257) 
W09IXVtDQEBdMShbQ0BdMjM0KVtDSDJdW0NAQEhdKFtDSDNdKVtDQEBIXTNbQ0gyXU9bQ0BAXShPNCkoW0NIM10pW0NAQEhdNVtDQEBIXShDPTZbQ0BAXShbQ0gzXSkoW0NIMl1bQ0gyXTUpQyg9W0NIXVtDSF02KW43W2NIXVtjSF1uW2NIXTcpW0NAQEhdMltDQEBIXShPMSkvW0NIXT1bQ0hdL2M4W2NIXVtjSF1bY0hdW2NIXVtjSF04

>  <s_epik_cmdline>  (257) 
J2VwaWtfcHl0aG9uJywgJy1waHQnLCAnMi4wJywgJy1waCcsICc3LjAnLCAnLXRuJywgJzgnLCAnLW1hJywgJzIwMCcsICctaW1hZScsICc8aW5maWxlLm1hZT4nLCAnLW9tYWUnLCAnPG91dGZpbGUubWFlPic=

>  <r_epik_Ionization_Penalty>  (257) 
0.651824

>  <r_epik_Ionization_Penalty_Charging>  (257) 
0.651823

>  <r_epik_Ionization_Penalty_Neutral>  (257) 
2.36955e-07

>  <r_epik_State_Penalty>  (257) 
0.670407

>  <r_epik_Charging_Adjusted_Penalty>  (257) 
1.32223

>  <i_epik_Tot_Q>  (257) 
0

>  <i_epik_Tot_abs_Q>  (257) 
0

>  <s_lp_Force_Field>  (257) 
OPLS3e

>  <r_lp_Energy>  (257) 
52.654

>  <b_lp_Chiralities_Consistent>  (257) 
1

>  <s_lp_Variant>  (257) 
70:0-4

>  <s_i_glide_gridfile>  (257) 
pfpi4k_grid

>  <i_i_glide_lignum>  (257) 
33

>  <i_i_glide_rotatable_bonds>  (257) 
4

>  <r_i_docking_score>  (257) 
-1.73618

>  <r_i_glide_ligand_efficiency>  (257) 
-0.045689

>  <r_i_glide_ligand_efficiency_sa>  (257) 
-0.153605

>  <r_i_glide_ligand_efficiency_ln>  (257) 
-0.374372

>  <r_i_glide_gscore>  (257) 
-1.73618

>  <r_i_glide_lipo>  (257) 
-0.153001

>  <r_i_glide_hbond>  (257) 
-0.0115423

>  <r_i_glide_metal>  (257) 
-0

>  <r_i_glide_rewards>  (257) 
0

>  <r_i_glide_evdw>  (257) 
-27.3239

>  <r_i_glide_ecoul>  (257) 
-2.32382

>  <r_i_glide_erotb>  (257) 
0.23403

>  <r_i_glide_esite>  (257) 
-0.0908992

>  <r_i_glide_emodel>  (257) 
-32.7164

>  <r_i_glide_energy>  (257) 
-29.6478

>  <r_i_glide_einternal>  (257) 
0.950672

>  <r_i_glide_intrahb_reward>  (257) 
-0

>  <i_i_glide_confnum>  (257) 
1

>  <i_i_glide_posenum>  (257) 
17

>  <r_i_glide_eff_state_penalty>  (257) 
0

>  <ligand_id>  (257) 
70

>  <original_smiles>  (257) 
CC1CC2(O)OC(C=Cc3ccccc3)C3C4C5=CC=C(n6ccnc6)C5(C)CCC4C4(C)OCC1C32O4

>  <smiles>  (257) 
[H]OC12OC([H])(C([H])=C([H])c3c([H])c([H])c([H])c([H])c3[H])C3([H])C4([H])C5=C([H])C([H])=C(n6c([H])nc([H])c6[H])C5(C([H])([H])[H])C([H])([H])C([H])([H])C4([H])C4(C([H])([H])[H])OC([H])([H])C([H])(C([H])(C([H])([H])[H])C1([H])[H])C23O4

$$$$
70:3:2
     RDKit          3D

 74 81  0  0  1  0  0  0  0  0999 V2000
    6.6110   -2.1759    7.2299 C   0  0  0  0  0  0  0  0  0  0  0  0
    5.1847   -2.7022    7.4333 C   0  0  2  0  0  0  0  0  0  0  0  0
    4.8909   -3.9944    6.6633 C   0  0  0  0  0  0  0  0  0  0  0  0
    3.3623   -4.0838    6.7012 C   0  0  2  0  0  0  0  0  0  0  0  0
    2.9531   -4.8311    7.8282 O   0  0  0  0  0  0  0  0  0  0  0  0
    2.8692   -4.6187    5.5121 O   0  0  0  0  0  0  0  0  0  0  0  0
    1.6761   -3.9290    5.1388 C   0  0  1  0  0  0  0  0  0  0  0  0
    0.4570   -4.4395    5.9086 C   0  0  0  0  0  0  0  0  0  0  0  0
   -0.3535   -5.4713    5.5923 C   0  0  0  0  0  0  0  0  0  0  0  0
   -0.2232   -6.4613    4.5040 C   0  0  0  0  0  0  0  0  0  0  0  0
    1.0148   -6.7356    3.8737 C   0  0  0  0  0  0  0  0  0  0  0  0
    1.1083   -7.6793    2.8471 C   0  0  0  0  0  0  0  0  0  0  0  0
   -0.0315   -8.3911    2.4437 C   0  0  0  0  0  0  0  0  0  0  0  0
   -1.2743   -8.1381    3.0574 C   0  0  0  0  0  0  0  0  0  0  0  0
   -1.3721   -7.1700    4.0764 C   0  0  0  0  0  0  0  0  0  0  0  0
    2.1218   -2.4836    5.4105 C   0  0  1  0  0  0  0  0  0  0  0  0
    1.0631   -1.3419    5.3490 C   0  0  2  0  0  0  0  0  0  0  0  0
    1.5405   -0.0088    4.7517 C   0  0  0  0  0  0  0  0  0  0  0  0
    2.7526    0.3675    4.3018 C   0  0  0  0  0  0  0  0  0  0  0  0
    2.7300    1.7747    3.9701 C   0  0  0  0  0  0  0  0  0  0  0  0
    1.4929    2.2336    4.2215 C   0  0  0  0  0  0  0  0  0  0  0  0
    1.0402    3.5669    4.0587 N   0  0  0  0  0  0  0  0  0  0  0  0
    1.8721    4.5748    3.5636 C   0  0  0  0  0  0  0  0  0  0  0  0
    1.0872    5.7158    3.5469 C   0  0  0  0  0  0  0  0  0  0  0  0
   -0.1886    5.4426    4.0333 N   0  0  0  0  0  0  0  0  0  0  0  0
   -0.1453    4.1421    4.2878 C   0  0  0  0  0  0  0  0  0  0  0  0
    0.5506    1.1487    4.7154 C   0  0  1  0  0  0  0  0  0  0  0  0
   -0.5642    0.8669    3.6831 C   0  0  0  0  0  0  0  0  0  0  0  0
    0.0311    1.3905    6.1501 C   0  0  0  0  0  0  0  0  0  0  0  0
   -0.5587    0.1266    6.7800 C   0  0  0  0  0  0  0  0  0  0  0  0
    0.3733   -1.1052    6.7291 C   0  0  2  0  0  0  0  0  0  0  0  0
    1.4306   -1.1565    7.8735 C   0  0  2  0  0  0  0  0  0  0  0  0
    0.8537   -0.9860    9.2870 C   0  0  0  0  0  0  0  0  0  0  0  0
    2.4008   -0.1606    7.6585 O   0  0  0  0  0  0  0  0  0  0  0  0
    3.7497   -0.5724    7.8782 C   0  0  0  0  0  0  0  0  0  0  0  0
    4.0865   -1.7471    6.9412 C   0  0  2  0  0  0  0  0  0  0  0  0
    2.8459   -2.6307    6.7518 C   0  0  2  0  0  0  0  0  0  0  0  0
    1.9539   -2.4438    7.8412 O   0  0  0  0  0  0  0  0  0  0  0  0
    6.7985   -1.9731    6.1770 H   0  0  0  0  0  0  0  0  0  0  0  0
    7.3540   -2.8975    7.5717 H   0  0  0  0  0  0  0  0  0  0  0  0
    6.7647   -1.2488    7.7826 H   0  0  0  0  0  0  0  0  0  0  0  0
    5.0311   -2.9058    8.4924 H   0  0  0  0  0  0  0  0  0  0  0  0
    5.2199   -3.9162    5.6285 H   0  0  0  0  0  0  0  0  0  0  0  0
    5.3525   -4.8783    7.1041 H   0  0  0  0  0  0  0  0  0  0  0  0
    3.3848   -5.6717    7.7899 H   0  0  0  0  0  0  0  0  0  0  0  0
    1.4960   -4.0457    4.0730 H   0  0  0  0  0  0  0  0  0  0  0  0
    0.2096   -3.9143    6.8126 H   0  0  0  0  0  0  0  0  0  0  0  0
   -1.1982   -5.6135    6.2452 H   0  0  0  0  0  0  0  0  0  0  0  0
    1.9338   -6.2737    4.1821 H   0  0  0  0  0  0  0  0  0  0  0  0
    2.0685   -7.8564    2.3962 H   0  0  0  0  0  0  0  0  0  0  0  0
    0.0625   -9.1399    1.6744 H   0  0  0  0  0  0  0  0  0  0  0  0
   -2.1445   -8.6944    2.7500 H   0  0  0  0  0  0  0  0  0  0  0  0
   -2.3292   -6.9923    4.5513 H   0  0  0  0  0  0  0  0  0  0  0  0
    2.8612   -2.3020    4.6292 H   0  0  0  0  0  0  0  0  0  0  0  0
    0.2928   -1.6755    4.6535 H   0  0  0  0  0  0  0  0  0  0  0  0
    3.6324   -0.2546    4.2495 H   0  0  0  0  0  0  0  0  0  0  0  0
    3.5784    2.3430    3.6127 H   0  0  0  0  0  0  0  0  0  0  0  0
    2.8986    4.4363    3.2518 H   0  0  0  0  0  0  0  0  0  0  0  0
    1.3362    6.7174    3.2118 H   0  0  0  0  0  0  0  0  0  0  0  0
   -1.0160    3.6313    4.6525 H   0  0  0  0  0  0  0  0  0  0  0  0
   -0.1298    0.7009    2.6963 H   0  0  0  0  0  0  0  0  0  0  0  0
   -1.2651    1.6936    3.5882 H   0  0  0  0  0  0  0  0  0  0  0  0
   -1.1494   -0.0191    3.9286 H   0  0  0  0  0  0  0  0  0  0  0  0
    0.8487    1.7360    6.7825 H   0  0  0  0  0  0  0  0  0  0  0  0
   -0.7319    2.1633    6.1888 H   0  0  0  0  0  0  0  0  0  0  0  0
   -0.9156    0.3280    7.7908 H   0  0  0  0  0  0  0  0  0  0  0  0
   -1.4540   -0.1316    6.2103 H   0  0  0  0  0  0  0  0  0  0  0  0
   -0.3078   -1.9272    6.9268 H   0  0  0  0  0  0  0  0  0  0  0  0
    1.6237   -1.2090   10.0261 H   0  0  0  0  0  0  0  0  0  0  0  0
    0.0323   -1.6850    9.4421 H   0  0  0  0  0  0  0  0  0  0  0  0
    0.5083    0.0332    9.4519 H   0  0  0  0  0  0  0  0  0  0  0  0
    4.4147    0.2683    7.6790 H   0  0  0  0  0  0  0  0  0  0  0  0
    3.8823   -0.8545    8.9239 H   0  0  0  0  0  0  0  0  0  0  0  0
    4.3967   -1.3612    5.9720 H   0  0  0  0  0  0  0  0  0  0  0  0
  1  2  1  0
  1 39  1  0
  1 40  1  0
  1 41  1  0
  2 36  1  0
  2  3  1  0
  2 42  1  1
  3  4  1  0
  3 43  1  0
  3 44  1  0
  4 37  1  0
  4  5  1  1
  4  6  1  0
  5 45  1  0
  6  7  1  0
  7  8  1  0
  7 16  1  0
  7 46  1  6
  8  9  2  3
  8 47  1  0
  9 10  1  0
  9 48  1  0
 10 15  1  0
 10 11  2  0
 11 12  1  0
 11 49  1  0
 12 13  2  0
 12 50  1  0
 13 14  1  0
 13 51  1  0
 14 15  2  0
 14 52  1  0
 15 53  1  0
 16 37  1  0
 16 17  1  0
 16 54  1  6
 17 31  1  0
 17 18  1  0
 17 55  1  6
 18 27  1  0
 18 19  2  0
 19 20  1  0
 19 56  1  0
 20 21  2  0
 20 57  1  0
 21 22  1  0
 21 27  1  0
 22 26  1  0
 22 23  1  0
 23 24  2  0
 23 58  1  0
 24 25  1  0
 24 59  1  0
 25 26  2  0
 26 60  1  0
 27 28  1  6
 27 29  1  0
 28 61  1  0
 28 62  1  0
 28 63  1  0
 29 30  1  0
 29 64  1  0
 29 65  1  0
 30 31  1  0
 30 66  1  0
 30 67  1  0
 31 32  1  0
 31 68  1  1
 32 38  1  0
 32 33  1  1
 32 34  1  0
 33 69  1  0
 33 70  1  0
 33 71  1  0
 34 35  1  0
 35 36  1  0
 35 72  1  0
 35 73  1  0
 36 37  1  0
 36 74  1  6
 37 38  1  1
M  END
>  <i_m_ct_stereo_status>  (258) 
1

>  <s_m_source_file>  (258) 
/var/tmp/pbs.5076255.sched01/tmp7qb2j_xu/82up84z1qn.sdf

>  <i_m_source_file_index>  (258) 
33

>  <i_lp_mmshare_version>  (258) 
48012

>  <i_f3d_flags>  (258) 
0

>  <s_epik_input>  (258) 
W09IXVtDQEBdMShbQ0BdMjM0KVtDSDJdW0NAQEhdKFtDSDNdKVtDQEBIXTNbQ0gyXU9bQ0BAXShPNCkoW0NIM10pW0NAQEhdNVtDQEBIXShDPTZbQ0BAXShbQ0gzXSkoW0NIMl1bQ0gyXTUpQyg9W0NIXVtDSF02KW43W2NIXVtjSF1uW2NIXTcpW0NAQEhdMltDQEBIXShPMSkvW0NIXT1bQ0hdL2M4W2NIXVtjSF1bY0hdW2NIXVtjSF04

>  <s_epik_cmdline>  (258) 
J2VwaWtfcHl0aG9uJywgJy1waHQnLCAnMi4wJywgJy1waCcsICc3LjAnLCAnLXRuJywgJzgnLCAnLW1hJywgJzIwMCcsICctaW1hZScsICc8aW5maWxlLm1hZT4nLCAnLW9tYWUnLCAnPG91dGZpbGUubWFlPic=

>  <r_epik_Ionization_Penalty>  (258) 
0.651824

>  <r_epik_Ionization_Penalty_Charging>  (258) 
0.651823

>  <r_epik_Ionization_Penalty_Neutral>  (258) 
2.36955e-07

>  <r_epik_State_Penalty>  (258) 
0.670407

>  <r_epik_Charging_Adjusted_Penalty>  (258) 
1.32223

>  <i_epik_Tot_Q>  (258) 
0

>  <i_epik_Tot_abs_Q>  (258) 
0

>  <s_lp_Force_Field>  (258) 
OPLS3e

>  <r_lp_Energy>  (258) 
52.654

>  <b_lp_Chiralities_Consistent>  (258) 
1

>  <s_lp_Variant>  (258) 
70:0-4

>  <s_i_glide_gridfile>  (258) 
pfpi4k_grid

>  <i_i_glide_lignum>  (258) 
33

>  <i_i_glide_rotatable_bonds>  (258) 
4

>  <r_i_docking_score>  (258) 
-1.5378

>  <r_i_glide_ligand_efficiency>  (258) 
-0.0404685

>  <r_i_glide_ligand_efficiency_sa>  (258) 
-0.136054

>  <r_i_glide_ligand_efficiency_ln>  (258) 
-0.331596

>  <r_i_glide_gscore>  (258) 
-1.5378

>  <r_i_glide_lipo>  (258) 
-0.0341212

>  <r_i_glide_hbond>  (258) 
-0.00348428

>  <r_i_glide_metal>  (258) 
-0

>  <r_i_glide_rewards>  (258) 
0

>  <r_i_glide_evdw>  (258) 
-26.0479

>  <r_i_glide_ecoul>  (258) 
-2.16692

>  <r_i_glide_erotb>  (258) 
0.23403

>  <r_i_glide_esite>  (258) 
-0.106793

>  <r_i_glide_emodel>  (258) 
-30.4699

>  <r_i_glide_energy>  (258) 
-28.2149

>  <r_i_glide_einternal>  (258) 
1.94554

>  <r_i_glide_intrahb_reward>  (258) 
-0

>  <i_i_glide_confnum>  (258) 
1

>  <i_i_glide_posenum>  (258) 
27

>  <r_i_glide_eff_state_penalty>  (258) 
0

>  <ligand_id>  (258) 
70

>  <original_smiles>  (258) 
CC1CC2(O)OC(C=Cc3ccccc3)C3C4C5=CC=C(n6ccnc6)C5(C)CCC4C4(C)OCC1C32O4

>  <smiles>  (258) 
[H]OC12OC([H])(C([H])=C([H])c3c([H])c([H])c([H])c([H])c3[H])C3([H])C4([H])C5=C([H])C([H])=C(n6c([H])nc([H])c6[H])C5(C([H])([H])[H])C([H])([H])C([H])([H])C4([H])C4(C([H])([H])[H])OC([H])([H])C([H])(C([H])(C([H])([H])[H])C1([H])[H])C23O4

$$$$
71:0:0
     RDKit          3D

 67 72  0  0  1  0  0  0  0  0999 V2000
    3.7380   -4.4809    6.0309 C   0  0  0  0  0  0  0  0  0  0  0  0
    4.3788   -5.2791    5.0226 O   0  0  0  0  0  0  0  0  0  0  0  0
    3.9035   -5.3423    3.6593 C   0  0  2  0  0  0  0  0  0  0  0  0
    3.7714   -3.9009    3.0603 C   0  0  0  0  0  0  0  0  0  0  0  0
    4.6809   -3.3136    1.9041 C   0  0  2  0  0  0  0  0  0  0  0  0
    6.1226   -3.2597    2.4796 C   0  0  0  0  0  0  0  0  0  0  0  0
    4.1857   -1.8259    1.8043 C   0  0  2  0  0  0  0  0  0  0  0  0
    2.6910   -1.4184    1.7822 C   0  0  1  0  0  0  0  0  0  0  0  0
    2.0447   -1.1168    3.0019 O   0  0  0  0  0  0  0  0  0  0  0  0
    3.1053   -0.2198    0.9409 C   0  0  0  0  0  0  0  0  0  0  0  0
    4.3642   -0.9987    0.5285 C   0  0  1  0  0  0  0  0  0  0  0  0
    5.5498   -0.2199    0.5484 O   0  0  0  0  0  0  0  0  0  0  0  0
    4.3711   -1.7598   -0.7938 C   0  0  2  0  0  0  0  0  0  0  0  0
    3.0509   -1.9730   -1.5746 C   0  0  0  0  0  0  0  0  0  0  0  0
    3.3722   -3.0497   -2.5602 C   0  0  1  0  0  0  0  0  0  0  0  0
    4.6228   -2.9212   -3.2713 O   0  0  0  0  0  0  0  0  0  0  0  0
    4.6077   -3.7553   -2.0889 C   0  0  1  0  0  0  0  0  0  0  0  0
    5.0757   -3.1540   -0.7760 C   0  0  1  0  0  0  0  0  0  0  0  0
    6.6028   -2.8912   -0.9650 C   0  0  0  0  0  0  0  0  0  0  0  0
    4.6748   -4.1045    0.4974 C   0  0  1  0  0  0  0  0  0  0  0  0
    5.7080   -5.2855    0.4789 C   0  0  0  0  0  0  0  0  0  0  0  0
    3.2353   -4.7522    0.3118 C   0  0  0  0  0  0  0  0  0  0  0  0
    2.8721   -6.1467    0.9043 C   0  0  0  0  0  0  0  0  0  0  0  0
    1.9457   -6.1429    2.1368 C   0  0  1  0  0  0  0  0  0  0  0  0
    0.9014   -7.0985    1.9362 O   0  0  0  0  0  0  0  0  0  0  0  0
    1.3328   -8.7321    2.2457 S   0  0  0  0  0  0  0  0  0  0  0  0
    2.3776   -9.1442    1.2178 O   0  0  0  0  0  0  0  0  0  0  0  0
    2.1031   -8.7040    3.7625 O   0  0  0  0  0  0  0  0  0  0  0  0
    3.1382   -7.7400    3.8236 C   0  0  0  0  0  0  0  0  0  0  0  0
    2.6349   -6.2868    3.5438 C   0  0  1  0  0  0  0  0  0  0  0  0
    1.5353   -5.9619    4.5799 C   0  0  0  0  0  0  0  0  0  0  0  0
    4.3597   -4.5293    6.9346 H   0  0  0  0  0  0  0  0  0  0  0  0
    2.7714   -4.8115    6.3249 H   0  0  0  0  0  0  0  0  0  0  0  0
    3.6441   -3.4505    5.7172 H   0  0  0  0  0  0  0  0  0  0  0  0
    4.7146   -5.8437    3.1191 H   0  0  0  0  0  0  0  0  0  0  0  0
    2.7255   -3.7477    2.8178 H   0  0  0  0  0  0  0  0  0  0  0  0
    3.9473   -3.1881    3.8436 H   0  0  0  0  0  0  0  0  0  0  0  0
    6.8259   -2.7757    1.8099 H   0  0  0  0  0  0  0  0  0  0  0  0
    6.5163   -4.2521    2.7112 H   0  0  0  0  0  0  0  0  0  0  0  0
    6.1598   -2.6758    3.3958 H   0  0  0  0  0  0  0  0  0  0  0  0
    4.6008   -1.2558    2.6329 H   0  0  0  0  0  0  0  0  0  0  0  0
    2.0733   -2.0968    1.2133 H   0  0  0  0  0  0  0  0  0  0  0  0
    2.1086   -0.1882    3.1336 H   0  0  0  0  0  0  0  0  0  0  0  0
    2.4236   -0.0110    0.1224 H   0  0  0  0  0  0  0  0  0  0  0  0
    3.3055    0.6845    1.5153 H   0  0  0  0  0  0  0  0  0  0  0  0
    5.3777    0.5595    0.0336 H   0  0  0  0  0  0  0  0  0  0  0  0
    4.9240   -1.1438   -1.5043 H   0  0  0  0  0  0  0  0  0  0  0  0
    2.2481   -2.3296   -0.9362 H   0  0  0  0  0  0  0  0  0  0  0  0
    2.7262   -1.0650   -2.0838 H   0  0  0  0  0  0  0  0  0  0  0  0
    2.5770   -3.5728   -3.0767 H   0  0  0  0  0  0  0  0  0  0  0  0
    4.8082   -4.7958   -2.3134 H   0  0  0  0  0  0  0  0  0  0  0  0
    7.1833   -3.7991   -1.1342 H   0  0  0  0  0  0  0  0  0  0  0  0
    7.0616   -2.3271   -0.1621 H   0  0  0  0  0  0  0  0  0  0  0  0
    6.7704   -2.2951   -1.8624 H   0  0  0  0  0  0  0  0  0  0  0  0
    5.6459   -5.8380   -0.4524 H   0  0  0  0  0  0  0  0  0  0  0  0
    5.5930   -6.0143    1.2732 H   0  0  0  0  0  0  0  0  0  0  0  0
    6.7394   -4.9554    0.5875 H   0  0  0  0  0  0  0  0  0  0  0  0
    2.4522   -4.0446    0.5628 H   0  0  0  0  0  0  0  0  0  0  0  0
    3.0499   -4.9340   -0.7262 H   0  0  0  0  0  0  0  0  0  0  0  0
    2.2750   -6.6254    0.1314 H   0  0  0  0  0  0  0  0  0  0  0  0
    3.6982   -6.8394    1.0315 H   0  0  0  0  0  0  0  0  0  0  0  0
    1.3798   -5.2096    2.1274 H   0  0  0  0  0  0  0  0  0  0  0  0
    3.5626   -7.8063    4.8291 H   0  0  0  0  0  0  0  0  0  0  0  0
    3.9225   -8.0359    3.1226 H   0  0  0  0  0  0  0  0  0  0  0  0
    0.6033   -6.4825    4.3976 H   0  0  0  0  0  0  0  0  0  0  0  0
    1.3253   -4.8938    4.5829 H   0  0  0  0  0  0  0  0  0  0  0  0
    1.8631   -6.2665    5.5633 H   0  0  0  0  0  0  0  0  0  0  0  0
  1  2  1  0
  1 32  1  0
  1 33  1  0
  1 34  1  0
  2  3  1  0
  3 30  1  0
  3  4  1  0
  3 35  1  6
  4  5  1  0
  4 36  1  0
  4 37  1  0
  5 20  1  0
  5  6  1  1
  5  7  1  0
  6 38  1  0
  6 39  1  0
  6 40  1  0
  7 11  1  0
  7  8  1  0
  7 41  1  1
  8  9  1  0
  8 10  1  0
  8 42  1  6
  9 43  1  0
 10 11  1  0
 10 44  1  0
 10 45  1  0
 11 12  1  1
 11 13  1  0
 12 46  1  0
 13 18  1  0
 13 14  1  0
 13 47  1  6
 14 15  1  0
 14 48  1  0
 14 49  1  0
 15 17  1  0
 15 16  1  0
 15 50  1  6
 16 17  1  0
 17 18  1  0
 17 51  1  6
 18 19  1  6
 18 20  1  0
 19 52  1  0
 19 53  1  0
 19 54  1  0
 20 21  1  1
 20 22  1  0
 21 55  1  0
 21 56  1  0
 21 57  1  0
 22 23  1  0
 22 58  1  0
 22 59  1  0
 23 24  1  0
 23 60  1  0
 23 61  1  0
 24 30  1  0
 24 25  1  0
 24 62  1  1
 26 25  1  6
 26 27  2  0
 26 28  1  0
 28 29  1  0
 29 30  1  0
 29 63  1  0
 29 64  1  0
 30 31  1  1
 31 65  1  0
 31 66  1  0
 31 67  1  0
M  END
>  <i_m_ct_stereo_status>  (259) 
1

>  <s_m_source_file>  (259) 
/var/tmp/pbs.5076255.sched01/tmp7qb2j_xu/82up84z1qn.sdf

>  <i_m_source_file_index>  (259) 
34

>  <i_lp_mmshare_version>  (259) 
48012

>  <i_f3d_flags>  (259) 
0

>  <s_epik_input>  (259) 
TzFbU0BAXSg9TylPW0NIMl1bQ0BAXShbQ0gzXSkoW0NAQEhdKFtDSDJdMilPW0NIM10pW0NASF0xW0NIMl1bQ0gyXVtDQEBdMyhbQ0gzXSlbQ0BAXShbQ0gzXSkoW0NASF00W0NASF0oTzQpW0NIMl01KVtDQEBIXTVbQ0BdKFtPSF0pKFtDQEBIXTZbQ0BAXTIzW0NIM10pW0NIMl1bQ0BASF02W09IXQ==

>  <s_epik_cmdline>  (259) 
J2VwaWtfcHl0aG9uJywgJy1waHQnLCAnMi4wJywgJy1waCcsICc3LjAnLCAnLXRuJywgJzgnLCAnLW1hJywgJzIwMCcsICctaW1hZScsICc8aW5maWxlLm1hZT4nLCAnLW9tYWUnLCAnPG91dGZpbGUubWFlPic=

>  <r_lp_tautomer_probability>  (259) 
1

>  <r_epik_Ionization_Penalty>  (259) 
2.8886e-06

>  <r_epik_Ionization_Penalty_Charging>  (259) 
0

>  <r_epik_Ionization_Penalty_Neutral>  (259) 
2.8886e-06

>  <r_epik_State_Penalty>  (259) 
-0

>  <r_epik_Charging_Adjusted_Penalty>  (259) 
0

>  <i_epik_Tot_Q>  (259) 
0

>  <i_epik_Tot_abs_Q>  (259) 
0

>  <s_lp_Force_Field>  (259) 
OPLS3e

>  <r_lp_Energy>  (259) 
93.4721

>  <b_lp_Chiralities_Consistent>  (259) 
1

>  <s_lp_Variant>  (259) 
71:0-1

>  <s_i_glide_gridfile>  (259) 
pfpi4k_grid

>  <i_i_glide_lignum>  (259) 
34

>  <i_i_glide_rotatable_bonds>  (259) 
3

>  <r_i_docking_score>  (259) 
-2.83045

>  <r_i_glide_ligand_efficiency>  (259) 
-0.0913049

>  <r_i_glide_ligand_efficiency_sa>  (259) 
-0.286823

>  <r_i_glide_ligand_efficiency_ln>  (259) 
-0.638354

>  <r_i_glide_gscore>  (259) 
-2.83045

>  <r_i_glide_lipo>  (259) 
-0.244989

>  <r_i_glide_hbond>  (259) 
-0.32522

>  <r_i_glide_metal>  (259) 
-0

>  <r_i_glide_rewards>  (259) 
-0.295952

>  <r_i_glide_evdw>  (259) 
-18.5016

>  <r_i_glide_ecoul>  (259) 
-6.87142

>  <r_i_glide_erotb>  (259) 
0

>  <r_i_glide_esite>  (259) 
-0.00849618

>  <r_i_glide_emodel>  (259) 
-17.3379

>  <r_i_glide_energy>  (259) 
-25.3731

>  <r_i_glide_einternal>  (259) 
21.9366

>  <r_i_glide_intrahb_reward>  (259) 
-0

>  <i_i_glide_confnum>  (259) 
1

>  <i_i_glide_posenum>  (259) 
35

>  <r_i_glide_eff_state_penalty>  (259) 
0

>  <ligand_id>  (259) 
71

>  <original_smiles>  (259) 
COC1CC2(C)C3C(O)CC3(O)C3CC4OC4C3(C)C2(C)CCC2OS(=O)OCC12C

>  <smiles>  (259) 
[H]OC1([H])C([H])([H])C2(O[H])C1([H])C1(C([H])([H])[H])C([H])([H])C([H])(OC([H])([H])[H])C3(C([H])([H])[H])C([H])([H])OS(=O)OC3([H])C([H])([H])C([H])([H])C1(C([H])([H])[H])C1(C([H])([H])[H])C3([H])OC3([H])C([H])([H])C21[H]

$$$$
71:0:1
     RDKit          3D

 67 72  0  0  1  0  0  0  0  0999 V2000
    3.9314   -4.7871    6.5361 C   0  0  0  0  0  0  0  0  0  0  0  0
    2.7256   -5.1704    5.8935 O   0  0  0  0  0  0  0  0  0  0  0  0
    2.7435   -5.2296    4.4641 C   0  0  2  0  0  0  0  0  0  0  0  0
    2.7990   -3.8020    3.8365 C   0  0  0  0  0  0  0  0  0  0  0  0
    4.0119   -3.3077    2.9504 C   0  0  2  0  0  0  0  0  0  0  0  0
    5.2377   -3.2484    3.8930 C   0  0  0  0  0  0  0  0  0  0  0  0
    3.6432   -1.8220    2.6224 C   0  0  2  0  0  0  0  0  0  0  0  0
    2.2459   -1.3608    2.1487 C   0  0  1  0  0  0  0  0  0  0  0  0
    1.3133   -0.9488    3.1255 O   0  0  0  0  0  0  0  0  0  0  0  0
    2.9526   -0.2381    1.4078 C   0  0  0  0  0  0  0  0  0  0  0  0
    4.2300   -1.0832    1.4108 C   0  0  1  0  0  0  0  0  0  0  0  0
    5.3640   -0.3002    1.7193 O   0  0  0  0  0  0  0  0  0  0  0  0
    4.5814   -1.9195    0.1736 C   0  0  2  0  0  0  0  0  0  0  0  0
    3.5214   -2.1026   -0.9387 C   0  0  0  0  0  0  0  0  0  0  0  0
    4.0641   -3.2517   -1.7414 C   0  0  1  0  0  0  0  0  0  0  0  0
    5.4639   -3.2264   -2.0673 O   0  0  0  0  0  0  0  0  0  0  0  0
    5.0558   -3.9785   -0.9107 C   0  0  1  0  0  0  0  0  0  0  0  0
    5.1711   -3.3318    0.4743 C   0  0  1  0  0  0  0  0  0  0  0  0
    6.6967   -3.1340    0.6988 C   0  0  0  0  0  0  0  0  0  0  0  0
    4.3711   -4.1782    1.6239 C   0  0  1  0  0  0  0  0  0  0  0  0
    5.3123   -5.3894    1.9368 C   0  0  0  0  0  0  0  0  0  0  0  0
    3.0280   -4.7967    1.0385 C   0  0  0  0  0  0  0  0  0  0  0  0
    2.4341   -6.1341    1.5767 C   0  0  0  0  0  0  0  0  0  0  0  0
    1.2105   -6.0172    2.5112 C   0  0  1  0  0  0  0  0  0  0  0  0
    0.2049   -6.9230    2.0673 O   0  0  0  0  0  0  0  0  0  0  0  0
    0.4681   -8.5461    2.5480 S   0  0  0  0  0  0  0  0  0  0  0  0
    1.7209   -9.0714    1.8518 O   0  0  0  0  0  0  0  0  0  0  0  0
    0.7706   -8.4778    4.2186 O   0  0  0  0  0  0  0  0  0  0  0  0
    1.7934   -7.5552    4.5309 C   0  0  0  0  0  0  0  0  0  0  0  0
    1.4974   -6.0954    4.0555 C   0  0  1  0  0  0  0  0  0  0  0  0
    0.2231   -5.5890    4.7780 C   0  0  0  0  0  0  0  0  0  0  0  0
    3.8411   -4.9711    7.6053 H   0  0  0  0  0  0  0  0  0  0  0  0
    4.1256   -3.7230    6.4226 H   0  0  0  0  0  0  0  0  0  0  0  0
    4.7947   -5.3504    6.1818 H   0  0  0  0  0  0  0  0  0  0  0  0
    3.6325   -5.7855    4.1998 H   0  0  0  0  0  0  0  0  0  0  0  0
    1.8777   -3.6290    3.2955 H   0  0  0  0  0  0  0  0  0  0  0  0
    2.6954   -3.1015    4.6625 H   0  0  0  0  0  0  0  0  0  0  0  0
    6.0907   -2.8180    3.3960 H   0  0  0  0  0  0  0  0  0  0  0  0
    5.5348   -4.2253    4.2736 H   0  0  0  0  0  0  0  0  0  0  0  0
    5.0668   -2.6148    4.7605 H   0  0  0  0  0  0  0  0  0  0  0  0
    3.8379   -1.2049    3.5047 H   0  0  0  0  0  0  0  0  0  0  0  0
    1.7661   -2.0355    1.4478 H   0  0  0  0  0  0  0  0  0  0  0  0
    0.7125   -0.3703    2.6777 H   0  0  0  0  0  0  0  0  0  0  0  0
    2.5336   -0.0497    0.4283 H   0  0  0  0  0  0  0  0  0  0  0  0
    3.0386    0.6811    1.9913 H   0  0  0  0  0  0  0  0  0  0  0  0
    5.9430   -0.8440    2.2295 H   0  0  0  0  0  0  0  0  0  0  0  0
    5.3441   -1.3557   -0.3656 H   0  0  0  0  0  0  0  0  0  0  0  0
    2.5543   -2.4003   -0.5477 H   0  0  0  0  0  0  0  0  0  0  0  0
    3.3865   -1.2191   -1.5605 H   0  0  0  0  0  0  0  0  0  0  0  0
    3.4091   -3.7930   -2.4237 H   0  0  0  0  0  0  0  0  0  0  0  0
    5.2178   -5.0517   -1.0150 H   0  0  0  0  0  0  0  0  0  0  0  0
    7.2580   -4.0639    0.7413 H   0  0  0  0  0  0  0  0  0  0  0  0
    6.9420   -2.5364    1.5703 H   0  0  0  0  0  0  0  0  0  0  0  0
    7.1424   -2.5946   -0.1376 H   0  0  0  0  0  0  0  0  0  0  0  0
    5.4954   -5.9915    1.0475 H   0  0  0  0  0  0  0  0  0  0  0  0
    4.9499   -6.0737    2.6887 H   0  0  0  0  0  0  0  0  0  0  0  0
    6.2857   -5.0938    2.3186 H   0  0  0  0  0  0  0  0  0  0  0  0
    2.2459   -4.0468    1.0213 H   0  0  0  0  0  0  0  0  0  0  0  0
    3.1428   -5.0390   -0.0115 H   0  0  0  0  0  0  0  0  0  0  0  0
    2.0721   -6.6449    0.6821 H   0  0  0  0  0  0  0  0  0  0  0  0
    3.1596   -6.8439    1.9626 H   0  0  0  0  0  0  0  0  0  0  0  0
    0.7325   -5.0651    2.3042 H   0  0  0  0  0  0  0  0  0  0  0  0
    1.9243   -7.5867    5.6128 H   0  0  0  0  0  0  0  0  0  0  0  0
    2.7261   -7.9211    4.1000 H   0  0  0  0  0  0  0  0  0  0  0  0
   -0.6592   -6.1609    4.4865 H   0  0  0  0  0  0  0  0  0  0  0  0
    0.0228   -4.5407    4.5552 H   0  0  0  0  0  0  0  0  0  0  0  0
    0.3084   -5.6785    5.8607 H   0  0  0  0  0  0  0  0  0  0  0  0
  1  2  1  0
  1 32  1  0
  1 33  1  0
  1 34  1  0
  2  3  1  0
  3 30  1  0
  3  4  1  0
  3 35  1  1
  4  5  1  0
  4 36  1  0
  4 37  1  0
  5 20  1  0
  5  6  1  1
  5  7  1  0
  6 38  1  0
  6 39  1  0
  6 40  1  0
  7 11  1  0
  7  8  1  0
  7 41  1  1
  8  9  1  0
  8 10  1  0
  8 42  1  6
  9 43  1  0
 10 11  1  0
 10 44  1  0
 10 45  1  0
 11 12  1  1
 11 13  1  0
 12 46  1  0
 13 18  1  0
 13 14  1  0
 13 47  1  6
 14 15  1  0
 14 48  1  0
 14 49  1  0
 15 17  1  0
 15 16  1  0
 15 50  1  6
 16 17  1  0
 17 18  1  0
 17 51  1  1
 18 19  1  1
 18 20  1  0
 19 52  1  0
 19 53  1  0
 19 54  1  0
 20 21  1  1
 20 22  1  0
 21 55  1  0
 21 56  1  0
 21 57  1  0
 22 23  1  0
 22 58  1  0
 22 59  1  0
 23 24  1  0
 23 60  1  0
 23 61  1  0
 24 30  1  0
 24 25  1  0
 24 62  1  1
 26 25  1  6
 26 27  2  0
 26 28  1  0
 28 29  1  0
 29 30  1  0
 29 63  1  0
 29 64  1  0
 30 31  1  1
 31 65  1  0
 31 66  1  0
 31 67  1  0
M  END
>  <i_m_ct_stereo_status>  (260) 
1

>  <s_m_source_file>  (260) 
/var/tmp/pbs.5076255.sched01/tmp7qb2j_xu/82up84z1qn.sdf

>  <i_m_source_file_index>  (260) 
34

>  <i_lp_mmshare_version>  (260) 
48012

>  <i_f3d_flags>  (260) 
0

>  <s_epik_input>  (260) 
TzFbU0BAXSg9TylPW0NIMl1bQ0BAXShbQ0gzXSkoW0NAQEhdKFtDSDJdMilPW0NIM10pW0NASF0xW0NIMl1bQ0gyXVtDQEBdMyhbQ0gzXSlbQ0BAXShbQ0gzXSkoW0NASF00W0NASF0oTzQpW0NIMl01KVtDQEBIXTVbQ0BdKFtPSF0pKFtDQEBIXTZbQ0BAXTIzW0NIM10pW0NIMl1bQ0BASF02W09IXQ==

>  <s_epik_cmdline>  (260) 
J2VwaWtfcHl0aG9uJywgJy1waHQnLCAnMi4wJywgJy1waCcsICc3LjAnLCAnLXRuJywgJzgnLCAnLW1hJywgJzIwMCcsICctaW1hZScsICc8aW5maWxlLm1hZT4nLCAnLW9tYWUnLCAnPG91dGZpbGUubWFlPic=

>  <r_lp_tautomer_probability>  (260) 
1

>  <r_epik_Ionization_Penalty>  (260) 
2.8886e-06

>  <r_epik_Ionization_Penalty_Charging>  (260) 
0

>  <r_epik_Ionization_Penalty_Neutral>  (260) 
2.8886e-06

>  <r_epik_State_Penalty>  (260) 
-0

>  <r_epik_Charging_Adjusted_Penalty>  (260) 
0

>  <i_epik_Tot_Q>  (260) 
0

>  <i_epik_Tot_abs_Q>  (260) 
0

>  <s_lp_Force_Field>  (260) 
OPLS3e

>  <r_lp_Energy>  (260) 
93.4721

>  <b_lp_Chiralities_Consistent>  (260) 
1

>  <s_lp_Variant>  (260) 
71:0-1

>  <s_i_glide_gridfile>  (260) 
pfpi4k_grid

>  <i_i_glide_lignum>  (260) 
34

>  <i_i_glide_rotatable_bonds>  (260) 
3

>  <r_i_docking_score>  (260) 
-2.5611

>  <r_i_glide_ligand_efficiency>  (260) 
-0.0826163

>  <r_i_glide_ligand_efficiency_sa>  (260) 
-0.259529

>  <r_i_glide_ligand_efficiency_ln>  (260) 
-0.577608

>  <r_i_glide_gscore>  (260) 
-2.5611

>  <r_i_glide_lipo>  (260) 
-0.265157

>  <r_i_glide_hbond>  (260) 
-0.175457

>  <r_i_glide_metal>  (260) 
-0

>  <r_i_glide_rewards>  (260) 
-0.295952

>  <r_i_glide_evdw>  (260) 
-23.5802

>  <r_i_glide_ecoul>  (260) 
-4.09358

>  <r_i_glide_erotb>  (260) 
0

>  <r_i_glide_esite>  (260) 
-0.0314905

>  <r_i_glide_emodel>  (260) 
-30.7391

>  <r_i_glide_energy>  (260) 
-27.6738

>  <r_i_glide_einternal>  (260) 
2.25713

>  <r_i_glide_intrahb_reward>  (260) 
-0

>  <i_i_glide_confnum>  (260) 
1

>  <i_i_glide_posenum>  (260) 
8

>  <r_i_glide_eff_state_penalty>  (260) 
0

>  <ligand_id>  (260) 
71

>  <original_smiles>  (260) 
COC1CC2(C)C3C(O)CC3(O)C3CC4OC4C3(C)C2(C)CCC2OS(=O)OCC12C

>  <smiles>  (260) 
[H]OC1([H])C([H])([H])C2(O[H])C1([H])C1(C([H])([H])[H])C([H])([H])C([H])(OC([H])([H])[H])C3(C([H])([H])[H])C([H])([H])OS(=O)OC3([H])C([H])([H])C([H])([H])C1(C([H])([H])[H])C1(C([H])([H])[H])C3([H])OC3([H])C([H])([H])C21[H]

$$$$
71:0:2
     RDKit          3D

 67 72  0  0  1  0  0  0  0  0999 V2000
    3.8385   -4.7814    6.6312 C   0  0  0  0  0  0  0  0  0  0  0  0
    2.6295   -5.1471    5.9819 O   0  0  0  0  0  0  0  0  0  0  0  0
    2.6523   -5.2062    4.5527 C   0  0  2  0  0  0  0  0  0  0  0  0
    2.7219   -3.7786    3.9286 C   0  0  0  0  0  0  0  0  0  0  0  0
    3.9412   -3.2961    3.0456 C   0  0  2  0  0  0  0  0  0  0  0  0
    5.1651   -3.2504    3.9945 C   0  0  0  0  0  0  0  0  0  0  0  0
    3.5857   -1.8074    2.7183 C   0  0  2  0  0  0  0  0  0  0  0  0
    2.1998   -1.3185    2.2337 C   0  0  1  0  0  0  0  0  0  0  0  0
    1.2682   -0.9007    3.2094 O   0  0  0  0  0  0  0  0  0  0  0  0
    2.9250   -0.2011    1.4900 C   0  0  0  0  0  0  0  0  0  0  0  0
    4.1869   -1.0745    1.5146 C   0  0  1  0  0  0  0  0  0  0  0  0
    5.3546   -0.3509    1.8372 O   0  0  0  0  0  0  0  0  0  0  0  0
    4.5319   -1.9077    0.2754 C   0  0  2  0  0  0  0  0  0  0  0  0
    3.4741   -2.0792   -0.8412 C   0  0  0  0  0  0  0  0  0  0  0  0
    4.0067   -3.2292   -1.6429 C   0  0  1  0  0  0  0  0  0  0  0  0
    5.4118   -3.2137   -1.9661 O   0  0  0  0  0  0  0  0  0  0  0  0
    4.9932   -3.9681   -0.8086 C   0  0  1  0  0  0  0  0  0  0  0  0
    5.1085   -3.3258    0.5722 C   0  0  1  0  0  0  0  0  0  0  0  0
    6.6362   -3.1414    0.8043 C   0  0  0  0  0  0  0  0  0  0  0  0
    4.2993   -4.1673    1.7201 C   0  0  1  0  0  0  0  0  0  0  0  0
    5.2267   -5.3882    2.0332 C   0  0  0  0  0  0  0  0  0  0  0  0
    2.9525   -4.7706    1.1306 C   0  0  0  0  0  0  0  0  0  0  0  0
    2.3425   -6.1046    1.6642 C   0  0  0  0  0  0  0  0  0  0  0  0
    1.1189   -5.9788    2.5972 C   0  0  1  0  0  0  0  0  0  0  0  0
    0.1012   -6.8717    2.1489 O   0  0  0  0  0  0  0  0  0  0  0  0
    0.3400   -8.4975    2.6276 S   0  0  0  0  0  0  0  0  0  0  0  0
    1.5935   -9.0354    1.9347 O   0  0  0  0  0  0  0  0  0  0  0  0
    0.6404   -8.4283    4.2968 O   0  0  0  0  0  0  0  0  0  0  0  0
    1.6774   -7.5213    4.6140 C   0  0  0  0  0  0  0  0  0  0  0  0
    1.3983   -6.0593    4.1406 C   0  0  1  0  0  0  0  0  0  0  0  0
    0.1266   -5.5406    4.8606 C   0  0  0  0  0  0  0  0  0  0  0  0
    3.7431   -4.9663    7.6984 H   0  0  0  0  0  0  0  0  0  0  0  0
    4.0478   -3.7203    6.5191 H   0  0  0  0  0  0  0  0  0  0  0  0
    4.6953   -5.3555    6.2776 H   0  0  0  0  0  0  0  0  0  0  0  0
    3.5366   -5.7698    4.2900 H   0  0  0  0  0  0  0  0  0  0  0  0
    1.8034   -3.5933    3.3844 H   0  0  0  0  0  0  0  0  0  0  0  0
    2.6252   -3.0774    4.7547 H   0  0  0  0  0  0  0  0  0  0  0  0
    6.0216   -2.8248    3.5003 H   0  0  0  0  0  0  0  0  0  0  0  0
    5.4539   -4.2290    4.3734 H   0  0  0  0  0  0  0  0  0  0  0  0
    5.0001   -2.6162    4.8639 H   0  0  0  0  0  0  0  0  0  0  0  0
    3.7838   -1.1943    3.6034 H   0  0  0  0  0  0  0  0  0  0  0  0
    1.7132   -1.9938    1.5388 H   0  0  0  0  0  0  0  0  0  0  0  0
    0.6397   -0.3633    2.7565 H   0  0  0  0  0  0  0  0  0  0  0  0
    2.5198   -0.0015    0.4989 H   0  0  0  0  0  0  0  0  0  0  0  0
    3.0076    0.7148    2.0780 H   0  0  0  0  0  0  0  0  0  0  0  0
    5.1784    0.0787    2.6610 H   0  0  0  0  0  0  0  0  0  0  0  0
    5.2995   -1.3480   -0.2593 H   0  0  0  0  0  0  0  0  0  0  0  0
    2.5041   -2.3674   -0.4507 H   0  0  0  0  0  0  0  0  0  0  0  0
    3.3491   -1.1914   -1.4607 H   0  0  0  0  0  0  0  0  0  0  0  0
    3.3507   -3.7631   -2.3298 H   0  0  0  0  0  0  0  0  0  0  0  0
    5.1453   -5.0421   -0.9170 H   0  0  0  0  0  0  0  0  0  0  0  0
    7.1883   -4.0770    0.8510 H   0  0  0  0  0  0  0  0  0  0  0  0
    6.8793   -2.5451    1.6768 H   0  0  0  0  0  0  0  0  0  0  0  0
    7.0902   -2.6061   -0.0288 H   0  0  0  0  0  0  0  0  0  0  0  0
    5.4063   -5.9886    1.1437 H   0  0  0  0  0  0  0  0  0  0  0  0
    4.8558   -6.0702    2.7829 H   0  0  0  0  0  0  0  0  0  0  0  0
    6.2010   -5.1016    2.4206 H   0  0  0  0  0  0  0  0  0  0  0  0
    2.1844   -4.0087    1.1132 H   0  0  0  0  0  0  0  0  0  0  0  0
    3.0666   -5.0106    0.0797 H   0  0  0  0  0  0  0  0  0  0  0  0
    1.9787   -6.6126    0.7670 H   0  0  0  0  0  0  0  0  0  0  0  0
    3.0601   -6.8216    2.0517 H   0  0  0  0  0  0  0  0  0  0  0  0
    0.6450   -5.0253    2.3942 H   0  0  0  0  0  0  0  0  0  0  0  0
    1.8051   -7.5557    5.6962 H   0  0  0  0  0  0  0  0  0  0  0  0
    2.6062   -7.8976    4.1831 H   0  0  0  0  0  0  0  0  0  0  0  0
   -0.7599   -6.1052    4.5654 H   0  0  0  0  0  0  0  0  0  0  0  0
   -0.0645   -4.4915    4.6375 H   0  0  0  0  0  0  0  0  0  0  0  0
    0.2074   -5.6317    5.9417 H   0  0  0  0  0  0  0  0  0  0  0  0
  1  2  1  0
  1 32  1  0
  1 33  1  0
  1 34  1  0
  2  3  1  0
  3 30  1  0
  3  4  1  0
  3 35  1  1
  4  5  1  0
  4 36  1  0
  4 37  1  0
  5 20  1  0
  5  6  1  1
  5  7  1  0
  6 38  1  0
  6 39  1  0
  6 40  1  0
  7 11  1  0
  7  8  1  0
  7 41  1  1
  8  9  1  0
  8 10  1  0
  8 42  1  6
  9 43  1  0
 10 11  1  0
 10 44  1  0
 10 45  1  0
 11 12  1  1
 11 13  1  0
 12 46  1  0
 13 18  1  0
 13 14  1  0
 13 47  1  6
 14 15  1  0
 14 48  1  0
 14 49  1  0
 15 17  1  0
 15 16  1  0
 15 50  1  6
 16 17  1  0
 17 18  1  0
 17 51  1  1
 18 19  1  1
 18 20  1  0
 19 52  1  0
 19 53  1  0
 19 54  1  0
 20 21  1  1
 20 22  1  0
 21 55  1  0
 21 56  1  0
 21 57  1  0
 22 23  1  0
 22 58  1  0
 22 59  1  0
 23 24  1  0
 23 60  1  0
 23 61  1  0
 24 30  1  0
 24 25  1  0
 24 62  1  1
 26 25  1  6
 26 27  2  0
 26 28  1  0
 28 29  1  0
 29 30  1  0
 29 63  1  0
 29 64  1  0
 30 31  1  1
 31 65  1  0
 31 66  1  0
 31 67  1  0
M  END
>  <i_m_ct_stereo_status>  (261) 
1

>  <s_m_source_file>  (261) 
/var/tmp/pbs.5076255.sched01/tmp7qb2j_xu/82up84z1qn.sdf

>  <i_m_source_file_index>  (261) 
34

>  <i_lp_mmshare_version>  (261) 
48012

>  <i_f3d_flags>  (261) 
0

>  <s_epik_input>  (261) 
TzFbU0BAXSg9TylPW0NIMl1bQ0BAXShbQ0gzXSkoW0NAQEhdKFtDSDJdMilPW0NIM10pW0NASF0xW0NIMl1bQ0gyXVtDQEBdMyhbQ0gzXSlbQ0BAXShbQ0gzXSkoW0NASF00W0NASF0oTzQpW0NIMl01KVtDQEBIXTVbQ0BdKFtPSF0pKFtDQEBIXTZbQ0BAXTIzW0NIM10pW0NIMl1bQ0BASF02W09IXQ==

>  <s_epik_cmdline>  (261) 
J2VwaWtfcHl0aG9uJywgJy1waHQnLCAnMi4wJywgJy1waCcsICc3LjAnLCAnLXRuJywgJzgnLCAnLW1hJywgJzIwMCcsICctaW1hZScsICc8aW5maWxlLm1hZT4nLCAnLW9tYWUnLCAnPG91dGZpbGUubWFlPic=

>  <r_lp_tautomer_probability>  (261) 
1

>  <r_epik_Ionization_Penalty>  (261) 
2.8886e-06

>  <r_epik_Ionization_Penalty_Charging>  (261) 
0

>  <r_epik_Ionization_Penalty_Neutral>  (261) 
2.8886e-06

>  <r_epik_State_Penalty>  (261) 
-0

>  <r_epik_Charging_Adjusted_Penalty>  (261) 
0

>  <i_epik_Tot_Q>  (261) 
0

>  <i_epik_Tot_abs_Q>  (261) 
0

>  <s_lp_Force_Field>  (261) 
OPLS3e

>  <r_lp_Energy>  (261) 
93.4721

>  <b_lp_Chiralities_Consistent>  (261) 
1

>  <s_lp_Variant>  (261) 
71:0-1

>  <s_i_glide_gridfile>  (261) 
pfpi4k_grid

>  <i_i_glide_lignum>  (261) 
34

>  <i_i_glide_rotatable_bonds>  (261) 
3

>  <r_i_docking_score>  (261) 
-2.48066

>  <r_i_glide_ligand_efficiency>  (261) 
-0.0800212

>  <r_i_glide_ligand_efficiency_sa>  (261) 
-0.251377

>  <r_i_glide_ligand_efficiency_ln>  (261) 
-0.559464

>  <r_i_glide_gscore>  (261) 
-2.48066

>  <r_i_glide_lipo>  (261) 
-0.250539

>  <r_i_glide_hbond>  (261) 
-0.19277

>  <r_i_glide_metal>  (261) 
-0

>  <r_i_glide_rewards>  (261) 
-0.295952

>  <r_i_glide_evdw>  (261) 
-23.5288

>  <r_i_glide_ecoul>  (261) 
-3.53633

>  <r_i_glide_erotb>  (261) 
0

>  <r_i_glide_esite>  (261) 
-0.0345088

>  <r_i_glide_emodel>  (261) 
-30.4576

>  <r_i_glide_energy>  (261) 
-27.0651

>  <r_i_glide_einternal>  (261) 
1.35573

>  <r_i_glide_intrahb_reward>  (261) 
-0

>  <i_i_glide_confnum>  (261) 
2

>  <i_i_glide_posenum>  (261) 
3

>  <r_i_glide_eff_state_penalty>  (261) 
0

>  <ligand_id>  (261) 
71

>  <original_smiles>  (261) 
COC1CC2(C)C3C(O)CC3(O)C3CC4OC4C3(C)C2(C)CCC2OS(=O)OCC12C

>  <smiles>  (261) 
[H]OC1([H])C([H])([H])C2(O[H])C1([H])C1(C([H])([H])[H])C([H])([H])C([H])(OC([H])([H])[H])C3(C([H])([H])[H])C([H])([H])OS(=O)OC3([H])C([H])([H])C([H])([H])C1(C([H])([H])[H])C1(C([H])([H])[H])C3([H])OC3([H])C([H])([H])C21[H]

$$$$
72:0:0
     RDKit          3D

 41 43  0  0  1  0  0  0  0  0999 V2000
   -0.5897   -6.6672    2.4784 O   0  0  0  0  0  0  0  0  0  0  0  0
    0.4952   -6.4042    3.0502 C   0  0  0  0  0  0  0  0  0  0  0  0
    0.5825   -5.8285    4.1523 O   0  0  0  0  0  0  0  0  0  0  0  0
    1.8038   -6.7680    2.3087 C   0  0  0  0  0  0  0  0  0  0  0  0
    1.8900   -5.8336    1.0805 C   0  0  0  0  0  0  0  0  0  0  0  0
    1.0607   -5.8647    0.1616 O   0  0  0  0  0  0  0  0  0  0  0  0
    2.9227   -4.9847    1.0683 N   0  0  0  0  0  0  0  0  0  0  0  0
    3.2946   -4.0288    0.0284 C   0  0  2  0  0  0  0  0  0  0  0  0
    4.6578   -4.4480   -0.6036 C   0  0  0  0  0  0  0  0  0  0  0  0
    5.6495   -3.3519   -0.4616 N   0  0  1  0  0  0  0  0  0  0  0  0
    5.1661   -2.1364   -1.1658 C   0  0  0  0  0  0  0  0  0  0  0  0
    3.8091   -1.6660   -0.5677 C   0  0  0  0  0  0  0  0  0  0  0  0
    3.4095   -2.5891    0.5967 C   0  0  2  0  0  0  0  0  0  0  0  0
    4.5499   -2.5498    1.6374 C   0  0  0  0  0  0  0  0  0  0  0  0
    5.8704   -3.0438    0.9774 C   0  0  0  0  0  0  0  0  0  0  0  0
    3.0480   -6.6993    3.2417 C   0  0  0  0  0  0  0  0  0  0  0  0
    4.0896   -7.5944    2.5563 C   0  0  0  0  0  0  0  0  0  0  0  0
    3.2881   -8.6877    1.8395 C   0  0  0  0  0  0  0  0  0  0  0  0
    1.8161   -8.2427    1.8614 C   0  0  0  0  0  0  0  0  0  0  0  0
    3.5577   -5.0522    1.8506 H   0  0  0  0  0  0  0  0  0  0  0  0
    2.5384   -4.0210   -0.7653 H   0  0  0  0  0  0  0  0  0  0  0  0
    5.0502   -5.3674   -0.1695 H   0  0  0  0  0  0  0  0  0  0  0  0
    4.5207   -4.6567   -1.6626 H   0  0  0  0  0  0  0  0  0  0  0  0
    5.9056   -1.3390   -1.0788 H   0  0  0  0  0  0  0  0  0  0  0  0
    5.0636   -2.3368   -2.2362 H   0  0  0  0  0  0  0  0  0  0  0  0
    3.8842   -0.6336   -0.2258 H   0  0  0  0  0  0  0  0  0  0  0  0
    3.0338   -1.6797   -1.3376 H   0  0  0  0  0  0  0  0  0  0  0  0
    2.4651   -2.2751    1.0356 H   0  0  0  0  0  0  0  0  0  0  0  0
    4.6748   -1.5334    2.0150 H   0  0  0  0  0  0  0  0  0  0  0  0
    4.3098   -3.1559    2.5165 H   0  0  0  0  0  0  0  0  0  0  0  0
    6.2364   -3.9321    1.4955 H   0  0  0  0  0  0  0  0  0  0  0  0
    6.6489   -2.2879    1.0890 H   0  0  0  0  0  0  0  0  0  0  0  0
    3.4313   -5.6897    3.4160 H   0  0  0  0  0  0  0  0  0  0  0  0
    2.8221   -7.1142    4.2292 H   0  0  0  0  0  0  0  0  0  0  0  0
    4.6409   -7.0216    1.8140 H   0  0  0  0  0  0  0  0  0  0  0  0
    4.8239   -7.9989    3.2534 H   0  0  0  0  0  0  0  0  0  0  0  0
    3.6341   -8.8091    0.8157 H   0  0  0  0  0  0  0  0  0  0  0  0
    3.3984   -9.6569    2.3239 H   0  0  0  0  0  0  0  0  0  0  0  0
    1.2419   -8.8738    2.5413 H   0  0  0  0  0  0  0  0  0  0  0  0
    1.3582   -8.3774    0.8805 H   0  0  0  0  0  0  0  0  0  0  0  0
    6.5235   -3.6473   -0.8764 H   0  0  0  0  0  0  0  0  0  0  0  0
  1  2  2  0
  2  3  1  0
  2  4  1  0
  4 19  1  0
  4  5  1  0
  4 16  1  0
  5  6  2  0
  5  7  1  0
  7  8  1  0
  7 20  1  0
  8 13  1  0
  8  9  1  0
  8 21  1  6
  9 10  1  0
  9 22  1  0
  9 23  1  0
 10 15  1  0
 10 11  1  0
 10 41  1  6
 11 12  1  0
 11 24  1  0
 11 25  1  0
 12 13  1  0
 12 26  1  0
 12 27  1  0
 13 14  1  0
 13 28  1  1
 14 15  1  0
 14 29  1  0
 14 30  1  0
 15 31  1  0
 15 32  1  0
 16 17  1  0
 16 33  1  0
 16 34  1  0
 17 18  1  0
 17 35  1  0
 17 36  1  0
 18 19  1  0
 18 37  1  0
 18 38  1  0
 19 39  1  0
 19 40  1  0
M  CHG  2   3  -1  10   1
M  END
>  <i_m_ct_stereo_status>  (262) 
1

>  <s_m_source_file>  (262) 
/var/tmp/pbs.5076255.sched01/tmp7qb2j_xu/82up84z1qn.sdf

>  <i_m_source_file_index>  (262) 
35

>  <i_lp_mmshare_version>  (262) 
48012

>  <i_f3d_flags>  (262) 
0

>  <s_epik_input>  (262) 
W0NIMl0xW0NIMl1bQ0gyXVtDSDJdQzEoQyg9TylbT0hdKUMoPU8pW05IXVtDQEhdKFtDSDJdTjIzKVtDSF0oW0NIMl1bQ0gyXTIpW0NIMl1bQ0gyXTM=

>  <s_epik_cmdline>  (262) 
J2VwaWtfcHl0aG9uJywgJy1waHQnLCAnMi4wJywgJy1waCcsICc3LjAnLCAnLXRuJywgJzgnLCAnLW1hJywgJzIwMCcsICctaW1hZScsICc8aW5maWxlLm1hZT4nLCAnLW9tYWUnLCAnPG91dGZpbGUubWFlPic=

>  <r_lp_tautomer_probability>  (262) 
1

>  <r_epik_Ionization_Penalty>  (262) 
0.000966727

>  <r_epik_Ionization_Penalty_Charging>  (262) 
0.000966713

>  <r_epik_Ionization_Penalty_Neutral>  (262) 
1.46382e-08

>  <r_epik_State_Penalty>  (262) 
-0

>  <r_epik_Charging_Adjusted_Penalty>  (262) 
0.000966713

>  <i_epik_Tot_Q>  (262) 
0

>  <i_epik_Tot_abs_Q>  (262) 
2

>  <s_lp_Force_Field>  (262) 
OPLS3e

>  <r_lp_Energy>  (262) 
35.4779

>  <b_lp_Chiralities_Consistent>  (262) 
1

>  <s_lp_Variant>  (262) 
72:0-1

>  <s_i_glide_gridfile>  (262) 
pfpi4k_grid

>  <i_i_glide_lignum>  (262) 
35

>  <i_i_glide_rotatable_bonds>  (262) 
4

>  <r_i_docking_score>  (262) 
-3.73877

>  <r_i_glide_ligand_efficiency>  (262) 
-0.196777

>  <r_i_glide_ligand_efficiency_sa>  (262) 
-0.525081

>  <r_i_glide_ligand_efficiency_ln>  (262) 
-0.947858

>  <r_i_glide_gscore>  (262) 
-3.73877

>  <r_i_glide_lipo>  (262) 
-0.0964648

>  <r_i_glide_hbond>  (262) 
-0.511113

>  <r_i_glide_metal>  (262) 
-0

>  <r_i_glide_rewards>  (262) 
-1.59316

>  <r_i_glide_evdw>  (262) 
-18.6341

>  <r_i_glide_ecoul>  (262) 
-8.17261

>  <r_i_glide_erotb>  (262) 
0.753317

>  <r_i_glide_esite>  (262) 
-0.133749

>  <r_i_glide_emodel>  (262) 
-36.0616

>  <r_i_glide_energy>  (262) 
-26.8067

>  <r_i_glide_einternal>  (262) 
3.55955

>  <r_i_glide_intrahb_reward>  (262) 
-0

>  <i_i_glide_confnum>  (262) 
6

>  <i_i_glide_posenum>  (262) 
1

>  <r_i_glide_eff_state_penalty>  (262) 
0

>  <ligand_id>  (262) 
72

>  <original_smiles>  (262) 
O=C(O)C1(C(=O)NC2CN3CCC2CC3)CCCC1

>  <smiles>  (262) 
[H]N(C(=O)C1(C(=O)[O-])C([H])([H])C([H])([H])C([H])([H])C1([H])[H])C1([H])C2([H])C([H])([H])C([H])([H])[N+]([H])(C([H])([H])C2([H])[H])C1([H])[H]

$$$$
72:0:1
     RDKit          3D

 41 43  0  0  1  0  0  0  0  0999 V2000
   -2.2529    0.5448    6.8814 O   0  0  0  0  0  0  0  0  0  0  0  0
   -2.1322    1.7934    6.9109 C   0  0  0  0  0  0  0  0  0  0  0  0
   -2.9704    2.5766    6.4236 O   0  0  0  0  0  0  0  0  0  0  0  0
   -0.8698    2.3912    7.6046 C   0  0  0  0  0  0  0  0  0  0  0  0
    0.3460    1.9155    6.7706 C   0  0  0  0  0  0  0  0  0  0  0  0
    1.1448    1.0954    7.2209 O   0  0  0  0  0  0  0  0  0  0  0  0
    0.4679    2.4288    5.5422 N   0  0  0  0  0  0  0  0  0  0  0  0
    1.4360    2.0040    4.5361 C   0  0  2  0  0  0  0  0  0  0  0  0
    1.3112    2.9286    3.2950 C   0  0  0  0  0  0  0  0  0  0  0  0
    1.0118    2.1393    2.0796 N   0  0  1  0  0  0  0  0  0  0  0  0
    2.1161    1.1756    1.7986 C   0  0  0  0  0  0  0  0  0  0  0  0
    2.3067    0.2176    2.9985 C   0  0  0  0  0  0  0  0  0  0  0  0
    1.2498    0.5249    4.0844 C   0  0  2  0  0  0  0  0  0  0  0  0
   -0.1405    0.3773    3.4337 C   0  0  0  0  0  0  0  0  0  0  0  0
   -0.2696    1.3835    2.2583 C   0  0  0  0  0  0  0  0  0  0  0  0
   -0.9610    3.9278    7.7262 C   0  0  0  0  0  0  0  0  0  0  0  0
   -1.8609    4.1704    8.9456 C   0  0  0  0  0  0  0  0  0  0  0  0
   -1.6186    2.9803    9.8854 C   0  0  0  0  0  0  0  0  0  0  0  0
   -0.8200    1.9464    9.0825 C   0  0  0  0  0  0  0  0  0  0  0  0
   -0.2500    3.0792    5.2521 H   0  0  0  0  0  0  0  0  0  0  0  0
    2.4297    2.1164    4.9754 H   0  0  0  0  0  0  0  0  0  0  0  0
    0.5480    3.7033    3.4216 H   0  0  0  0  0  0  0  0  0  0  0  0
    2.2549    3.4589    3.1461 H   0  0  0  0  0  0  0  0  0  0  0  0
    1.9025    0.6159    0.8882 H   0  0  0  0  0  0  0  0  0  0  0  0
    3.0475    1.7157    1.6430 H   0  0  0  0  0  0  0  0  0  0  0  0
    2.2234   -0.8186    2.6684 H   0  0  0  0  0  0  0  0  0  0  0  0
    3.3140    0.3248    3.4107 H   0  0  0  0  0  0  0  0  0  0  0  0
    1.3629   -0.1665    4.9177 H   0  0  0  0  0  0  0  0  0  0  0  0
   -0.2537   -0.6466    3.0790 H   0  0  0  0  0  0  0  0  0  0  0  0
   -0.9397    0.5320    4.1635 H   0  0  0  0  0  0  0  0  0  0  0  0
   -1.0798    2.0894    2.4462 H   0  0  0  0  0  0  0  0  0  0  0  0
   -0.5157    0.8700    1.3311 H   0  0  0  0  0  0  0  0  0  0  0  0
    0.0252    4.3496    7.8998 H   0  0  0  0  0  0  0  0  0  0  0  0
   -1.3525    4.4331    6.8441 H   0  0  0  0  0  0  0  0  0  0  0  0
   -1.6728    5.1328    9.4233 H   0  0  0  0  0  0  0  0  0  0  0  0
   -2.9078    4.1689    8.6408 H   0  0  0  0  0  0  0  0  0  0  0  0
   -1.0564    3.2837   10.7679 H   0  0  0  0  0  0  0  0  0  0  0  0
   -2.5599    2.5571   10.2389 H   0  0  0  0  0  0  0  0  0  0  0  0
   -1.2049    0.9419    9.2504 H   0  0  0  0  0  0  0  0  0  0  0  0
    0.2010    1.9350    9.4532 H   0  0  0  0  0  0  0  0  0  0  0  0
    0.8793    2.8007    1.3173 H   0  0  0  0  0  0  0  0  0  0  0  0
  1  2  2  0
  2  3  1  0
  2  4  1  0
  4 19  1  0
  4  5  1  0
  4 16  1  0
  5  6  2  0
  5  7  1  0
  7  8  1  0
  7 20  1  0
  8 13  1  0
  8  9  1  0
  8 21  1  1
  9 10  1  0
  9 22  1  0
  9 23  1  0
 10 15  1  0
 10 11  1  0
 10 41  1  6
 11 12  1  0
 11 24  1  0
 11 25  1  0
 12 13  1  0
 12 26  1  0
 12 27  1  0
 13 14  1  0
 13 28  1  1
 14 15  1  0
 14 29  1  0
 14 30  1  0
 15 31  1  0
 15 32  1  0
 16 17  1  0
 16 33  1  0
 16 34  1  0
 17 18  1  0
 17 35  1  0
 17 36  1  0
 18 19  1  0
 18 37  1  0
 18 38  1  0
 19 39  1  0
 19 40  1  0
M  CHG  2   3  -1  10   1
M  END
>  <i_m_ct_stereo_status>  (263) 
1

>  <s_m_source_file>  (263) 
/var/tmp/pbs.5076255.sched01/tmp7qb2j_xu/82up84z1qn.sdf

>  <i_m_source_file_index>  (263) 
35

>  <i_lp_mmshare_version>  (263) 
48012

>  <i_f3d_flags>  (263) 
0

>  <s_epik_input>  (263) 
W0NIMl0xW0NIMl1bQ0gyXVtDSDJdQzEoQyg9TylbT0hdKUMoPU8pW05IXVtDQEhdKFtDSDJdTjIzKVtDSF0oW0NIMl1bQ0gyXTIpW0NIMl1bQ0gyXTM=

>  <s_epik_cmdline>  (263) 
J2VwaWtfcHl0aG9uJywgJy1waHQnLCAnMi4wJywgJy1waCcsICc3LjAnLCAnLXRuJywgJzgnLCAnLW1hJywgJzIwMCcsICctaW1hZScsICc8aW5maWxlLm1hZT4nLCAnLW9tYWUnLCAnPG91dGZpbGUubWFlPic=

>  <r_lp_tautomer_probability>  (263) 
1

>  <r_epik_Ionization_Penalty>  (263) 
0.000966727

>  <r_epik_Ionization_Penalty_Charging>  (263) 
0.000966713

>  <r_epik_Ionization_Penalty_Neutral>  (263) 
1.46382e-08

>  <r_epik_State_Penalty>  (263) 
-0

>  <r_epik_Charging_Adjusted_Penalty>  (263) 
0.000966713

>  <i_epik_Tot_Q>  (263) 
0

>  <i_epik_Tot_abs_Q>  (263) 
2

>  <s_lp_Force_Field>  (263) 
OPLS3e

>  <r_lp_Energy>  (263) 
35.4779

>  <b_lp_Chiralities_Consistent>  (263) 
1

>  <s_lp_Variant>  (263) 
72:0-1

>  <s_i_glide_gridfile>  (263) 
pfpi4k_grid

>  <i_i_glide_lignum>  (263) 
35

>  <i_i_glide_rotatable_bonds>  (263) 
4

>  <r_i_docking_score>  (263) 
-3.68539

>  <r_i_glide_ligand_efficiency>  (263) 
-0.193968

>  <r_i_glide_ligand_efficiency_sa>  (263) 
-0.517585

>  <r_i_glide_ligand_efficiency_ln>  (263) 
-0.934327

>  <r_i_glide_gscore>  (263) 
-3.68539

>  <r_i_glide_lipo>  (263) 
-0.000264802

>  <r_i_glide_hbond>  (263) 
-0.391618

>  <r_i_glide_metal>  (263) 
-0

>  <r_i_glide_rewards>  (263) 
-1.59316

>  <r_i_glide_evdw>  (263) 
-15.4633

>  <r_i_glide_ecoul>  (263) 
-10.4266

>  <r_i_glide_erotb>  (263) 
0.753317

>  <r_i_glide_esite>  (263) 
-0.116506

>  <r_i_glide_emodel>  (263) 
-36.4411

>  <r_i_glide_energy>  (263) 
-25.8899

>  <r_i_glide_einternal>  (263) 
0.911372

>  <r_i_glide_intrahb_reward>  (263) 
-0

>  <i_i_glide_confnum>  (263) 
1

>  <i_i_glide_posenum>  (263) 
17

>  <r_i_glide_eff_state_penalty>  (263) 
0

>  <ligand_id>  (263) 
72

>  <original_smiles>  (263) 
O=C(O)C1(C(=O)NC2CN3CCC2CC3)CCCC1

>  <smiles>  (263) 
[H]N(C(=O)C1(C(=O)[O-])C([H])([H])C([H])([H])C([H])([H])C1([H])[H])C1([H])C2([H])C([H])([H])C([H])([H])[N+]([H])(C([H])([H])C2([H])[H])C1([H])[H]

$$$$
72:0:2
     RDKit          3D

 41 43  0  0  1  0  0  0  0  0999 V2000
    3.0331   -2.4304    3.6933 O   0  0  0  0  0  0  0  0  0  0  0  0
    2.2531   -1.6686    3.0742 C   0  0  0  0  0  0  0  0  0  0  0  0
    1.0375   -1.9217    2.8833 O   0  0  0  0  0  0  0  0  0  0  0  0
    2.8247   -0.3306    2.5142 C   0  0  0  0  0  0  0  0  0  0  0  0
    3.8758   -0.7260    1.4435 C   0  0  0  0  0  0  0  0  0  0  0  0
    5.0810   -0.7333    1.7051 O   0  0  0  0  0  0  0  0  0  0  0  0
    3.4125   -1.0552    0.2304 N   0  0  0  0  0  0  0  0  0  0  0  0
    4.1900   -1.6396   -0.8546 C   0  0  2  0  0  0  0  0  0  0  0  0
    3.5081   -1.3060   -2.2104 C   0  0  0  0  0  0  0  0  0  0  0  0
    3.1448   -2.5563   -2.9331 N   0  0  1  0  0  0  0  0  0  0  0  0
    4.3675   -3.3372   -3.2459 C   0  0  0  0  0  0  0  0  0  0  0  0
    5.1134   -3.7016   -1.9336 C   0  0  0  0  0  0  0  0  0  0  0  0
    4.3226   -3.1766   -0.7117 C   0  0  2  0  0  0  0  0  0  0  0  0
    2.9075   -3.7958   -0.7666 C   0  0  0  0  0  0  0  0  0  0  0  0
    2.2173   -3.3798   -2.1012 C   0  0  0  0  0  0  0  0  0  0  0  0
    1.7252    0.6069    1.9522 C   0  0  0  0  0  0  0  0  0  0  0  0
    1.1276    1.2945    3.1787 C   0  0  0  0  0  0  0  0  0  0  0  0
    2.2756    1.4027    4.1895 C   0  0  0  0  0  0  0  0  0  0  0  0
    3.4194    0.5322    3.6546 C   0  0  0  0  0  0  0  0  0  0  0  0
    2.4091   -0.9705    0.0741 H   0  0  0  0  0  0  0  0  0  0  0  0
    5.1894   -1.1986   -0.8521 H   0  0  0  0  0  0  0  0  0  0  0  0
    2.6202   -0.6856   -2.0859 H   0  0  0  0  0  0  0  0  0  0  0  0
    4.1952   -0.7226   -2.8253 H   0  0  0  0  0  0  0  0  0  0  0  0
    4.0991   -4.2383   -3.7955 H   0  0  0  0  0  0  0  0  0  0  0  0
    5.0140   -2.7639   -3.9104 H   0  0  0  0  0  0  0  0  0  0  0  0
    5.2229   -4.7832   -1.8659 H   0  0  0  0  0  0  0  0  0  0  0  0
    6.1256   -3.2881   -1.9460 H   0  0  0  0  0  0  0  0  0  0  0  0
    4.8300   -3.4463    0.2171 H   0  0  0  0  0  0  0  0  0  0  0  0
    2.9794   -4.8799   -0.7033 H   0  0  0  0  0  0  0  0  0  0  0  0
    2.3101   -3.4908    0.0964 H   0  0  0  0  0  0  0  0  0  0  0  0
    1.3160   -2.8032   -1.9231 H   0  0  0  0  0  0  0  0  0  0  0  0
    1.8758   -4.2527   -2.6581 H   0  0  0  0  0  0  0  0  0  0  0  0
    2.1577    1.3646    1.2978 H   0  0  0  0  0  0  0  0  0  0  0  0
    0.9564    0.1029    1.3651 H   0  0  0  0  0  0  0  0  0  0  0  0
    0.6742    2.2573    2.9433 H   0  0  0  0  0  0  0  0  0  0  0  0
    0.3437    0.6665    3.5950 H   0  0  0  0  0  0  0  0  0  0  0  0
    2.6064    2.4336    4.2984 H   0  0  0  0  0  0  0  0  0  0  0  0
    1.9603    1.0589    5.1722 H   0  0  0  0  0  0  0  0  0  0  0  0
    3.8702   -0.0680    4.4448 H   0  0  0  0  0  0  0  0  0  0  0  0
    4.2088    1.1836    3.2836 H   0  0  0  0  0  0  0  0  0  0  0  0
    2.6685   -2.3104   -3.7898 H   0  0  0  0  0  0  0  0  0  0  0  0
  1  2  2  0
  2  3  1  0
  2  4  1  0
  4 19  1  0
  4  5  1  0
  4 16  1  0
  5  6  2  0
  5  7  1  0
  7  8  1  0
  7 20  1  0
  8 13  1  0
  8  9  1  0
  8 21  1  6
  9 10  1  0
  9 22  1  0
  9 23  1  0
 10 15  1  0
 10 11  1  0
 10 41  1  6
 11 12  1  0
 11 24  1  0
 11 25  1  0
 12 13  1  0
 12 26  1  0
 12 27  1  0
 13 14  1  0
 13 28  1  1
 14 15  1  0
 14 29  1  0
 14 30  1  0
 15 31  1  0
 15 32  1  0
 16 17  1  0
 16 33  1  0
 16 34  1  0
 17 18  1  0
 17 35  1  0
 17 36  1  0
 18 19  1  0
 18 37  1  0
 18 38  1  0
 19 39  1  0
 19 40  1  0
M  CHG  2   3  -1  10   1
M  END
>  <i_m_ct_stereo_status>  (264) 
1

>  <s_m_source_file>  (264) 
/var/tmp/pbs.5076255.sched01/tmp7qb2j_xu/82up84z1qn.sdf

>  <i_m_source_file_index>  (264) 
35

>  <i_lp_mmshare_version>  (264) 
48012

>  <i_f3d_flags>  (264) 
0

>  <s_epik_input>  (264) 
W0NIMl0xW0NIMl1bQ0gyXVtDSDJdQzEoQyg9TylbT0hdKUMoPU8pW05IXVtDQEhdKFtDSDJdTjIzKVtDSF0oW0NIMl1bQ0gyXTIpW0NIMl1bQ0gyXTM=

>  <s_epik_cmdline>  (264) 
J2VwaWtfcHl0aG9uJywgJy1waHQnLCAnMi4wJywgJy1waCcsICc3LjAnLCAnLXRuJywgJzgnLCAnLW1hJywgJzIwMCcsICctaW1hZScsICc8aW5maWxlLm1hZT4nLCAnLW9tYWUnLCAnPG91dGZpbGUubWFlPic=

>  <r_lp_tautomer_probability>  (264) 
1

>  <r_epik_Ionization_Penalty>  (264) 
0.000966727

>  <r_epik_Ionization_Penalty_Charging>  (264) 
0.000966713

>  <r_epik_Ionization_Penalty_Neutral>  (264) 
1.46382e-08

>  <r_epik_State_Penalty>  (264) 
-0

>  <r_epik_Charging_Adjusted_Penalty>  (264) 
0.000966713

>  <i_epik_Tot_Q>  (264) 
0

>  <i_epik_Tot_abs_Q>  (264) 
2

>  <s_lp_Force_Field>  (264) 
OPLS3e

>  <r_lp_Energy>  (264) 
35.4779

>  <b_lp_Chiralities_Consistent>  (264) 
1

>  <s_lp_Variant>  (264) 
72:0-1

>  <s_i_glide_gridfile>  (264) 
pfpi4k_grid

>  <i_i_glide_lignum>  (264) 
35

>  <i_i_glide_rotatable_bonds>  (264) 
4

>  <r_i_docking_score>  (264) 
-3.0021

>  <r_i_glide_ligand_efficiency>  (264) 
-0.158005

>  <r_i_glide_ligand_efficiency_sa>  (264) 
-0.421622

>  <r_i_glide_ligand_efficiency_ln>  (264) 
-0.761098

>  <r_i_glide_gscore>  (264) 
-3.0021

>  <r_i_glide_lipo>  (264) 
-0.403461

>  <r_i_glide_hbond>  (264) 
-0.16

>  <r_i_glide_metal>  (264) 
-0

>  <r_i_glide_rewards>  (264) 
-1.61641

>  <r_i_glide_evdw>  (264) 
-21.6749

>  <r_i_glide_ecoul>  (264) 
-2.74437

>  <r_i_glide_erotb>  (264) 
0.753317

>  <r_i_glide_esite>  (264) 
-0.0801531

>  <r_i_glide_emodel>  (264) 
-32.8776

>  <r_i_glide_energy>  (264) 
-24.4193

>  <r_i_glide_einternal>  (264) 
0.912855

>  <r_i_glide_intrahb_reward>  (264) 
-0

>  <i_i_glide_confnum>  (264) 
2

>  <i_i_glide_posenum>  (264) 
14

>  <r_i_glide_eff_state_penalty>  (264) 
0

>  <ligand_id>  (264) 
72

>  <original_smiles>  (264) 
O=C(O)C1(C(=O)NC2CN3CCC2CC3)CCCC1

>  <smiles>  (264) 
[H]N(C(=O)C1(C(=O)[O-])C([H])([H])C([H])([H])C([H])([H])C1([H])[H])C1([H])C2([H])C([H])([H])C([H])([H])[N+]([H])(C([H])([H])C2([H])[H])C1([H])[H]

$$$$
73:0:0
     RDKit          3D

 23 24  0  0  1  0  0  0  0  0999 V2000
    1.5597   -7.0100    5.4787 C   0  0  0  0  0  0  0  0  0  0  0  0
    0.3682   -6.2139    4.8969 C   0  0  2  0  0  0  0  0  0  0  0  0
   -0.6048   -5.8261    5.8617 O   0  0  0  0  0  0  0  0  0  0  0  0
   -0.2879   -4.9984    6.9239 C   0  0  0  0  0  0  0  0  0  0  0  0
   -1.3242   -4.6439    7.8146 C   0  0  0  0  0  0  0  0  0  0  0  0
   -1.0953   -3.8569    8.8992 N   0  0  0  0  0  0  0  0  0  0  0  0
    0.1606   -3.5100    9.1332 C   0  0  0  0  0  0  0  0  0  0  0  0
    1.2068   -3.7534    8.3534 N   0  0  0  0  0  0  0  0  0  0  0  0
    0.9906   -4.4575    7.2230 C   0  0  0  0  0  0  0  0  0  0  0  0
   -0.2892   -7.0662    3.8298 C   0  0  0  0  0  0  0  0  0  0  0  0
   -1.0323   -8.1911    4.0088 C   0  0  0  0  0  0  0  0  0  0  0  0
   -1.4601   -8.9770    2.5104 S   0  0  0  0  0  0  0  0  0  0  0  0
   -0.5859   -7.7146    1.6661 C   0  0  0  0  0  0  0  0  0  0  0  0
   -0.0491   -6.7837    2.4444 N   0  0  0  0  0  0  0  0  0  0  0  0
    2.2703   -7.2321    4.6995 H   0  0  0  0  0  0  0  0  0  0  0  0
    1.1950   -7.8983    5.9546 H   0  0  0  0  0  0  0  0  0  0  0  0
    2.1686   -6.4865    6.2621 H   0  0  0  0  0  0  0  0  0  0  0  0
    0.6812   -5.2829    4.4133 H   0  0  0  0  0  0  0  0  0  0  0  0
   -2.3460   -4.9337    7.6290 H   0  0  0  0  0  0  0  0  0  0  0  0
    0.3763   -2.8709    9.9750 H   0  0  0  0  0  0  0  0  0  0  0  0
    1.8762   -4.5298    6.6102 H   0  0  0  0  0  0  0  0  0  0  0  0
   -1.3311   -8.6750    4.9322 H   0  0  0  0  0  0  0  0  0  0  0  0
   -0.4889   -7.6542    0.5955 H   0  0  0  0  0  0  0  0  0  0  0  0
  1  2  1  0
  1 15  1  0
  1 16  1  0
  1 17  1  0
  2  3  1  0
  2 10  1  0
  2 18  1  6
  3  4  1  0
  4  9  1  0
  4  5  2  0
  5  6  1  0
  5 19  1  0
  6  7  2  0
  7  8  1  0
  7 20  1  0
  8  9  2  0
  9 21  1  0
 10 14  1  0
 10 11  2  0
 11 12  1  0
 11 22  1  0
 12 13  1  0
 13 14  2  0
 13 23  1  0
M  END
>  <i_m_ct_stereo_status>  (265) 
1

>  <s_m_source_file>  (265) 
/var/tmp/pbs.5076255.sched01/tmp7qb2j_xu/82up84z1qn.sdf

>  <i_m_source_file_index>  (265) 
36

>  <i_lp_mmshare_version>  (265) 
48012

>  <i_f3d_flags>  (265) 
0

>  <s_epik_input>  (265) 
bjFbY0hdc1tjSF1jMVtDQEhdKFtDSDNdKU9jMltjSF1uW2NIXW5bY0hdMg==

>  <s_epik_cmdline>  (265) 
J2VwaWtfcHl0aG9uJywgJy1waHQnLCAnMi4wJywgJy1waCcsICc3LjAnLCAnLXRuJywgJzgnLCAnLW1hJywgJzIwMCcsICctaW1hZScsICc8aW5maWxlLm1hZT4nLCAnLW9tYWUnLCAnPG91dGZpbGUubWFlPic=

>  <r_lp_tautomer_probability>  (265) 
1

>  <r_epik_Ionization_Penalty>  (265) 
0.000166834

>  <r_epik_Ionization_Penalty_Charging>  (265) 
0

>  <r_epik_Ionization_Penalty_Neutral>  (265) 
0.000166834

>  <r_epik_State_Penalty>  (265) 
-0

>  <r_epik_Charging_Adjusted_Penalty>  (265) 
0

>  <i_epik_Tot_Q>  (265) 
0

>  <i_epik_Tot_abs_Q>  (265) 
0

>  <s_lp_Force_Field>  (265) 
OPLS3e

>  <r_lp_Energy>  (265) 
16.6751

>  <b_lp_Chiralities_Consistent>  (265) 
1

>  <s_lp_Variant>  (265) 
73:0-1

>  <s_i_glide_gridfile>  (265) 
pfpi4k_grid

>  <i_i_glide_lignum>  (265) 
36

>  <i_i_glide_rotatable_bonds>  (265) 
3

>  <r_i_docking_score>  (265) 
-2.77247

>  <r_i_glide_ligand_efficiency>  (265) 
-0.198034

>  <r_i_glide_ligand_efficiency_sa>  (265) 
-0.47729

>  <r_i_glide_ligand_efficiency_ln>  (265) 
-0.761866

>  <r_i_glide_gscore>  (265) 
-2.77247

>  <r_i_glide_lipo>  (265) 
-0.168759

>  <r_i_glide_hbond>  (265) 
-0.196487

>  <r_i_glide_metal>  (265) 
-0

>  <r_i_glide_rewards>  (265) 
-1.996

>  <r_i_glide_evdw>  (265) 
-17.8127

>  <r_i_glide_ecoul>  (265) 
-4.33398

>  <r_i_glide_erotb>  (265) 
1.15422

>  <r_i_glide_esite>  (265) 
-0.02472

>  <r_i_glide_emodel>  (265) 
-24.4165

>  <r_i_glide_energy>  (265) 
-22.1466

>  <r_i_glide_einternal>  (265) 
1.69573

>  <r_i_glide_intrahb_reward>  (265) 
-0

>  <i_i_glide_confnum>  (265) 
6

>  <i_i_glide_posenum>  (265) 
28

>  <r_i_glide_eff_state_penalty>  (265) 
0

>  <ligand_id>  (265) 
73

>  <original_smiles>  (265) 
CC(Oc1cncnc1)c1cscn1

>  <smiles>  (265) 
[H]c1nc([H])c(OC([H])(c2nc([H])sc2[H])C([H])([H])[H])c([H])n1

$$$$
73:0:1
     RDKit          3D

 23 24  0  0  1  0  0  0  0  0999 V2000
    0.4049    3.7624    6.6474 C   0  0  0  0  0  0  0  0  0  0  0  0
   -0.5080    2.5260    6.7792 C   0  0  2  0  0  0  0  0  0  0  0  0
   -1.2513    2.3150    5.5822 O   0  0  0  0  0  0  0  0  0  0  0  0
   -0.6092    1.9370    4.4172 C   0  0  0  0  0  0  0  0  0  0  0  0
   -1.3825    1.7078    3.2607 C   0  0  0  0  0  0  0  0  0  0  0  0
   -0.8466    1.3447    2.0822 N   0  0  0  0  0  0  0  0  0  0  0  0
    0.4818    1.2458    2.0318 C   0  0  0  0  0  0  0  0  0  0  0  0
    1.3219    1.4201    3.0544 N   0  0  0  0  0  0  0  0  0  0  0  0
    0.7887    1.7528    4.2455 C   0  0  0  0  0  0  0  0  0  0  0  0
   -1.4500    2.6936    7.9554 C   0  0  0  0  0  0  0  0  0  0  0  0
   -2.6903    3.2911    7.9563 C   0  0  0  0  0  0  0  0  0  0  0  0
   -3.3873    3.3471    9.5601 S   0  0  0  0  0  0  0  0  0  0  0  0
   -1.9445    2.5469   10.1516 C   0  0  0  0  0  0  0  0  0  0  0  0
   -1.0432    2.2603    9.2176 N   0  0  0  0  0  0  0  0  0  0  0  0
    0.9636    3.9053    7.5712 H   0  0  0  0  0  0  0  0  0  0  0  0
   -0.1901    4.6622    6.4839 H   0  0  0  0  0  0  0  0  0  0  0  0
    1.1337    3.6918    5.8392 H   0  0  0  0  0  0  0  0  0  0  0  0
    0.0903    1.6294    6.9447 H   0  0  0  0  0  0  0  0  0  0  0  0
   -2.4623    1.7998    3.3011 H   0  0  0  0  0  0  0  0  0  0  0  0
    0.9244    0.9586    1.0900 H   0  0  0  0  0  0  0  0  0  0  0  0
    1.4947    1.8680    5.0603 H   0  0  0  0  0  0  0  0  0  0  0  0
   -3.2136    3.7182    7.1152 H   0  0  0  0  0  0  0  0  0  0  0  0
   -1.7935    2.2752   11.1870 H   0  0  0  0  0  0  0  0  0  0  0  0
  1  2  1  0
  1 15  1  0
  1 16  1  0
  1 17  1  0
  2  3  1  0
  2 10  1  0
  2 18  1  1
  3  4  1  0
  4  9  1  0
  4  5  2  0
  5  6  1  0
  5 19  1  0
  6  7  2  0
  7  8  1  0
  7 20  1  0
  8  9  2  0
  9 21  1  0
 10 14  1  0
 10 11  2  0
 11 12  1  0
 11 22  1  0
 12 13  1  0
 13 14  2  0
 13 23  1  0
M  END
>  <i_m_ct_stereo_status>  (266) 
1

>  <s_m_source_file>  (266) 
/var/tmp/pbs.5076255.sched01/tmp7qb2j_xu/82up84z1qn.sdf

>  <i_m_source_file_index>  (266) 
36

>  <i_lp_mmshare_version>  (266) 
48012

>  <i_f3d_flags>  (266) 
0

>  <s_epik_input>  (266) 
bjFbY0hdc1tjSF1jMVtDQEhdKFtDSDNdKU9jMltjSF1uW2NIXW5bY0hdMg==

>  <s_epik_cmdline>  (266) 
J2VwaWtfcHl0aG9uJywgJy1waHQnLCAnMi4wJywgJy1waCcsICc3LjAnLCAnLXRuJywgJzgnLCAnLW1hJywgJzIwMCcsICctaW1hZScsICc8aW5maWxlLm1hZT4nLCAnLW9tYWUnLCAnPG91dGZpbGUubWFlPic=

>  <r_lp_tautomer_probability>  (266) 
1

>  <r_epik_Ionization_Penalty>  (266) 
0.000166834

>  <r_epik_Ionization_Penalty_Charging>  (266) 
0

>  <r_epik_Ionization_Penalty_Neutral>  (266) 
0.000166834

>  <r_epik_State_Penalty>  (266) 
-0

>  <r_epik_Charging_Adjusted_Penalty>  (266) 
0

>  <i_epik_Tot_Q>  (266) 
0

>  <i_epik_Tot_abs_Q>  (266) 
0

>  <s_lp_Force_Field>  (266) 
OPLS3e

>  <r_lp_Energy>  (266) 
16.6751

>  <b_lp_Chiralities_Consistent>  (266) 
1

>  <s_lp_Variant>  (266) 
73:0-1

>  <s_i_glide_gridfile>  (266) 
pfpi4k_grid

>  <i_i_glide_lignum>  (266) 
36

>  <i_i_glide_rotatable_bonds>  (266) 
3

>  <r_i_docking_score>  (266) 
-2.17927

>  <r_i_glide_ligand_efficiency>  (266) 
-0.155662

>  <r_i_glide_ligand_efficiency_sa>  (266) 
-0.375168

>  <r_i_glide_ligand_efficiency_ln>  (266) 
-0.598856

>  <r_i_glide_gscore>  (266) 
-2.17927

>  <r_i_glide_lipo>  (266) 
-0.110797

>  <r_i_glide_hbond>  (266) 
0

>  <r_i_glide_metal>  (266) 
-0

>  <r_i_glide_rewards>  (266) 
-1.996

>  <r_i_glide_evdw>  (266) 
-18.5604

>  <r_i_glide_ecoul>  (266) 
-1.53764

>  <r_i_glide_erotb>  (266) 
1.15422

>  <r_i_glide_esite>  (266) 
-0.06803

>  <r_i_glide_emodel>  (266) 
-22.5174

>  <r_i_glide_energy>  (266) 
-20.0981

>  <r_i_glide_einternal>  (266) 
1.16634

>  <r_i_glide_intrahb_reward>  (266) 
-0

>  <i_i_glide_confnum>  (266) 
2

>  <i_i_glide_posenum>  (266) 
13

>  <r_i_glide_eff_state_penalty>  (266) 
0

>  <ligand_id>  (266) 
73

>  <original_smiles>  (266) 
CC(Oc1cncnc1)c1cscn1

>  <smiles>  (266) 
[H]c1nc([H])c(OC([H])(c2nc([H])sc2[H])C([H])([H])[H])c([H])n1

$$$$
73:0:2
     RDKit          3D

 23 24  0  0  1  0  0  0  0  0999 V2000
    5.0535   -2.5037    0.7707 C   0  0  0  0  0  0  0  0  0  0  0  0
    3.7279   -2.7661    0.0276 C   0  0  2  0  0  0  0  0  0  0  0  0
    3.3202   -4.1150    0.2650 O   0  0  0  0  0  0  0  0  0  0  0  0
    2.7138   -4.4620    1.4548 C   0  0  0  0  0  0  0  0  0  0  0  0
    2.2234   -5.7755    1.6022 C   0  0  0  0  0  0  0  0  0  0  0  0
    1.5511   -6.1708    2.7027 N   0  0  0  0  0  0  0  0  0  0  0  0
    1.4228   -5.2766    3.6798 C   0  0  0  0  0  0  0  0  0  0  0  0
    1.8533   -4.0177    3.6702 N   0  0  0  0  0  0  0  0  0  0  0  0
    2.5002   -3.6036    2.5618 C   0  0  0  0  0  0  0  0  0  0  0  0
    3.9081   -2.5439   -1.4513 C   0  0  0  0  0  0  0  0  0  0  0  0
    3.4147   -1.5103   -2.2153 C   0  0  0  0  0  0  0  0  0  0  0  0
    3.8112   -1.6968   -3.9061 S   0  0  0  0  0  0  0  0  0  0  0  0
    4.6661   -3.1751   -3.4890 C   0  0  0  0  0  0  0  0  0  0  0  0
    4.6535   -3.4657   -2.1937 N   0  0  0  0  0  0  0  0  0  0  0  0
    5.3977   -1.4836    0.6040 H   0  0  0  0  0  0  0  0  0  0  0  0
    5.8330   -3.1772    0.4167 H   0  0  0  0  0  0  0  0  0  0  0  0
    4.9775   -2.6497    1.8468 H   0  0  0  0  0  0  0  0  0  0  0  0
    2.9559   -2.0799    0.3854 H   0  0  0  0  0  0  0  0  0  0  0  0
    2.3314   -6.5065    0.8131 H   0  0  0  0  0  0  0  0  0  0  0  0
    0.9033   -5.5986    4.5685 H   0  0  0  0  0  0  0  0  0  0  0  0
    2.8227   -2.5735    2.5771 H   0  0  0  0  0  0  0  0  0  0  0  0
    2.8004   -0.6789   -1.8966 H   0  0  0  0  0  0  0  0  0  0  0  0
    5.1989   -3.8195   -4.1768 H   0  0  0  0  0  0  0  0  0  0  0  0
  1  2  1  0
  1 15  1  0
  1 16  1  0
  1 17  1  0
  2  3  1  0
  2 10  1  0
  2 18  1  1
  3  4  1  0
  4  9  1  0
  4  5  2  0
  5  6  1  0
  5 19  1  0
  6  7  2  0
  7  8  1  0
  7 20  1  0
  8  9  2  0
  9 21  1  0
 10 14  1  0
 10 11  2  0
 11 12  1  0
 11 22  1  0
 12 13  1  0
 13 14  2  0
 13 23  1  0
M  END
>  <i_m_ct_stereo_status>  (267) 
1

>  <s_m_source_file>  (267) 
/var/tmp/pbs.5076255.sched01/tmp7qb2j_xu/82up84z1qn.sdf

>  <i_m_source_file_index>  (267) 
36

>  <i_lp_mmshare_version>  (267) 
48012

>  <i_f3d_flags>  (267) 
0

>  <s_epik_input>  (267) 
bjFbY0hdc1tjSF1jMVtDQEhdKFtDSDNdKU9jMltjSF1uW2NIXW5bY0hdMg==

>  <s_epik_cmdline>  (267) 
J2VwaWtfcHl0aG9uJywgJy1waHQnLCAnMi4wJywgJy1waCcsICc3LjAnLCAnLXRuJywgJzgnLCAnLW1hJywgJzIwMCcsICctaW1hZScsICc8aW5maWxlLm1hZT4nLCAnLW9tYWUnLCAnPG91dGZpbGUubWFlPic=

>  <r_lp_tautomer_probability>  (267) 
1

>  <r_epik_Ionization_Penalty>  (267) 
0.000166834

>  <r_epik_Ionization_Penalty_Charging>  (267) 
0

>  <r_epik_Ionization_Penalty_Neutral>  (267) 
0.000166834

>  <r_epik_State_Penalty>  (267) 
-0

>  <r_epik_Charging_Adjusted_Penalty>  (267) 
0

>  <i_epik_Tot_Q>  (267) 
0

>  <i_epik_Tot_abs_Q>  (267) 
0

>  <s_lp_Force_Field>  (267) 
OPLS3e

>  <r_lp_Energy>  (267) 
16.6751

>  <b_lp_Chiralities_Consistent>  (267) 
1

>  <s_lp_Variant>  (267) 
73:0-1

>  <s_i_glide_gridfile>  (267) 
pfpi4k_grid

>  <i_i_glide_lignum>  (267) 
36

>  <i_i_glide_rotatable_bonds>  (267) 
3

>  <r_i_docking_score>  (267) 
-2.10962

>  <r_i_glide_ligand_efficiency>  (267) 
-0.150687

>  <r_i_glide_ligand_efficiency_sa>  (267) 
-0.363178

>  <r_i_glide_ligand_efficiency_ln>  (267) 
-0.579717

>  <r_i_glide_gscore>  (267) 
-2.10962

>  <r_i_glide_lipo>  (267) 
-0.320132

>  <r_i_glide_hbond>  (267) 
0

>  <r_i_glide_metal>  (267) 
-0

>  <r_i_glide_rewards>  (267) 
-1.996

>  <r_i_glide_evdw>  (267) 
-21.216

>  <r_i_glide_ecoul>  (267) 
0.838097

>  <r_i_glide_erotb>  (267) 
1.15422

>  <r_i_glide_esite>  (267) 
-0.0126261

>  <r_i_glide_emodel>  (267) 
-23.0997

>  <r_i_glide_energy>  (267) 
-20.3779

>  <r_i_glide_einternal>  (267) 
0.833741

>  <r_i_glide_intrahb_reward>  (267) 
-0

>  <i_i_glide_confnum>  (267) 
5

>  <i_i_glide_posenum>  (267) 
37

>  <r_i_glide_eff_state_penalty>  (267) 
0

>  <ligand_id>  (267) 
73

>  <original_smiles>  (267) 
CC(Oc1cncnc1)c1cscn1

>  <smiles>  (267) 
[H]c1nc([H])c(OC([H])(c2nc([H])sc2[H])C([H])([H])[H])c([H])n1

$$$$
74:0:0
     RDKit          3D

 70 75  0  0  1  0  0  0  0  0999 V2000
    4.3513   -6.6916    3.7538 C   0  0  0  0  0  0  0  0  0  0  0  0
    4.2677   -5.6501    2.8981 C   0  0  0  0  0  0  0  0  0  0  0  0
    5.5547   -4.9997    2.4840 C   0  0  0  0  0  0  0  0  0  0  0  0
    6.5849   -5.6561    2.5190 O   0  0  0  0  0  0  0  0  0  0  0  0
    5.6952   -3.4565    2.1782 C   0  0  1  0  0  0  0  0  0  0  0  0
    6.4132   -3.0859    0.7807 C   0  0  0  0  0  0  0  0  0  0  0  0
    6.9763   -1.6273    0.7087 C   0  0  0  0  0  0  0  0  0  0  0  0
    7.7109   -3.9416    0.6234 C   0  0  0  0  0  0  0  0  0  0  0  0
    5.5289   -3.3730   -0.4633 C   0  0  2  0  0  0  0  0  0  0  0  0
    6.2514   -3.0028   -1.7932 C   0  0  0  0  0  0  0  0  0  0  0  0
    5.4164   -3.2377   -3.0531 C   0  0  0  0  0  0  0  0  0  0  0  0
    4.0265   -2.6591   -2.8902 C   0  0  1  0  0  0  0  0  0  0  0  0
    3.3226   -2.8009   -4.1203 O   0  0  0  0  0  0  0  0  0  0  0  0
    3.4099   -3.3910   -1.7323 C   0  0  0  0  0  0  0  0  0  0  0  0
    4.0642   -2.8257   -0.4618 C   0  0  2  0  0  0  0  0  0  0  0  0
    3.9517   -1.3134   -0.8625 C   0  0  0  0  0  0  0  0  0  0  0  0
    4.0468   -1.2518   -2.4000 C   0  0  0  0  0  0  0  0  0  0  0  0
    3.9295   -0.1983   -3.2032 C   0  0  0  0  0  0  0  0  0  0  0  0
    3.1557   -3.3244    0.7413 C   0  0  1  0  0  0  0  0  0  0  0  0
    2.9072   -4.8747    0.8480 C   0  0  1  0  0  0  0  0  0  0  0  0
    3.6679   -5.8198    0.0718 O   0  0  0  0  0  0  0  0  0  0  0  0
    2.9271   -5.2184    2.3329 C   0  0  2  0  0  0  0  0  0  0  0  0
    2.4128   -3.9372    2.9485 C   0  0  0  0  0  0  0  0  0  0  0  0
    3.1588   -2.7721    2.2359 C   0  0  2  0  0  0  0  0  0  0  0  0
    2.2142   -1.5269    2.3676 C   0  0  1  0  0  0  0  0  0  0  0  0
    1.7105   -1.3420    3.6645 O   0  0  0  0  0  0  0  0  0  0  0  0
    2.8537   -0.2457    1.9785 C   0  0  0  0  0  0  0  0  0  0  0  0
    1.9803    0.8634    1.4497 C   0  0  0  0  0  0  0  0  0  0  0  0
    4.1673   -0.0804    2.1405 C   0  0  0  0  0  0  0  0  0  0  0  0
    4.9927   -1.0329    2.9494 C   0  0  0  0  0  0  0  0  0  0  0  0
    4.5949   -2.5516    2.8716 C   0  0  2  0  0  0  0  0  0  0  0  0
    4.6412   -2.8692    4.4099 C   0  0  0  0  0  0  0  0  0  0  0  0
    3.4735   -7.2259    4.0862 H   0  0  0  0  0  0  0  0  0  0  0  0
    5.2961   -7.0331    4.1508 H   0  0  0  0  0  0  0  0  0  0  0  0
    6.4847   -3.2371    2.8684 H   0  0  0  0  0  0  0  0  0  0  0  0
    7.7120   -1.5061   -0.0886 H   0  0  0  0  0  0  0  0  0  0  0  0
    7.5055   -1.3110    1.5894 H   0  0  0  0  0  0  0  0  0  0  0  0
    6.2487   -0.8456    0.5811 H   0  0  0  0  0  0  0  0  0  0  0  0
    8.3937   -3.5720   -0.1400 H   0  0  0  0  0  0  0  0  0  0  0  0
    7.5072   -4.9787    0.3417 H   0  0  0  0  0  0  0  0  0  0  0  0
    8.2889   -3.9664    1.5483 H   0  0  0  0  0  0  0  0  0  0  0  0
    5.4966   -4.4487   -0.5165 H   0  0  0  0  0  0  0  0  0  0  0  0
    6.5354   -1.9553   -1.7998 H   0  0  0  0  0  0  0  0  0  0  0  0
    7.1689   -3.5665   -1.9324 H   0  0  0  0  0  0  0  0  0  0  0  0
    5.8696   -2.7303   -3.8774 H   0  0  0  0  0  0  0  0  0  0  0  0
    5.3662   -4.2986   -3.3092 H   0  0  0  0  0  0  0  0  0  0  0  0
    2.3910   -2.7297   -3.9746 H   0  0  0  0  0  0  0  0  0  0  0  0
    2.3253   -3.3114   -1.7464 H   0  0  0  0  0  0  0  0  0  0  0  0
    3.7521   -4.3938   -1.8482 H   0  0  0  0  0  0  0  0  0  0  0  0
    2.9702   -0.9631   -0.6044 H   0  0  0  0  0  0  0  0  0  0  0  0
    4.6296   -0.6078   -0.4249 H   0  0  0  0  0  0  0  0  0  0  0  0
    3.9579   -0.3209   -4.2858 H   0  0  0  0  0  0  0  0  0  0  0  0
    3.8138    0.7897   -2.8211 H   0  0  0  0  0  0  0  0  0  0  0  0
    2.1756   -3.0013    0.4019 H   0  0  0  0  0  0  0  0  0  0  0  0
    1.8727   -5.0520    0.5257 H   0  0  0  0  0  0  0  0  0  0  0  0
    3.4265   -5.7793   -0.8233 H   0  0  0  0  0  0  0  0  0  0  0  0
    2.2224   -6.0217    2.5411 H   0  0  0  0  0  0  0  0  0  0  0  0
    1.3567   -3.8496    2.7060 H   0  0  0  0  0  0  0  0  0  0  0  0
    2.4315   -3.9269    4.0397 H   0  0  0  0  0  0  0  0  0  0  0  0
    1.3592   -1.6260    1.7073 H   0  0  0  0  0  0  0  0  0  0  0  0
    1.2798   -0.5064    3.6679 H   0  0  0  0  0  0  0  0  0  0  0  0
    1.4693    0.5637    0.5317 H   0  0  0  0  0  0  0  0  0  0  0  0
    2.5899    1.7376    1.2254 H   0  0  0  0  0  0  0  0  0  0  0  0
    1.2391    1.1991    2.1828 H   0  0  0  0  0  0  0  0  0  0  0  0
    4.6069    0.8375    1.8266 H   0  0  0  0  0  0  0  0  0  0  0  0
    6.0529   -0.8448    2.8702 H   0  0  0  0  0  0  0  0  0  0  0  0
    4.8204   -0.6399    3.9540 H   0  0  0  0  0  0  0  0  0  0  0  0
    3.8762   -2.3063    4.9337 H   0  0  0  0  0  0  0  0  0  0  0  0
    5.5996   -2.5887    4.8392 H   0  0  0  0  0  0  0  0  0  0  0  0
    4.4939   -3.9044    4.6938 H   0  0  0  0  0  0  0  0  0  0  0  0
  1  2  2  0
  1 33  1  0
  1 34  1  0
  2 22  1  0
  2  3  1  0
  3  4  2  0
  3  5  1  0
  5 31  1  0
  5  6  1  0
  5 35  1  1
  6  7  1  0
  6  8  1  0
  6  9  1  0
  7 36  1  0
  7 37  1  0
  7 38  1  0
  8 39  1  0
  8 40  1  0
  8 41  1  0
  9 15  1  0
  9 10  1  0
  9 42  1  6
 10 11  1  0
 10 43  1  0
 10 44  1  0
 11 12  1  0
 11 45  1  0
 11 46  1  0
 12 17  1  0
 12 13  1  6
 12 14  1  0
 13 47  1  0
 14 15  1  0
 14 48  1  0
 14 49  1  0
 15 16  1  6
 15 19  1  0
 16 17  1  0
 16 50  1  0
 16 51  1  0
 17 18  2  0
 18 52  1  0
 18 53  1  0
 19 24  1  0
 19 20  1  0
 19 54  1  6
 20 21  1  0
 20 22  1  0
 20 55  1  6
 21 56  1  0
 22 23  1  0
 22 57  1  6
 24 23  1  1
 23 58  1  0
 23 59  1  0
 24 31  1  0
 24 25  1  0
 25 26  1  0
 25 27  1  0
 25 60  1  6
 26 61  1  0
 27 28  1  0
 27 29  2  0
 28 62  1  0
 28 63  1  0
 28 64  1  0
 29 30  1  0
 29 65  1  0
 30 31  1  0
 30 66  1  0
 30 67  1  0
 31 32  1  1
 32 68  1  0
 32 69  1  0
 32 70  1  0
M  END
>  <i_m_ct_stereo_status>  (268) 
1

>  <s_m_source_file>  (268) 
/var/tmp/pbs.5076255.sched01/tmp7qb2j_xu/82up84z1qn.sdf

>  <i_m_source_file_index>  (268) 
37

>  <i_lp_mmshare_version>  (268) 
48012

>  <i_f3d_flags>  (268) 
0

>  <s_epik_input>  (268) 
Tz1DMUMoPVtDSDJdKVtDQEBIXShbQ0gyXTIpW0NASF0oW09IXSlbQ0BIXTNbQ0BdMihbQ0BASF0oW09IXSlDKFtDSDNdKT1bQ0hdW0NIMl00KVtDQEBdNChbQ0gzXSlbQ0BASF0xQyhbQ0gzXSkoW0NIM10pW0NAQEhdKFtDQF0zNTYpW0NIMl1bQ0gyXVtDQEBdKFtPSF0pKFtDSDJdNSlDKFtDSDJdNik9W0NIMl0=

>  <s_epik_cmdline>  (268) 
J2VwaWtfcHl0aG9uJywgJy1waHQnLCAnMi4wJywgJy1waCcsICc3LjAnLCAnLXRuJywgJzgnLCAnLW1hJywgJzIwMCcsICctaW1hZScsICc8aW5maWxlLm1hZT4nLCAnLW9tYWUnLCAnPG91dGZpbGUubWFlPic=

>  <r_lp_tautomer_probability>  (268) 
1

>  <r_epik_Ionization_Penalty>  (268) 
3.81795e-07

>  <r_epik_Ionization_Penalty_Charging>  (268) 
0

>  <r_epik_Ionization_Penalty_Neutral>  (268) 
3.81795e-07

>  <r_epik_State_Penalty>  (268) 
-0

>  <r_epik_Charging_Adjusted_Penalty>  (268) 
0

>  <i_epik_Tot_Q>  (268) 
0

>  <i_epik_Tot_abs_Q>  (268) 
0

>  <s_lp_Force_Field>  (268) 
OPLS3e

>  <r_lp_Energy>  (268) 
126.391

>  <b_lp_Chiralities_Consistent>  (268) 
1

>  <s_lp_Variant>  (268) 
74:0-1

>  <s_i_glide_gridfile>  (268) 
pfpi4k_grid

>  <i_i_glide_lignum>  (268) 
37

>  <i_i_glide_rotatable_bonds>  (268) 
3

>  <r_i_docking_score>  (268) 
-4.21961

>  <r_i_glide_ligand_efficiency>  (268) 
-0.131863

>  <r_i_glide_ligand_efficiency_sa>  (268) 
-0.418639

>  <r_i_glide_ligand_efficiency_ln>  (268) 
-0.944887

>  <r_i_glide_gscore>  (268) 
-4.21961

>  <r_i_glide_lipo>  (268) 
-1.0769

>  <r_i_glide_hbond>  (268) 
-0.473385

>  <r_i_glide_metal>  (268) 
-0

>  <r_i_glide_rewards>  (268) 
-0.441772

>  <r_i_glide_evdw>  (268) 
-24.2662

>  <r_i_glide_ecoul>  (268) 
-6.76161

>  <r_i_glide_erotb>  (268) 
0

>  <r_i_glide_esite>  (268) 
0

>  <r_i_glide_emodel>  (268) 
-30.3077

>  <r_i_glide_energy>  (268) 
-31.0278

>  <r_i_glide_einternal>  (268) 
0.877263

>  <r_i_glide_intrahb_reward>  (268) 
-0

>  <i_i_glide_confnum>  (268) 
1

>  <i_i_glide_posenum>  (268) 
38

>  <r_i_glide_eff_state_penalty>  (268) 
0

>  <ligand_id>  (268) 
74

>  <original_smiles>  (268) 
C=C1C(=O)C2C(C)(C)C3CCC4(O)CC3(CC4=C)C3C(O)C1CC31C(O)C(C)=CCC21C

>  <smiles>  (268) 
[H]OC1([H])C(C([H])([H])[H])=C([H])C([H])([H])C2(C([H])([H])[H])C3([H])C(=O)C(=C([H])[H])C4([H])C([H])([H])C12C([H])(C4([H])O[H])C12C([H])([H])C(=C([H])[H])C(O[H])(C([H])([H])C([H])([H])C1([H])C3(C([H])([H])[H])C([H])([H])[H])C2([H])[H]

$$$$
74:0:1
     RDKit          3D

 70 75  0  0  1  0  0  0  0  0999 V2000
    4.3767   -6.5127    3.9860 C   0  0  0  0  0  0  0  0  0  0  0  0
    4.2439   -5.5164    3.0894 C   0  0  0  0  0  0  0  0  0  0  0  0
    5.4965   -4.9170    2.5345 C   0  0  0  0  0  0  0  0  0  0  0  0
    6.5116   -5.6146    2.5139 O   0  0  0  0  0  0  0  0  0  0  0  0
    5.6521   -3.4044    2.1260 C   0  0  1  0  0  0  0  0  0  0  0  0
    6.2528   -3.1325    0.6644 C   0  0  0  0  0  0  0  0  0  0  0  0
    6.8873   -1.7208    0.4878 C   0  0  0  0  0  0  0  0  0  0  0  0
    7.5145   -4.0330    0.4422 C   0  0  0  0  0  0  0  0  0  0  0  0
    5.2446   -3.4484   -0.4840 C   0  0  2  0  0  0  0  0  0  0  0  0
    5.8646   -3.1788   -1.8888 C   0  0  0  0  0  0  0  0  0  0  0  0
    4.9317   -3.4097   -3.0707 C   0  0  0  0  0  0  0  0  0  0  0  0
    3.5340   -2.8641   -2.7946 C   0  0  1  0  0  0  0  0  0  0  0  0
    2.7605   -3.0588   -3.9675 O   0  0  0  0  0  0  0  0  0  0  0  0
    2.9812   -3.5003   -1.5431 C   0  0  0  0  0  0  0  0  0  0  0  0
    3.7782   -2.8833   -0.3763 C   0  0  2  0  0  0  0  0  0  0  0  0
    3.6553   -1.4140   -0.8513 C   0  0  0  0  0  0  0  0  0  0  0  0
    3.5987   -1.4289   -2.3740 C   0  0  0  0  0  0  0  0  0  0  0  0
    3.4910   -0.3772   -3.1750 C   0  0  0  0  0  0  0  0  0  0  0  0
    2.9652   -3.3150    0.9198 C   0  0  1  0  0  0  0  0  0  0  0  0
    2.7000   -4.8535    1.1426 C   0  0  1  0  0  0  0  0  0  0  0  0
    3.3651   -5.8701    0.4254 O   0  0  0  0  0  0  0  0  0  0  0  0
    2.8542   -5.0918    2.6289 C   0  0  2  0  0  0  0  0  0  0  0  0
    2.4065   -3.7623    3.1903 C   0  0  0  0  0  0  0  0  0  0  0  0
    3.1190   -2.6559    2.3586 C   0  0  2  0  0  0  0  0  0  0  0  0
    2.2171   -1.3718    2.4893 C   0  0  1  0  0  0  0  0  0  0  0  0
    1.8497   -1.1063    3.8305 O   0  0  0  0  0  0  0  0  0  0  0  0
    2.8606   -0.1474    1.9349 C   0  0  0  0  0  0  0  0  0  0  0  0
    1.9617    0.9259    1.3595 C   0  0  0  0  0  0  0  0  0  0  0  0
    4.1866    0.0022    1.9976 C   0  0  0  0  0  0  0  0  0  0  0  0
    5.0584   -0.9218    2.8102 C   0  0  0  0  0  0  0  0  0  0  0  0
    4.6153   -2.4344    2.8567 C   0  0  2  0  0  0  0  0  0  0  0  0
    4.7692   -2.6591    4.4095 C   0  0  0  0  0  0  0  0  0  0  0  0
    3.5127   -7.0091    4.4080 H   0  0  0  0  0  0  0  0  0  0  0  0
    5.3402   -6.8574    4.3290 H   0  0  0  0  0  0  0  0  0  0  0  0
    6.5437   -3.1629    2.6820 H   0  0  0  0  0  0  0  0  0  0  0  0
    7.4965   -1.6411   -0.4065 H   0  0  0  0  0  0  0  0  0  0  0  0
    7.6133   -1.5061    1.2670 H   0  0  0  0  0  0  0  0  0  0  0  0
    6.1796   -0.9030    0.4565 H   0  0  0  0  0  0  0  0  0  0  0  0
    8.1350   -3.7118   -0.3926 H   0  0  0  0  0  0  0  0  0  0  0  0
    7.2616   -5.0728    0.2294 H   0  0  0  0  0  0  0  0  0  0  0  0
    8.1702   -4.0177    1.3128 H   0  0  0  0  0  0  0  0  0  0  0  0
    5.1616   -4.5356   -0.4728 H   0  0  0  0  0  0  0  0  0  0  0  0
    6.2012   -2.1445   -1.9656 H   0  0  0  0  0  0  0  0  0  0  0  0
    6.7396   -3.7962   -2.0653 H   0  0  0  0  0  0  0  0  0  0  0  0
    5.3822   -2.8677   -3.9080 H   0  0  0  0  0  0  0  0  0  0  0  0
    4.8886   -4.4700   -3.3354 H   0  0  0  0  0  0  0  0  0  0  0  0
    1.8410   -3.1205   -3.7447 H   0  0  0  0  0  0  0  0  0  0  0  0
    1.9022   -3.3262   -1.4920 H   0  0  0  0  0  0  0  0  0  0  0  0
    3.1571   -4.5687   -1.5279 H   0  0  0  0  0  0  0  0  0  0  0  0
    2.6894   -1.0584   -0.5160 H   0  0  0  0  0  0  0  0  0  0  0  0
    4.4071   -0.7191   -0.4946 H   0  0  0  0  0  0  0  0  0  0  0  0
    3.3723   -0.4710   -4.2464 H   0  0  0  0  0  0  0  0  0  0  0  0
    3.4841    0.6003   -2.7281 H   0  0  0  0  0  0  0  0  0  0  0  0
    1.9682   -2.9850    0.6351 H   0  0  0  0  0  0  0  0  0  0  0  0
    1.6476   -5.0316    0.9110 H   0  0  0  0  0  0  0  0  0  0  0  0
    3.1553   -5.7689   -0.4918 H   0  0  0  0  0  0  0  0  0  0  0  0
    2.1537   -5.8716    2.9299 H   0  0  0  0  0  0  0  0  0  0  0  0
    1.3336   -3.6877    3.0216 H   0  0  0  0  0  0  0  0  0  0  0  0
    2.5177   -3.7051    4.2744 H   0  0  0  0  0  0  0  0  0  0  0  0
    1.2909   -1.5087    1.9313 H   0  0  0  0  0  0  0  0  0  0  0  0
    1.4013   -1.8668    4.1643 H   0  0  0  0  0  0  0  0  0  0  0  0
    1.4005    0.5815    0.4919 H   0  0  0  0  0  0  0  0  0  0  0  0
    2.5416    1.7387    0.9824 H   0  0  0  0  0  0  0  0  0  0  0  0
    1.2906    1.3388    2.1095 H   0  0  0  0  0  0  0  0  0  0  0  0
    4.5972    0.8878    1.5665 H   0  0  0  0  0  0  0  0  0  0  0  0
    6.1174   -0.7706    2.6429 H   0  0  0  0  0  0  0  0  0  0  0  0
    4.9478   -0.4521    3.7896 H   0  0  0  0  0  0  0  0  0  0  0  0
    4.0574   -2.0510    4.9655 H   0  0  0  0  0  0  0  0  0  0  0  0
    5.7658   -2.3775    4.7539 H   0  0  0  0  0  0  0  0  0  0  0  0
    4.6263   -3.6776    4.7641 H   0  0  0  0  0  0  0  0  0  0  0  0
  1  2  2  0
  1 33  1  0
  1 34  1  0
  2 22  1  0
  2  3  1  0
  3  4  2  0
  3  5  1  0
  5 31  1  0
  5  6  1  0
  5 35  1  1
  6  7  1  0
  6  8  1  0
  6  9  1  0
  7 36  1  0
  7 37  1  0
  7 38  1  0
  8 39  1  0
  8 40  1  0
  8 41  1  0
  9 15  1  0
  9 10  1  0
  9 42  1  6
 10 11  1  0
 10 43  1  0
 10 44  1  0
 11 12  1  0
 11 45  1  0
 11 46  1  0
 12 17  1  0
 12 13  1  6
 12 14  1  0
 13 47  1  0
 14 15  1  0
 14 48  1  0
 14 49  1  0
 15 16  1  6
 15 19  1  0
 16 17  1  0
 16 50  1  0
 16 51  1  0
 17 18  2  0
 18 52  1  0
 18 53  1  0
 19 24  1  0
 19 20  1  0
 19 54  1  6
 20 21  1  0
 20 22  1  0
 20 55  1  6
 21 56  1  0
 22 23  1  0
 22 57  1  1
 24 23  1  1
 23 58  1  0
 23 59  1  0
 24 31  1  0
 24 25  1  0
 25 26  1  0
 25 27  1  0
 25 60  1  6
 26 61  1  0
 27 28  1  0
 27 29  2  0
 28 62  1  0
 28 63  1  0
 28 64  1  0
 29 30  1  0
 29 65  1  0
 30 31  1  0
 30 66  1  0
 30 67  1  0
 31 32  1  1
 32 68  1  0
 32 69  1  0
 32 70  1  0
M  END
>  <i_m_ct_stereo_status>  (269) 
1

>  <s_m_source_file>  (269) 
/var/tmp/pbs.5076255.sched01/tmp7qb2j_xu/82up84z1qn.sdf

>  <i_m_source_file_index>  (269) 
37

>  <i_lp_mmshare_version>  (269) 
48012

>  <i_f3d_flags>  (269) 
0

>  <s_epik_input>  (269) 
Tz1DMUMoPVtDSDJdKVtDQEBIXShbQ0gyXTIpW0NASF0oW09IXSlbQ0BIXTNbQ0BdMihbQ0BASF0oW09IXSlDKFtDSDNdKT1bQ0hdW0NIMl00KVtDQEBdNChbQ0gzXSlbQ0BASF0xQyhbQ0gzXSkoW0NIM10pW0NAQEhdKFtDQF0zNTYpW0NIMl1bQ0gyXVtDQEBdKFtPSF0pKFtDSDJdNSlDKFtDSDJdNik9W0NIMl0=

>  <s_epik_cmdline>  (269) 
J2VwaWtfcHl0aG9uJywgJy1waHQnLCAnMi4wJywgJy1waCcsICc3LjAnLCAnLXRuJywgJzgnLCAnLW1hJywgJzIwMCcsICctaW1hZScsICc8aW5maWxlLm1hZT4nLCAnLW9tYWUnLCAnPG91dGZpbGUubWFlPic=

>  <r_lp_tautomer_probability>  (269) 
1

>  <r_epik_Ionization_Penalty>  (269) 
3.81795e-07

>  <r_epik_Ionization_Penalty_Charging>  (269) 
0

>  <r_epik_Ionization_Penalty_Neutral>  (269) 
3.81795e-07

>  <r_epik_State_Penalty>  (269) 
-0

>  <r_epik_Charging_Adjusted_Penalty>  (269) 
0

>  <i_epik_Tot_Q>  (269) 
0

>  <i_epik_Tot_abs_Q>  (269) 
0

>  <s_lp_Force_Field>  (269) 
OPLS3e

>  <r_lp_Energy>  (269) 
126.391

>  <b_lp_Chiralities_Consistent>  (269) 
1

>  <s_lp_Variant>  (269) 
74:0-1

>  <s_i_glide_gridfile>  (269) 
pfpi4k_grid

>  <i_i_glide_lignum>  (269) 
37

>  <i_i_glide_rotatable_bonds>  (269) 
3

>  <r_i_docking_score>  (269) 
-3.63118

>  <r_i_glide_ligand_efficiency>  (269) 
-0.113474

>  <r_i_glide_ligand_efficiency_sa>  (269) 
-0.360259

>  <r_i_glide_ligand_efficiency_ln>  (269) 
-0.813121

>  <r_i_glide_gscore>  (269) 
-3.63118

>  <r_i_glide_lipo>  (269) 
-1.10704

>  <r_i_glide_hbond>  (269) 
-0.241087

>  <r_i_glide_metal>  (269) 
-0

>  <r_i_glide_rewards>  (269) 
-0.440723

>  <r_i_glide_evdw>  (269) 
-21.4473

>  <r_i_glide_ecoul>  (269) 
-5.13314

>  <r_i_glide_erotb>  (269) 
0

>  <r_i_glide_esite>  (269) 
0

>  <r_i_glide_emodel>  (269) 
-26.0241

>  <r_i_glide_energy>  (269) 
-26.5805

>  <r_i_glide_einternal>  (269) 
1.05655

>  <r_i_glide_intrahb_reward>  (269) 
-0

>  <i_i_glide_confnum>  (269) 
2

>  <i_i_glide_posenum>  (269) 
29

>  <r_i_glide_eff_state_penalty>  (269) 
0

>  <ligand_id>  (269) 
74

>  <original_smiles>  (269) 
C=C1C(=O)C2C(C)(C)C3CCC4(O)CC3(CC4=C)C3C(O)C1CC31C(O)C(C)=CCC21C

>  <smiles>  (269) 
[H]OC1([H])C(C([H])([H])[H])=C([H])C([H])([H])C2(C([H])([H])[H])C3([H])C(=O)C(=C([H])[H])C4([H])C([H])([H])C12C([H])(C4([H])O[H])C12C([H])([H])C(=C([H])[H])C(O[H])(C([H])([H])C([H])([H])C1([H])C3(C([H])([H])[H])C([H])([H])[H])C2([H])[H]

$$$$
74:0:2
     RDKit          3D

 70 75  0  0  1  0  0  0  0  0999 V2000
    4.3800   -6.6551    3.8018 C   0  0  0  0  0  0  0  0  0  0  0  0
    4.2888   -5.6161    2.9480 C   0  0  0  0  0  0  0  0  0  0  0  0
    5.5603   -4.9584    2.5118 C   0  0  0  0  0  0  0  0  0  0  0  0
    6.5924   -5.6262    2.5237 O   0  0  0  0  0  0  0  0  0  0  0  0
    5.6989   -3.4269    2.1815 C   0  0  1  0  0  0  0  0  0  0  0  0
    6.4025   -3.0649    0.7790 C   0  0  0  0  0  0  0  0  0  0  0  0
    6.9675   -1.6127    0.7114 C   0  0  0  0  0  0  0  0  0  0  0  0
    7.7054   -3.9178    0.6212 C   0  0  0  0  0  0  0  0  0  0  0  0
    5.5123   -3.3678   -0.4595 C   0  0  2  0  0  0  0  0  0  0  0  0
    6.2258   -2.9931   -1.7930 C   0  0  0  0  0  0  0  0  0  0  0  0
    5.3831   -3.2323   -3.0482 C   0  0  0  0  0  0  0  0  0  0  0  0
    3.9735   -2.6977   -2.8719 C   0  0  1  0  0  0  0  0  0  0  0  0
    3.2900   -2.8396   -4.1078 O   0  0  0  0  0  0  0  0  0  0  0  0
    3.3820   -3.4475   -1.7023 C   0  0  0  0  0  0  0  0  0  0  0  0
    4.0300   -2.8393   -0.4446 C   0  0  2  0  0  0  0  0  0  0  0  0
    3.9027   -1.3345   -0.8624 C   0  0  0  0  0  0  0  0  0  0  0  0
    3.9845   -1.2787   -2.3917 C   0  0  0  0  0  0  0  0  0  0  0  0
    3.9034   -0.2081   -3.1920 C   0  0  0  0  0  0  0  0  0  0  0  0
    3.1418   -3.3376    0.7727 C   0  0  1  0  0  0  0  0  0  0  0  0
    2.8989   -4.8858    0.9154 C   0  0  1  0  0  0  0  0  0  0  0  0
    3.6307   -5.8599    0.1909 O   0  0  0  0  0  0  0  0  0  0  0  0
    2.9349   -5.2037    2.3930 C   0  0  2  0  0  0  0  0  0  0  0  0
    2.4161   -3.9134    2.9848 C   0  0  0  0  0  0  0  0  0  0  0  0
    3.1508   -2.7542    2.2558 C   0  0  2  0  0  0  0  0  0  0  0  0
    2.1953   -1.5123    2.3843 C   0  0  1  0  0  0  0  0  0  0  0  0
    1.7163   -1.3444    3.7006 O   0  0  0  0  0  0  0  0  0  0  0  0
    2.8409   -0.2308    1.9689 C   0  0  0  0  0  0  0  0  0  0  0  0
    1.9714    0.8827    1.4112 C   0  0  0  0  0  0  0  0  0  0  0  0
    4.1512   -0.0564    2.1401 C   0  0  0  0  0  0  0  0  0  0  0  0
    4.9874   -1.0023    2.9512 C   0  0  0  0  0  0  0  0  0  0  0  0
    4.5912   -2.5196    2.8803 C   0  0  2  0  0  0  0  0  0  0  0  0
    4.6453   -2.8252    4.4241 C   0  0  0  0  0  0  0  0  0  0  0  0
    3.5017   -7.1975    4.1284 H   0  0  0  0  0  0  0  0  0  0  0  0
    5.3285   -6.9952    4.1946 H   0  0  0  0  0  0  0  0  0  0  0  0
    6.5144   -3.1816    2.8325 H   0  0  0  0  0  0  0  0  0  0  0  0
    7.6965   -1.4851   -0.0861 H   0  0  0  0  0  0  0  0  0  0  0  0
    7.5168   -1.3504    1.5977 H   0  0  0  0  0  0  0  0  0  0  0  0
    6.2371   -0.8241    0.6154 H   0  0  0  0  0  0  0  0  0  0  0  0
    8.3838   -3.5429   -0.1394 H   0  0  0  0  0  0  0  0  0  0  0  0
    7.5100   -4.9561    0.3456 H   0  0  0  0  0  0  0  0  0  0  0  0
    8.2856   -3.9288    1.5440 H   0  0  0  0  0  0  0  0  0  0  0  0
    5.4697   -4.4501   -0.5041 H   0  0  0  0  0  0  0  0  0  0  0  0
    6.5218   -1.9473   -1.7958 H   0  0  0  0  0  0  0  0  0  0  0  0
    7.1422   -3.5604   -1.9238 H   0  0  0  0  0  0  0  0  0  0  0  0
    5.8216   -2.6901   -3.8657 H   0  0  0  0  0  0  0  0  0  0  0  0
    5.3719   -4.2890   -3.3216 H   0  0  0  0  0  0  0  0  0  0  0  0
    2.3571   -2.7548   -3.9706 H   0  0  0  0  0  0  0  0  0  0  0  0
    2.2943   -3.3557   -1.7210 H   0  0  0  0  0  0  0  0  0  0  0  0
    3.7256   -4.4682   -1.7600 H   0  0  0  0  0  0  0  0  0  0  0  0
    2.9167   -0.9963   -0.5900 H   0  0  0  0  0  0  0  0  0  0  0  0
    4.5954   -0.6373   -0.4190 H   0  0  0  0  0  0  0  0  0  0  0  0
    3.8930   -0.3247   -4.2774 H   0  0  0  0  0  0  0  0  0  0  0  0
    3.7954    0.7767   -2.7752 H   0  0  0  0  0  0  0  0  0  0  0  0
    2.1620   -3.0198    0.4269 H   0  0  0  0  0  0  0  0  0  0  0  0
    1.8709   -5.0595    0.5887 H   0  0  0  0  0  0  0  0  0  0  0  0
    4.5516   -5.7093    0.3157 H   0  0  0  0  0  0  0  0  0  0  0  0
    2.2313   -6.0112    2.5972 H   0  0  0  0  0  0  0  0  0  0  0  0
    1.3570   -3.8446    2.7377 H   0  0  0  0  0  0  0  0  0  0  0  0
    2.4352   -3.9023    4.0768 H   0  0  0  0  0  0  0  0  0  0  0  0
    1.3355   -1.6336    1.7303 H   0  0  0  0  0  0  0  0  0  0  0  0
    2.4557   -1.0985    4.2329 H   0  0  0  0  0  0  0  0  0  0  0  0
    1.4143    0.5528    0.5380 H   0  0  0  0  0  0  0  0  0  0  0  0
    2.5725    1.7530    1.1318 H   0  0  0  0  0  0  0  0  0  0  0  0
    1.2396    1.2220    2.1519 H   0  0  0  0  0  0  0  0  0  0  0  0
    4.5797    0.8642    1.8212 H   0  0  0  0  0  0  0  0  0  0  0  0
    6.0483   -0.8056    2.8683 H   0  0  0  0  0  0  0  0  0  0  0  0
    4.8124   -0.5911    3.9506 H   0  0  0  0  0  0  0  0  0  0  0  0
    3.8802   -2.2645    4.9582 H   0  0  0  0  0  0  0  0  0  0  0  0
    5.6057   -2.5351    4.8504 H   0  0  0  0  0  0  0  0  0  0  0  0
    4.5020   -3.8578    4.7186 H   0  0  0  0  0  0  0  0  0  0  0  0
  1  2  2  0
  1 33  1  0
  1 34  1  0
  2 22  1  0
  2  3  1  0
  3  4  2  0
  3  5  1  0
  5 31  1  0
  5  6  1  0
  5 35  1  1
  6  7  1  0
  6  8  1  0
  6  9  1  0
  7 36  1  0
  7 37  1  0
  7 38  1  0
  8 39  1  0
  8 40  1  0
  8 41  1  0
  9 15  1  0
  9 10  1  0
  9 42  1  6
 10 11  1  0
 10 43  1  0
 10 44  1  0
 11 12  1  0
 11 45  1  0
 11 46  1  0
 12 17  1  0
 12 13  1  6
 12 14  1  0
 13 47  1  0
 14 15  1  0
 14 48  1  0
 14 49  1  0
 15 16  1  6
 15 19  1  0
 16 17  1  0
 16 50  1  0
 16 51  1  0
 17 18  2  0
 18 52  1  0
 18 53  1  0
 19 24  1  0
 19 20  1  0
 19 54  1  6
 20 21  1  0
 20 22  1  0
 20 55  1  6
 21 56  1  0
 22 23  1  0
 22 57  1  6
 24 23  1  1
 23 58  1  0
 23 59  1  0
 24 31  1  0
 24 25  1  0
 25 26  1  0
 25 27  1  0
 25 60  1  6
 26 61  1  0
 27 28  1  0
 27 29  2  0
 28 62  1  0
 28 63  1  0
 28 64  1  0
 29 30  1  0
 29 65  1  0
 30 31  1  0
 30 66  1  0
 30 67  1  0
 31 32  1  1
 32 68  1  0
 32 69  1  0
 32 70  1  0
M  END
>  <i_m_ct_stereo_status>  (270) 
1

>  <s_m_source_file>  (270) 
/var/tmp/pbs.5076255.sched01/tmp7qb2j_xu/82up84z1qn.sdf

>  <i_m_source_file_index>  (270) 
37

>  <i_lp_mmshare_version>  (270) 
48012

>  <i_f3d_flags>  (270) 
0

>  <s_epik_input>  (270) 
Tz1DMUMoPVtDSDJdKVtDQEBIXShbQ0gyXTIpW0NASF0oW09IXSlbQ0BIXTNbQ0BdMihbQ0BASF0oW09IXSlDKFtDSDNdKT1bQ0hdW0NIMl00KVtDQEBdNChbQ0gzXSlbQ0BASF0xQyhbQ0gzXSkoW0NIM10pW0NAQEhdKFtDQF0zNTYpW0NIMl1bQ0gyXVtDQEBdKFtPSF0pKFtDSDJdNSlDKFtDSDJdNik9W0NIMl0=

>  <s_epik_cmdline>  (270) 
J2VwaWtfcHl0aG9uJywgJy1waHQnLCAnMi4wJywgJy1waCcsICc3LjAnLCAnLXRuJywgJzgnLCAnLW1hJywgJzIwMCcsICctaW1hZScsICc8aW5maWxlLm1hZT4nLCAnLW9tYWUnLCAnPG91dGZpbGUubWFlPic=

>  <r_lp_tautomer_probability>  (270) 
1

>  <r_epik_Ionization_Penalty>  (270) 
3.81795e-07

>  <r_epik_Ionization_Penalty_Charging>  (270) 
0

>  <r_epik_Ionization_Penalty_Neutral>  (270) 
3.81795e-07

>  <r_epik_State_Penalty>  (270) 
-0

>  <r_epik_Charging_Adjusted_Penalty>  (270) 
0

>  <i_epik_Tot_Q>  (270) 
0

>  <i_epik_Tot_abs_Q>  (270) 
0

>  <s_lp_Force_Field>  (270) 
OPLS3e

>  <r_lp_Energy>  (270) 
126.391

>  <b_lp_Chiralities_Consistent>  (270) 
1

>  <s_lp_Variant>  (270) 
74:0-1

>  <s_i_glide_gridfile>  (270) 
pfpi4k_grid

>  <i_i_glide_lignum>  (270) 
37

>  <i_i_glide_rotatable_bonds>  (270) 
3

>  <r_i_docking_score>  (270) 
-3.05367

>  <r_i_glide_ligand_efficiency>  (270) 
-0.0954272

>  <r_i_glide_ligand_efficiency_sa>  (270) 
-0.302963

>  <r_i_glide_ligand_efficiency_ln>  (270) 
-0.6838

>  <r_i_glide_gscore>  (270) 
-3.05367

>  <r_i_glide_lipo>  (270) 
-1.05975

>  <r_i_glide_hbond>  (270) 
-0.128128

>  <r_i_glide_metal>  (270) 
-0

>  <r_i_glide_rewards>  (270) 
-0.441864

>  <r_i_glide_evdw>  (270) 
-22.2414

>  <r_i_glide_ecoul>  (270) 
-2.07904

>  <r_i_glide_erotb>  (270) 
0

>  <r_i_glide_esite>  (270) 
0

>  <r_i_glide_emodel>  (270) 
-24.0469

>  <r_i_glide_energy>  (270) 
-24.3205

>  <r_i_glide_einternal>  (270) 
0.119221

>  <r_i_glide_intrahb_reward>  (270) 
-0

>  <i_i_glide_confnum>  (270) 
2

>  <i_i_glide_posenum>  (270) 
32

>  <r_i_glide_eff_state_penalty>  (270) 
0

>  <ligand_id>  (270) 
74

>  <original_smiles>  (270) 
C=C1C(=O)C2C(C)(C)C3CCC4(O)CC3(CC4=C)C3C(O)C1CC31C(O)C(C)=CCC21C

>  <smiles>  (270) 
[H]OC1([H])C(C([H])([H])[H])=C([H])C([H])([H])C2(C([H])([H])[H])C3([H])C(=O)C(=C([H])[H])C4([H])C([H])([H])C12C([H])(C4([H])O[H])C12C([H])([H])C(=C([H])[H])C(O[H])(C([H])([H])C([H])([H])C1([H])C3(C([H])([H])[H])C([H])([H])[H])C2([H])[H]

$$$$
75:0:0
     RDKit          3D

 26 28  0  0  1  0  0  0  0  0999 V2000
   -0.9750   -8.6308    4.6212 C   0  0  0  0  0  0  0  0  0  0  0  0
   -0.2821   -7.3872    4.1422 C   0  0  0  0  0  0  0  0  0  0  0  0
    0.2120   -6.2661    4.7559 C   0  0  0  0  0  0  0  0  0  0  0  0
    0.1684   -5.9958    6.1431 N   0  0  0  0  0  0  0  0  0  0  0  0
    0.2853   -6.8780    7.1575 C   0  0  0  0  0  0  0  0  0  0  0  0
    0.1927   -6.4003    8.3963 N   0  0  0  0  0  0  0  0  0  0  0  0
    0.0409   -5.0508    8.1572 C   0  0  0  0  0  0  0  0  0  0  0  0
   -0.0749   -3.9472    9.0318 C   0  0  0  0  0  0  0  0  0  0  0  0
   -0.1841   -2.7050    8.5025 N   0  0  0  0  0  0  0  0  0  0  0  0
   -0.1478   -2.5736    7.1695 C   0  0  0  0  0  0  0  0  0  0  0  0
   -0.0680   -3.5142    6.2238 N   0  0  0  0  0  0  0  0  0  0  0  0
    0.0352   -4.7600    6.7690 C   0  0  0  0  0  0  0  0  0  0  0  0
    0.7677   -5.4460    3.7369 C   0  0  0  0  0  0  0  0  0  0  0  0
    0.6206   -6.0074    2.5508 N   0  0  0  0  0  0  0  0  0  0  0  0
   -0.0047   -7.1825    2.7977 N   0  0  0  0  0  0  0  0  0  0  0  0
   -0.2589   -8.0642    1.6830 C   0  0  0  0  0  0  0  0  0  0  0  0
   -1.0090   -8.7015    5.7065 H   0  0  0  0  0  0  0  0  0  0  0  0
   -0.4566   -9.5230    4.2645 H   0  0  0  0  0  0  0  0  0  0  0  0
   -2.0018   -8.6608    4.2500 H   0  0  0  0  0  0  0  0  0  0  0  0
    0.4753   -7.9322    6.9879 H   0  0  0  0  0  0  0  0  0  0  0  0
   -0.0849   -4.0725   10.1072 H   0  0  0  0  0  0  0  0  0  0  0  0
   -0.2367   -1.5553    6.8202 H   0  0  0  0  0  0  0  0  0  0  0  0
    1.2648   -4.4916    3.7994 H   0  0  0  0  0  0  0  0  0  0  0  0
   -1.0894   -8.7423    1.8998 H   0  0  0  0  0  0  0  0  0  0  0  0
    0.6381   -8.6537    1.4845 H   0  0  0  0  0  0  0  0  0  0  0  0
   -0.5080   -7.4901    0.7926 H   0  0  0  0  0  0  0  0  0  0  0  0
  1  2  1  0
  1 17  1  0
  1 18  1  0
  1 19  1  0
  2 15  1  0
  2  3  2  0
  3  4  1  0
  3 13  1  0
  4 12  1  0
  4  5  1  0
  5  6  2  0
  5 20  1  0
  6  7  1  0
  7 12  2  0
  7  8  1  0
  8  9  2  0
  8 21  1  0
  9 10  1  0
 10 11  2  0
 10 22  1  0
 11 12  1  0
 13 14  2  0
 13 23  1  0
 14 15  1  0
 15 16  1  0
 16 24  1  0
 16 25  1  0
 16 26  1  0
M  END
>  <i_m_ct_stereo_status>  (271) 
1

>  <s_m_source_file>  (271) 
/var/tmp/pbs.5076255.sched01/tmp7qb2j_xu/82up84z1qn.sdf

>  <i_m_source_file_index>  (271) 
38

>  <i_lp_mmshare_version>  (271) 
48012

>  <i_f3d_flags>  (271) 
0

>  <s_epik_input>  (271) 
W0NIM11uMW5bY0hdYyhjMVtDSDNdKS1uKFtjSF1uMiljKGMyMyluW2NIXW5bY0hdMw==

>  <s_epik_cmdline>  (271) 
J2VwaWtfcHl0aG9uJywgJy1waHQnLCAnMi4wJywgJy1waCcsICc3LjAnLCAnLXRuJywgJzgnLCAnLW1hJywgJzIwMCcsICctaW1hZScsICc8aW5maWxlLm1hZT4nLCAnLW9tYWUnLCAnPG91dGZpbGUubWFlPic=

>  <r_lp_tautomer_probability>  (271) 
1

>  <r_epik_Ionization_Penalty>  (271) 
2.96652e-05

>  <r_epik_Ionization_Penalty_Charging>  (271) 
0

>  <r_epik_Ionization_Penalty_Neutral>  (271) 
2.96652e-05

>  <r_epik_State_Penalty>  (271) 
-0

>  <r_epik_Charging_Adjusted_Penalty>  (271) 
0

>  <i_epik_Tot_Q>  (271) 
0

>  <i_epik_Tot_abs_Q>  (271) 
0

>  <s_lp_Force_Field>  (271) 
OPLS3e

>  <r_lp_Energy>  (271) 
17.0286

>  <b_lp_Chiralities_Consistent>  (271) 
1

>  <s_lp_Variant>  (271) 
75:0-1

>  <s_i_glide_gridfile>  (271) 
pfpi4k_grid

>  <i_i_glide_lignum>  (271) 
38

>  <i_i_glide_rotatable_bonds>  (271) 
1

>  <r_i_docking_score>  (271) 
-3.52313

>  <r_i_glide_ligand_efficiency>  (271) 
-0.220196

>  <r_i_glide_ligand_efficiency_sa>  (271) 
-0.554859

>  <r_i_glide_ligand_efficiency_ln>  (271) 
-0.933877

>  <r_i_glide_gscore>  (271) 
-3.52313

>  <r_i_glide_lipo>  (271) 
0

>  <r_i_glide_hbond>  (271) 
-0.228306

>  <r_i_glide_metal>  (271) 
-0

>  <r_i_glide_rewards>  (271) 
-1.94846

>  <r_i_glide_evdw>  (271) 
-13.7144

>  <r_i_glide_ecoul>  (271) 
-5.94282

>  <r_i_glide_erotb>  (271) 
0.363957

>  <r_i_glide_esite>  (271) 
-0.133189

>  <r_i_glide_emodel>  (271) 
-24.8418

>  <r_i_glide_energy>  (271) 
-19.6572

>  <r_i_glide_einternal>  (271) 
0.182769

>  <r_i_glide_intrahb_reward>  (271) 
-0

>  <i_i_glide_confnum>  (271) 
1

>  <i_i_glide_posenum>  (271) 
25

>  <r_i_glide_eff_state_penalty>  (271) 
0

>  <ligand_id>  (271) 
75

>  <original_smiles>  (271) 
Cc1c(-n2cnc3cncnc32)cnn1C

>  <smiles>  (271) 
[H]c1nc([H])c2nc([H])n(-c3c([H])nn(C([H])([H])[H])c3C([H])([H])[H])c2n1

$$$$
75:0:1
     RDKit          3D

 26 28  0  0  1  0  0  0  0  0999 V2000
    5.1662   -1.2617   -1.4469 C   0  0  0  0  0  0  0  0  0  0  0  0
    3.9696   -2.0903   -1.8381 C   0  0  0  0  0  0  0  0  0  0  0  0
    3.2934   -3.1601   -1.3026 C   0  0  0  0  0  0  0  0  0  0  0  0
    3.6067   -3.8628   -0.0975 N   0  0  0  0  0  0  0  0  0  0  0  0
    4.6779   -3.7222    0.7172 C   0  0  0  0  0  0  0  0  0  0  0  0
    4.7485   -4.4770    1.7999 N   0  0  0  0  0  0  0  0  0  0  0  0
    3.6223   -5.2608    1.6520 C   0  0  0  0  0  0  0  0  0  0  0  0
    3.1261   -6.3097    2.4506 C   0  0  0  0  0  0  0  0  0  0  0  0
    1.9896   -6.9464    2.0617 N   0  0  0  0  0  0  0  0  0  0  0  0
    1.3922   -6.5394    0.9311 C   0  0  0  0  0  0  0  0  0  0  0  0
    1.7328   -5.5427    0.0992 N   0  0  0  0  0  0  0  0  0  0  0  0
    2.8883   -4.9141    0.4859 C   0  0  0  0  0  0  0  0  0  0  0  0
    2.2324   -3.4553   -2.2070 C   0  0  0  0  0  0  0  0  0  0  0  0
    2.2676   -2.6607   -3.2653 N   0  0  0  0  0  0  0  0  0  0  0  0
    3.2989   -1.8234   -3.0243 N   0  0  0  0  0  0  0  0  0  0  0  0
    3.5448   -0.7634   -3.9896 C   0  0  0  0  0  0  0  0  0  0  0  0
    5.5014   -1.3433   -0.4308 H   0  0  0  0  0  0  0  0  0  0  0  0
    4.9133   -0.2126   -1.5623 H   0  0  0  0  0  0  0  0  0  0  0  0
    6.0111   -1.4761   -2.1114 H   0  0  0  0  0  0  0  0  0  0  0  0
    5.4947   -3.0566    0.5655 H   0  0  0  0  0  0  0  0  0  0  0  0
    3.6522   -6.6153    3.3542 H   0  0  0  0  0  0  0  0  0  0  0  0
    0.4969   -7.0954    0.6911 H   0  0  0  0  0  0  0  0  0  0  0  0
    1.4282   -4.1875   -2.1683 H   0  0  0  0  0  0  0  0  0  0  0  0
    4.5988   -0.4673   -3.9598 H   0  0  0  0  0  0  0  0  0  0  0  0
    2.9195    0.1026   -3.7585 H   0  0  0  0  0  0  0  0  0  0  0  0
    3.3144   -1.1112   -5.0016 H   0  0  0  0  0  0  0  0  0  0  0  0
  1  2  1  0
  1 17  1  0
  1 18  1  0
  1 19  1  0
  2 15  1  0
  2  3  2  0
  3  4  1  0
  3 13  1  0
  4 12  1  0
  4  5  1  0
  5  6  2  0
  5 20  1  0
  6  7  1  0
  7 12  2  0
  7  8  1  0
  8  9  2  0
  8 21  1  0
  9 10  1  0
 10 11  2  0
 10 22  1  0
 11 12  1  0
 13 14  2  0
 13 23  1  0
 14 15  1  0
 15 16  1  0
 16 24  1  0
 16 25  1  0
 16 26  1  0
M  END
>  <i_m_ct_stereo_status>  (272) 
1

>  <s_m_source_file>  (272) 
/var/tmp/pbs.5076255.sched01/tmp7qb2j_xu/82up84z1qn.sdf

>  <i_m_source_file_index>  (272) 
38

>  <i_lp_mmshare_version>  (272) 
48012

>  <i_f3d_flags>  (272) 
0

>  <s_epik_input>  (272) 
W0NIM11uMW5bY0hdYyhjMVtDSDNdKS1uKFtjSF1uMiljKGMyMyluW2NIXW5bY0hdMw==

>  <s_epik_cmdline>  (272) 
J2VwaWtfcHl0aG9uJywgJy1waHQnLCAnMi4wJywgJy1waCcsICc3LjAnLCAnLXRuJywgJzgnLCAnLW1hJywgJzIwMCcsICctaW1hZScsICc8aW5maWxlLm1hZT4nLCAnLW9tYWUnLCAnPG91dGZpbGUubWFlPic=

>  <r_lp_tautomer_probability>  (272) 
1

>  <r_epik_Ionization_Penalty>  (272) 
2.96652e-05

>  <r_epik_Ionization_Penalty_Charging>  (272) 
0

>  <r_epik_Ionization_Penalty_Neutral>  (272) 
2.96652e-05

>  <r_epik_State_Penalty>  (272) 
-0

>  <r_epik_Charging_Adjusted_Penalty>  (272) 
0

>  <i_epik_Tot_Q>  (272) 
0

>  <i_epik_Tot_abs_Q>  (272) 
0

>  <s_lp_Force_Field>  (272) 
OPLS3e

>  <r_lp_Energy>  (272) 
17.0286

>  <b_lp_Chiralities_Consistent>  (272) 
1

>  <s_lp_Variant>  (272) 
75:0-1

>  <s_i_glide_gridfile>  (272) 
pfpi4k_grid

>  <i_i_glide_lignum>  (272) 
38

>  <i_i_glide_rotatable_bonds>  (272) 
1

>  <r_i_docking_score>  (272) 
-3.42713

>  <r_i_glide_ligand_efficiency>  (272) 
-0.214196

>  <r_i_glide_ligand_efficiency_sa>  (272) 
-0.539739

>  <r_i_glide_ligand_efficiency_ln>  (272) 
-0.90843

>  <r_i_glide_gscore>  (272) 
-3.42713

>  <r_i_glide_lipo>  (272) 
-0.436104

>  <r_i_glide_hbond>  (272) 
-0.0935087

>  <r_i_glide_metal>  (272) 
-0

>  <r_i_glide_rewards>  (272) 
-1.99562

>  <r_i_glide_evdw>  (272) 
-21.3302

>  <r_i_glide_ecoul>  (272) 
-0.66953

>  <r_i_glide_erotb>  (272) 
0.363957

>  <r_i_glide_esite>  (272) 
-0.0989179

>  <r_i_glide_emodel>  (272) 
-26.4269

>  <r_i_glide_energy>  (272) 
-21.9997

>  <r_i_glide_einternal>  (272) 
0.550864

>  <r_i_glide_intrahb_reward>  (272) 
-0

>  <i_i_glide_confnum>  (272) 
4

>  <i_i_glide_posenum>  (272) 
4

>  <r_i_glide_eff_state_penalty>  (272) 
0

>  <ligand_id>  (272) 
75

>  <original_smiles>  (272) 
Cc1c(-n2cnc3cncnc32)cnn1C

>  <smiles>  (272) 
[H]c1nc([H])c2nc([H])n(-c3c([H])nn(C([H])([H])[H])c3C([H])([H])[H])c2n1

$$$$
75:0:2
     RDKit          3D

 26 28  0  0  1  0  0  0  0  0999 V2000
    0.5092    1.6596    2.0687 C   0  0  0  0  0  0  0  0  0  0  0  0
    0.3471    0.6059    3.1345 C   0  0  0  0  0  0  0  0  0  0  0  0
   -0.3247    0.5438    4.3265 C   0  0  0  0  0  0  0  0  0  0  0  0
   -1.1244    1.5663    4.8965 N   0  0  0  0  0  0  0  0  0  0  0  0
   -1.8510    2.4964    4.2404 C   0  0  0  0  0  0  0  0  0  0  0  0
   -2.5116    3.3812    4.9834 N   0  0  0  0  0  0  0  0  0  0  0  0
   -2.1979    2.9596    6.2618 C   0  0  0  0  0  0  0  0  0  0  0  0
   -2.5863    3.4422    7.5314 C   0  0  0  0  0  0  0  0  0  0  0  0
   -2.1413    2.8045    8.6359 N   0  0  0  0  0  0  0  0  0  0  0  0
   -1.3506    1.7394    8.4850 C   0  0  0  0  0  0  0  0  0  0  0  0
   -0.9291    1.1466    7.3596 N   0  0  0  0  0  0  0  0  0  0  0  0
   -1.3613    1.8168    6.2466 C   0  0  0  0  0  0  0  0  0  0  0  0
   -0.0779   -0.7415    4.8804 C   0  0  0  0  0  0  0  0  0  0  0  0
    0.6865   -1.4546    4.0760 N   0  0  0  0  0  0  0  0  0  0  0  0
    0.9548   -0.6378    3.0263 N   0  0  0  0  0  0  0  0  0  0  0  0
    1.7796   -1.1505    1.9560 C   0  0  0  0  0  0  0  0  0  0  0  0
   -0.1157    2.5354    2.2410 H   0  0  0  0  0  0  0  0  0  0  0  0
    0.2403    1.2626    1.0878 H   0  0  0  0  0  0  0  0  0  0  0  0
    1.5450    2.0034    2.0213 H   0  0  0  0  0  0  0  0  0  0  0  0
   -1.9391    2.5164    3.1592 H   0  0  0  0  0  0  0  0  0  0  0  0
   -3.2234    4.3025    7.6588 H   0  0  0  0  0  0  0  0  0  0  0  0
   -1.0419    1.2854    9.4136 H   0  0  0  0  0  0  0  0  0  0  0  0
   -0.4303   -1.1917    5.7980 H   0  0  0  0  0  0  0  0  0  0  0  0
    2.2404   -0.3323    1.3988 H   0  0  0  0  0  0  0  0  0  0  0  0
    1.1677   -1.7365    1.2755 H   0  0  0  0  0  0  0  0  0  0  0  0
    2.5675   -1.7878    2.3579 H   0  0  0  0  0  0  0  0  0  0  0  0
  1  2  1  0
  1 17  1  0
  1 18  1  0
  1 19  1  0
  2 15  1  0
  2  3  2  0
  3  4  1  0
  3 13  1  0
  4 12  1  0
  4  5  1  0
  5  6  2  0
  5 20  1  0
  6  7  1  0
  7 12  2  0
  7  8  1  0
  8  9  2  0
  8 21  1  0
  9 10  1  0
 10 11  2  0
 10 22  1  0
 11 12  1  0
 13 14  2  0
 13 23  1  0
 14 15  1  0
 15 16  1  0
 16 24  1  0
 16 25  1  0
 16 26  1  0
M  END
>  <i_m_ct_stereo_status>  (273) 
1

>  <s_m_source_file>  (273) 
/var/tmp/pbs.5076255.sched01/tmp7qb2j_xu/82up84z1qn.sdf

>  <i_m_source_file_index>  (273) 
38

>  <i_lp_mmshare_version>  (273) 
48012

>  <i_f3d_flags>  (273) 
0

>  <s_epik_input>  (273) 
W0NIM11uMW5bY0hdYyhjMVtDSDNdKS1uKFtjSF1uMiljKGMyMyluW2NIXW5bY0hdMw==

>  <s_epik_cmdline>  (273) 
J2VwaWtfcHl0aG9uJywgJy1waHQnLCAnMi4wJywgJy1waCcsICc3LjAnLCAnLXRuJywgJzgnLCAnLW1hJywgJzIwMCcsICctaW1hZScsICc8aW5maWxlLm1hZT4nLCAnLW9tYWUnLCAnPG91dGZpbGUubWFlPic=

>  <r_lp_tautomer_probability>  (273) 
1

>  <r_epik_Ionization_Penalty>  (273) 
2.96652e-05

>  <r_epik_Ionization_Penalty_Charging>  (273) 
0

>  <r_epik_Ionization_Penalty_Neutral>  (273) 
2.96652e-05

>  <r_epik_State_Penalty>  (273) 
-0

>  <r_epik_Charging_Adjusted_Penalty>  (273) 
0

>  <i_epik_Tot_Q>  (273) 
0

>  <i_epik_Tot_abs_Q>  (273) 
0

>  <s_lp_Force_Field>  (273) 
OPLS3e

>  <r_lp_Energy>  (273) 
17.0286

>  <b_lp_Chiralities_Consistent>  (273) 
1

>  <s_lp_Variant>  (273) 
75:0-1

>  <s_i_glide_gridfile>  (273) 
pfpi4k_grid

>  <i_i_glide_lignum>  (273) 
38

>  <i_i_glide_rotatable_bonds>  (273) 
1

>  <r_i_docking_score>  (273) 
-3.11021

>  <r_i_glide_ligand_efficiency>  (273) 
-0.194388

>  <r_i_glide_ligand_efficiency_sa>  (273) 
-0.489827

>  <r_i_glide_ligand_efficiency_ln>  (273) 
-0.824423

>  <r_i_glide_gscore>  (273) 
-3.11021

>  <r_i_glide_lipo>  (273) 
-0.208438

>  <r_i_glide_hbond>  (273) 
0

>  <r_i_glide_metal>  (273) 
-0

>  <r_i_glide_rewards>  (273) 
-1.94846

>  <r_i_glide_evdw>  (273) 
-18.6029

>  <r_i_glide_ecoul>  (273) 
-1.78659

>  <r_i_glide_erotb>  (273) 
0.363957

>  <r_i_glide_esite>  (273) 
-0.119142

>  <r_i_glide_emodel>  (273) 
-24.918

>  <r_i_glide_energy>  (273) 
-20.3895

>  <r_i_glide_einternal>  (273) 
0.120865

>  <r_i_glide_intrahb_reward>  (273) 
-0

>  <i_i_glide_confnum>  (273) 
4

>  <i_i_glide_posenum>  (273) 
7

>  <r_i_glide_eff_state_penalty>  (273) 
0

>  <ligand_id>  (273) 
75

>  <original_smiles>  (273) 
Cc1c(-n2cnc3cncnc32)cnn1C

>  <smiles>  (273) 
[H]c1nc([H])c2nc([H])n(-c3c([H])nn(C([H])([H])[H])c3C([H])([H])[H])c2n1

$$$$
76:0:0
     RDKit          3D

 49 52  0  0  1  0  0  0  0  0999 V2000
    3.1367   -2.8569   -3.4056 C   0  0  0  0  0  0  0  0  0  0  0  0
    3.7532   -2.5330   -2.0382 C   0  0  0  0  0  0  0  0  0  0  0  0
    3.7869   -3.7276   -1.0738 C   0  0  0  0  0  0  0  0  0  0  0  0
    2.3904   -4.1634   -0.5935 C   0  0  0  0  0  0  0  0  0  0  0  0
    2.3855   -5.4600    0.2381 C   0  0  2  0  0  0  0  0  0  0  0  0
    1.0195   -5.8607    0.4730 O   0  0  0  0  0  0  0  0  0  0  0  0
    1.0685   -6.8212    1.4649 C   0  0  2  0  0  0  0  0  0  0  0  0
   -0.0886   -7.2228    2.0694 O   0  0  0  0  0  0  0  0  0  0  0  0
    0.2230   -8.1196    3.1403 C   0  0  2  0  0  0  0  0  0  0  0  0
   -0.6736   -9.3534    2.9909 C   0  0  0  0  0  0  0  0  0  0  0  0
   -0.1416   -7.3027    4.3942 C   0  0  0  0  0  0  0  0  0  0  0  0
    0.4448   -5.8771    4.3763 C   0  0  0  0  0  0  0  0  0  0  0  0
    1.9114   -5.9245    3.9581 C   0  0  2  0  0  0  0  0  0  0  0  0
    2.8157   -4.6971    4.3368 C   0  0  1  0  0  0  0  0  0  0  0  0
    2.9516   -4.4744    5.8511 C   0  0  0  0  0  0  0  0  0  0  0  0
    4.2368   -4.8410    3.7019 C   0  0  0  0  0  0  0  0  0  0  0  0
    4.2549   -5.0647    2.1693 C   0  0  0  0  0  0  0  0  0  0  0  0
    2.8237   -5.3067    1.6932 C   0  0  2  0  0  0  0  0  0  0  0  0
    2.1566   -6.4233    2.4779 C   0  0  2  0  0  0  0  0  0  0  0  0
    2.7231   -7.6939    2.6700 O   0  0  0  0  0  0  0  0  0  0  0  0
    1.5977   -8.6490    3.1944 O   0  0  0  0  0  0  0  0  0  0  0  0
    3.1630   -1.9844   -4.0599 H   0  0  0  0  0  0  0  0  0  0  0  0
    2.0951   -3.1678   -3.3131 H   0  0  0  0  0  0  0  0  0  0  0  0
    3.6848   -3.6644   -3.8914 H   0  0  0  0  0  0  0  0  0  0  0  0
    4.7743   -2.1842   -2.1874 H   0  0  0  0  0  0  0  0  0  0  0  0
    3.2168   -1.7051   -1.5719 H   0  0  0  0  0  0  0  0  0  0  0  0
    4.3101   -4.5669   -1.5379 H   0  0  0  0  0  0  0  0  0  0  0  0
    4.3990   -3.4213   -0.2264 H   0  0  0  0  0  0  0  0  0  0  0  0
    1.9322   -3.3416   -0.0424 H   0  0  0  0  0  0  0  0  0  0  0  0
    1.7408   -4.3443   -1.4506 H   0  0  0  0  0  0  0  0  0  0  0  0
    2.9356   -6.2533   -0.2709 H   0  0  0  0  0  0  0  0  0  0  0  0
    1.3885   -7.7058    0.8968 H   0  0  0  0  0  0  0  0  0  0  0  0
   -0.4274   -9.9082    2.0805 H   0  0  0  0  0  0  0  0  0  0  0  0
   -1.7320   -9.0859    2.9439 H   0  0  0  0  0  0  0  0  0  0  0  0
   -0.5421  -10.0265    3.8416 H   0  0  0  0  0  0  0  0  0  0  0  0
   -1.2263   -7.2284    4.4824 H   0  0  0  0  0  0  0  0  0  0  0  0
    0.1968   -7.8394    5.2808 H   0  0  0  0  0  0  0  0  0  0  0  0
   -0.1159   -5.2318    3.7009 H   0  0  0  0  0  0  0  0  0  0  0  0
    0.3288   -5.4496    5.3709 H   0  0  0  0  0  0  0  0  0  0  0  0
    2.3287   -6.6953    4.6057 H   0  0  0  0  0  0  0  0  0  0  0  0
    2.3569   -3.7864    3.9467 H   0  0  0  0  0  0  0  0  0  0  0  0
    3.3857   -5.3506    6.3349 H   0  0  0  0  0  0  0  0  0  0  0  0
    1.9901   -4.2570    6.3180 H   0  0  0  0  0  0  0  0  0  0  0  0
    3.6070   -3.6239    6.0510 H   0  0  0  0  0  0  0  0  0  0  0  0
    4.8236   -3.9503    3.9207 H   0  0  0  0  0  0  0  0  0  0  0  0
    4.7565   -5.6732    4.1854 H   0  0  0  0  0  0  0  0  0  0  0  0
    4.6756   -4.1776    1.7004 H   0  0  0  0  0  0  0  0  0  0  0  0
    4.9039   -5.9065    1.9183 H   0  0  0  0  0  0  0  0  0  0  0  0
    2.2755   -4.3946    1.9384 H   0  0  0  0  0  0  0  0  0  0  0  0
  1  2  1  0
  1 22  1  0
  1 23  1  0
  1 24  1  0
  2  3  1  0
  2 25  1  0
  2 26  1  0
  3  4  1  0
  3 27  1  0
  3 28  1  0
  4  5  1  0
  4 29  1  0
  4 30  1  0
  5 18  1  0
  5  6  1  0
  5 31  1  6
  6  7  1  0
  7 19  1  0
  7  8  1  0
  7 32  1  6
  8  9  1  0
  9 21  1  0
  9 10  1  6
  9 11  1  0
 10 33  1  0
 10 34  1  0
 10 35  1  0
 11 12  1  0
 11 36  1  0
 11 37  1  0
 12 13  1  0
 12 38  1  0
 12 39  1  0
 13 19  1  0
 13 14  1  0
 13 40  1  1
 14 15  1  0
 14 16  1  0
 14 41  1  6
 15 42  1  0
 15 43  1  0
 15 44  1  0
 16 17  1  0
 16 45  1  0
 16 46  1  0
 17 18  1  0
 17 47  1  0
 17 48  1  0
 18 19  1  0
 18 49  1  1
 19 20  1  1
 20 21  1  0
M  END
>  <i_m_ct_stereo_status>  (274) 
1

>  <s_m_source_file>  (274) 
/var/tmp/pbs.5076255.sched01/tmp7qb2j_xu/82up84z1qn.sdf

>  <i_m_source_file_index>  (274) 
39

>  <i_lp_mmshare_version>  (274) 
48012

>  <i_f3d_flags>  (274) 
0

>  <s_epik_input>  (274) 
W0NIM11bQ0gyXVtDSDJdW0NIMl1bQ0BIXShPW0NASF0xW0NAXTIzNClbQ0BASF0zW0NIMl1bQ0gyXVtDQEhdKFtDSDNdKVtDQEhdMltDSDJdW0NIMl1bQ0BdKE8xKShbQ0gzXSlPTzQ=

>  <s_epik_cmdline>  (274) 
J2VwaWtfcHl0aG9uJywgJy1waHQnLCAnMi4wJywgJy1waCcsICc3LjAnLCAnLXRuJywgJzgnLCAnLW1hJywgJzIwMCcsICctaW1hZScsICc8aW5maWxlLm1hZT4nLCAnLW9tYWUnLCAnPG91dGZpbGUubWFlPic=

>  <r_lp_tautomer_probability>  (274) 
1

>  <r_epik_Ionization_Penalty>  (274) 
4.84134e-14

>  <r_epik_Ionization_Penalty_Charging>  (274) 
0

>  <r_epik_Ionization_Penalty_Neutral>  (274) 
4.84134e-14

>  <r_epik_State_Penalty>  (274) 
-0

>  <r_epik_Charging_Adjusted_Penalty>  (274) 
0

>  <i_epik_Tot_Q>  (274) 
0

>  <i_epik_Tot_abs_Q>  (274) 
0

>  <s_epik_Chemistry_Notes>  (274) 
This compound contains an acetal/aminal-like group ( X-CH(R)-Y where X, Y are N, S, or O) that may be acid/base labile, releasing an aldehyde.

>  <s_lp_Force_Field>  (274) 
OPLS3e

>  <r_lp_Energy>  (274) 
70.3898

>  <b_lp_Chiralities_Consistent>  (274) 
1

>  <s_lp_Variant>  (274) 
76:0-1

>  <s_i_glide_gridfile>  (274) 
pfpi4k_grid

>  <i_i_glide_lignum>  (274) 
39

>  <i_i_glide_rotatable_bonds>  (274) 
3

>  <r_i_docking_score>  (274) 
-3.03998

>  <r_i_glide_ligand_efficiency>  (274) 
-0.144761

>  <r_i_glide_ligand_efficiency_sa>  (274) 
-0.399385

>  <r_i_glide_ligand_efficiency_ln>  (274) 
-0.75163

>  <r_i_glide_gscore>  (274) 
-3.03998

>  <r_i_glide_lipo>  (274) 
-0.168309

>  <r_i_glide_hbond>  (274) 
-0.16

>  <r_i_glide_metal>  (274) 
-0

>  <r_i_glide_rewards>  (274) 
-1.38817

>  <r_i_glide_evdw>  (274) 
-17.5275

>  <r_i_glide_ecoul>  (274) 
-5.07581

>  <r_i_glide_erotb>  (274) 
0.417042

>  <r_i_glide_esite>  (274) 
-0.102798

>  <r_i_glide_emodel>  (274) 
-26.024

>  <r_i_glide_energy>  (274) 
-22.6033

>  <r_i_glide_einternal>  (274) 
1.75604

>  <r_i_glide_intrahb_reward>  (274) 
-0

>  <i_i_glide_confnum>  (274) 
5

>  <i_i_glide_posenum>  (274) 
11

>  <r_i_glide_eff_state_penalty>  (274) 
0

>  <ligand_id>  (274) 
76

>  <original_smiles>  (274) 
CCCCC1OC2OC3(C)CCC4C(C)CCC1C24OO3

>  <smiles>  (274) 
[H]C([H])([H])C([H])([H])C([H])([H])C([H])([H])C1([H])OC2([H])OC3(C([H])([H])[H])OOC24C1([H])C([H])([H])C([H])([H])C([H])(C([H])([H])[H])C4([H])C([H])([H])C3([H])[H]

$$$$
76:0:1
     RDKit          3D

 49 52  0  0  1  0  0  0  0  0999 V2000
   -1.3377   -9.3318    2.2270 C   0  0  0  0  0  0  0  0  0  0  0  0
   -1.5073   -8.4764    3.4912 C   0  0  0  0  0  0  0  0  0  0  0  0
   -0.7034   -7.1678    3.4449 C   0  0  0  0  0  0  0  0  0  0  0  0
    0.8211   -7.3738    3.5227 C   0  0  0  0  0  0  0  0  0  0  0  0
    1.6365   -6.0864    3.2925 C   0  0  2  0  0  0  0  0  0  0  0  0
    1.4396   -5.6574    1.9376 O   0  0  0  0  0  0  0  0  0  0  0  0
    2.4388   -4.7145    1.7118 C   0  0  2  0  0  0  0  0  0  0  0  0
    2.6342   -4.2259    0.4528 O   0  0  0  0  0  0  0  0  0  0  0  0
    3.8040   -3.4037    0.4325 C   0  0  2  0  0  0  0  0  0  0  0  0
    3.4292   -2.1147   -0.3133 C   0  0  0  0  0  0  0  0  0  0  0  0
    4.8312   -4.2327   -0.3665 C   0  0  0  0  0  0  0  0  0  0  0  0
    4.9354   -5.6861    0.1228 C   0  0  0  0  0  0  0  0  0  0  0  0
    5.0258   -5.7176    1.6465 C   0  0  2  0  0  0  0  0  0  0  0  0
    5.6297   -7.0034    2.3199 C   0  0  1  0  0  0  0  0  0  0  0  0
    7.1011   -7.2610    1.9504 C   0  0  0  0  0  0  0  0  0  0  0  0
    5.4824   -6.9397    3.8792 C   0  0  0  0  0  0  0  0  0  0  0  0
    4.0409   -6.6775    4.4010 C   0  0  0  0  0  0  0  0  0  0  0  0
    3.1470   -6.3169    3.2196 C   0  0  2  0  0  0  0  0  0  0  0  0
    3.7364   -5.1906    2.3835 C   0  0  2  0  0  0  0  0  0  0  0  0
    4.1555   -3.9618    2.9175 O   0  0  0  0  0  0  0  0  0  0  0  0
    4.3318   -2.9580    1.7338 O   0  0  0  0  0  0  0  0  0  0  0  0
   -1.9281  -10.2423    2.2860 H   0  0  0  0  0  0  0  0  0  0  0  0
   -0.3035   -9.6404    2.0811 H   0  0  0  0  0  0  0  0  0  0  0  0
   -1.6534   -8.7919    1.3351 H   0  0  0  0  0  0  0  0  0  0  0  0
   -2.5633   -8.2353    3.6076 H   0  0  0  0  0  0  0  0  0  0  0  0
   -1.2310   -9.0542    4.3733 H   0  0  0  0  0  0  0  0  0  0  0  0
   -0.9551   -6.6562    2.5199 H   0  0  0  0  0  0  0  0  0  0  0  0
   -1.0138   -6.5186    4.2649 H   0  0  0  0  0  0  0  0  0  0  0  0
    1.0791   -7.8081    4.4896 H   0  0  0  0  0  0  0  0  0  0  0  0
    1.1245   -8.1065    2.7732 H   0  0  0  0  0  0  0  0  0  0  0  0
    1.3778   -5.3013    4.0074 H   0  0  0  0  0  0  0  0  0  0  0  0
    2.0443   -3.8467    2.2521 H   0  0  0  0  0  0  0  0  0  0  0  0
    2.6746   -1.5590    0.2466 H   0  0  0  0  0  0  0  0  0  0  0  0
    3.0147   -2.3241   -1.3018 H   0  0  0  0  0  0  0  0  0  0  0  0
    4.2951   -1.4620   -0.4451 H   0  0  0  0  0  0  0  0  0  0  0  0
    4.5551   -4.2514   -1.4214 H   0  0  0  0  0  0  0  0  0  0  0  0
    5.8039   -3.7448   -0.3171 H   0  0  0  0  0  0  0  0  0  0  0  0
    4.0902   -6.2802   -0.2232 H   0  0  0  0  0  0  0  0  0  0  0  0
    5.8216   -6.1281   -0.3202 H   0  0  0  0  0  0  0  0  0  0  0  0
    5.8112   -4.9924    1.8628 H   0  0  0  0  0  0  0  0  0  0  0  0
    5.0806   -7.8770    1.9665 H   0  0  0  0  0  0  0  0  0  0  0  0
    7.7387   -6.4266    2.2362 H   0  0  0  0  0  0  0  0  0  0  0  0
    7.2291   -7.4320    0.8815 H   0  0  0  0  0  0  0  0  0  0  0  0
    7.4781   -8.1502    2.4539 H   0  0  0  0  0  0  0  0  0  0  0  0
    5.8586   -7.8629    4.3238 H   0  0  0  0  0  0  0  0  0  0  0  0
    6.1342   -6.1462    4.2508 H   0  0  0  0  0  0  0  0  0  0  0  0
    3.6552   -7.5652    4.9009 H   0  0  0  0  0  0  0  0  0  0  0  0
    4.0545   -5.8777    5.1422 H   0  0  0  0  0  0  0  0  0  0  0  0
    3.1642   -7.2045    2.5813 H   0  0  0  0  0  0  0  0  0  0  0  0
  1  2  1  0
  1 22  1  0
  1 23  1  0
  1 24  1  0
  2  3  1  0
  2 25  1  0
  2 26  1  0
  3  4  1  0
  3 27  1  0
  3 28  1  0
  4  5  1  0
  4 29  1  0
  4 30  1  0
  5 18  1  0
  5  6  1  0
  5 31  1  1
  6  7  1  0
  7 19  1  0
  7  8  1  0
  7 32  1  1
  8  9  1  0
  9 21  1  0
  9 10  1  6
  9 11  1  0
 10 33  1  0
 10 34  1  0
 10 35  1  0
 11 12  1  0
 11 36  1  0
 11 37  1  0
 12 13  1  0
 12 38  1  0
 12 39  1  0
 13 19  1  0
 13 14  1  0
 13 40  1  6
 14 15  1  0
 14 16  1  0
 14 41  1  6
 15 42  1  0
 15 43  1  0
 15 44  1  0
 16 17  1  0
 16 45  1  0
 16 46  1  0
 17 18  1  0
 17 47  1  0
 17 48  1  0
 18 19  1  0
 18 49  1  6
 19 20  1  1
 20 21  1  0
M  END
>  <i_m_ct_stereo_status>  (275) 
1

>  <s_m_source_file>  (275) 
/var/tmp/pbs.5076255.sched01/tmp7qb2j_xu/82up84z1qn.sdf

>  <i_m_source_file_index>  (275) 
39

>  <i_lp_mmshare_version>  (275) 
48012

>  <i_f3d_flags>  (275) 
0

>  <s_epik_input>  (275) 
W0NIM11bQ0gyXVtDSDJdW0NIMl1bQ0BIXShPW0NASF0xW0NAXTIzNClbQ0BASF0zW0NIMl1bQ0gyXVtDQEhdKFtDSDNdKVtDQEhdMltDSDJdW0NIMl1bQ0BdKE8xKShbQ0gzXSlPTzQ=

>  <s_epik_cmdline>  (275) 
J2VwaWtfcHl0aG9uJywgJy1waHQnLCAnMi4wJywgJy1waCcsICc3LjAnLCAnLXRuJywgJzgnLCAnLW1hJywgJzIwMCcsICctaW1hZScsICc8aW5maWxlLm1hZT4nLCAnLW9tYWUnLCAnPG91dGZpbGUubWFlPic=

>  <r_lp_tautomer_probability>  (275) 
1

>  <r_epik_Ionization_Penalty>  (275) 
4.84134e-14

>  <r_epik_Ionization_Penalty_Charging>  (275) 
0

>  <r_epik_Ionization_Penalty_Neutral>  (275) 
4.84134e-14

>  <r_epik_State_Penalty>  (275) 
-0

>  <r_epik_Charging_Adjusted_Penalty>  (275) 
0

>  <i_epik_Tot_Q>  (275) 
0

>  <i_epik_Tot_abs_Q>  (275) 
0

>  <s_epik_Chemistry_Notes>  (275) 
This compound contains an acetal/aminal-like group ( X-CH(R)-Y where X, Y are N, S, or O) that may be acid/base labile, releasing an aldehyde.

>  <s_lp_Force_Field>  (275) 
OPLS3e

>  <r_lp_Energy>  (275) 
70.3898

>  <b_lp_Chiralities_Consistent>  (275) 
1

>  <s_lp_Variant>  (275) 
76:0-1

>  <s_i_glide_gridfile>  (275) 
pfpi4k_grid

>  <i_i_glide_lignum>  (275) 
39

>  <i_i_glide_rotatable_bonds>  (275) 
3

>  <r_i_docking_score>  (275) 
-2.5175

>  <r_i_glide_ligand_efficiency>  (275) 
-0.119881

>  <r_i_glide_ligand_efficiency_sa>  (275) 
-0.330743

>  <r_i_glide_ligand_efficiency_ln>  (275) 
-0.622447

>  <r_i_glide_gscore>  (275) 
-2.5175

>  <r_i_glide_lipo>  (275) 
-0.456474

>  <r_i_glide_hbond>  (275) 
-0.0636494

>  <r_i_glide_metal>  (275) 
-0

>  <r_i_glide_rewards>  (275) 
-1.39288

>  <r_i_glide_evdw>  (275) 
-16.1525

>  <r_i_glide_ecoul>  (275) 
-1.29495

>  <r_i_glide_erotb>  (275) 
0.417042

>  <r_i_glide_esite>  (275) 
-0.0196741

>  <r_i_glide_emodel>  (275) 
-20.5307

>  <r_i_glide_energy>  (275) 
-17.4474

>  <r_i_glide_einternal>  (275) 
1.06278

>  <r_i_glide_intrahb_reward>  (275) 
-0

>  <i_i_glide_confnum>  (275) 
1

>  <i_i_glide_posenum>  (275) 
18

>  <r_i_glide_eff_state_penalty>  (275) 
0

>  <ligand_id>  (275) 
76

>  <original_smiles>  (275) 
CCCCC1OC2OC3(C)CCC4C(C)CCC1C24OO3

>  <smiles>  (275) 
[H]C([H])([H])C([H])([H])C([H])([H])C([H])([H])C1([H])OC2([H])OC3(C([H])([H])[H])OOC24C1([H])C([H])([H])C([H])([H])C([H])(C([H])([H])[H])C4([H])C([H])([H])C3([H])[H]

$$$$
76:0:2
     RDKit          3D

 49 52  0  0  1  0  0  0  0  0999 V2000
   -1.6952   -9.3486    2.0754 C   0  0  0  0  0  0  0  0  0  0  0  0
   -0.9434   -8.7088    3.2122 C   0  0  0  0  0  0  0  0  0  0  0  0
   -1.3866   -7.2768    3.5878 C   0  0  0  0  0  0  0  0  0  0  0  0
   -0.5421   -6.6268    4.7130 C   0  0  0  0  0  0  0  0  0  0  0  0
    0.9750   -6.4867    4.4803 C   0  0  2  0  0  0  0  0  0  0  0  0
    1.1836   -6.3697    3.0749 O   0  0  0  0  0  0  0  0  0  0  0  0
    2.5241   -6.6565    2.8637 C   0  0  2  0  0  0  0  0  0  0  0  0
    2.9708   -6.8087    1.5749 O   0  0  0  0  0  0  0  0  0  0  0  0
    4.3474   -7.2119    1.5962 C   0  0  2  0  0  0  0  0  0  0  0  0
    5.0786   -6.3273    0.5838 C   0  0  0  0  0  0  0  0  0  0  0  0
    4.3006   -8.6837    1.1468 C   0  0  0  0  0  0  0  0  0  0  0  0
    3.2257   -9.4928    1.8878 C   0  0  0  0  0  0  0  0  0  0  0  0
    3.3195   -9.2310    3.4021 C   0  0  2  0  0  0  0  0  0  0  0  0
    2.7016  -10.2923    4.3686 C   0  0  1  0  0  0  0  0  0  0  0  0
    3.3929  -11.6760    4.2814 C   0  0  0  0  0  0  0  0  0  0  0  0
    2.7288   -9.7831    5.8598 C   0  0  0  0  0  0  0  0  0  0  0  0
    2.1006   -8.3727    6.1261 C   0  0  0  0  0  0  0  0  0  0  0  0
    1.7975   -7.7524    4.7743 C   0  0  2  0  0  0  0  0  0  0  0  0
    2.9844   -7.7489    3.8178 C   0  0  2  0  0  0  0  0  0  0  0  0
    4.2464   -7.2041    4.1659 O   0  0  0  0  0  0  0  0  0  0  0  0
    5.0749   -7.0148    2.8536 O   0  0  0  0  0  0  0  0  0  0  0  0
   -1.2530  -10.3255    1.8964 H   0  0  0  0  0  0  0  0  0  0  0  0
   -1.4821   -8.7493    1.1957 H   0  0  0  0  0  0  0  0  0  0  0  0
   -2.7720   -9.4622    2.2077 H   0  0  0  0  0  0  0  0  0  0  0  0
   -0.9561   -9.3603    4.0799 H   0  0  0  0  0  0  0  0  0  0  0  0
    0.0782   -8.6794    2.8546 H   0  0  0  0  0  0  0  0  0  0  0  0
   -1.3410   -6.6677    2.6919 H   0  0  0  0  0  0  0  0  0  0  0  0
   -2.4424   -7.2661    3.8816 H   0  0  0  0  0  0  0  0  0  0  0  0
   -0.9290   -5.6297    4.8675 H   0  0  0  0  0  0  0  0  0  0  0  0
   -0.7058   -7.1319    5.6611 H   0  0  0  0  0  0  0  0  0  0  0  0
    1.3924   -5.6083    4.9882 H   0  0  0  0  0  0  0  0  0  0  0  0
    2.9862   -5.7147    3.1535 H   0  0  0  0  0  0  0  0  0  0  0  0
    5.0568   -5.2920    0.9142 H   0  0  0  0  0  0  0  0  0  0  0  0
    4.6302   -6.3751   -0.4079 H   0  0  0  0  0  0  0  0  0  0  0  0
    6.1229   -6.6276    0.5160 H   0  0  0  0  0  0  0  0  0  0  0  0
    4.1039   -8.7414    0.0769 H   0  0  0  0  0  0  0  0  0  0  0  0
    5.2905   -9.1187    1.2865 H   0  0  0  0  0  0  0  0  0  0  0  0
    2.2243   -9.2967    1.4906 H   0  0  0  0  0  0  0  0  0  0  0  0
    3.4173  -10.5424    1.6792 H   0  0  0  0  0  0  0  0  0  0  0  0
    4.3892   -9.3379    3.6045 H   0  0  0  0  0  0  0  0  0  0  0  0
    1.6681  -10.5014    4.0705 H   0  0  0  0  0  0  0  0  0  0  0  0
    4.4515  -11.5976    4.5292 H   0  0  0  0  0  0  0  0  0  0  0  0
    3.3063  -12.1271    3.2930 H   0  0  0  0  0  0  0  0  0  0  0  0
    2.9429  -12.3739    4.9868 H   0  0  0  0  0  0  0  0  0  0  0  0
    2.2226  -10.5196    6.4750 H   0  0  0  0  0  0  0  0  0  0  0  0
    3.7720   -9.7567    6.1803 H   0  0  0  0  0  0  0  0  0  0  0  0
    1.1548   -8.4982    6.6471 H   0  0  0  0  0  0  0  0  0  0  0  0
    2.7532   -7.7740    6.7915 H   0  0  0  0  0  0  0  0  0  0  0  0
    1.1101   -8.4510    4.4023 H   0  0  0  0  0  0  0  0  0  0  0  0
  1  2  1  0
  1 22  1  0
  1 23  1  0
  1 24  1  0
  2  3  1  0
  2 25  1  0
  2 26  1  0
  3  4  1  0
  3 27  1  0
  3 28  1  0
  4  5  1  0
  4 29  1  0
  4 30  1  0
  5 18  1  0
  5  6  1  0
  5 31  1  1
  6  7  1  0
  7 19  1  0
  7  8  1  0
  7 32  1  1
  8  9  1  0
  9 21  1  0
  9 10  1  6
  9 11  1  0
 10 33  1  0
 10 34  1  0
 10 35  1  0
 11 12  1  0
 11 36  1  0
 11 37  1  0
 12 13  1  0
 12 38  1  0
 12 39  1  0
 13 19  1  0
 13 14  1  0
 13 40  1  1
 14 15  1  0
 14 16  1  0
 14 41  1  6
 15 42  1  0
 15 43  1  0
 15 44  1  0
 16 17  1  0
 16 45  1  0
 16 46  1  0
 17 18  1  0
 17 47  1  0
 17 48  1  0
 18 19  1  0
 18 49  1  6
 19 20  1  1
 20 21  1  0
M  END
>  <i_m_ct_stereo_status>  (276) 
1

>  <s_m_source_file>  (276) 
/var/tmp/pbs.5076255.sched01/tmp7qb2j_xu/82up84z1qn.sdf

>  <i_m_source_file_index>  (276) 
39

>  <i_lp_mmshare_version>  (276) 
48012

>  <i_f3d_flags>  (276) 
0

>  <s_epik_input>  (276) 
W0NIM11bQ0gyXVtDSDJdW0NIMl1bQ0BIXShPW0NASF0xW0NAXTIzNClbQ0BASF0zW0NIMl1bQ0gyXVtDQEhdKFtDSDNdKVtDQEhdMltDSDJdW0NIMl1bQ0BdKE8xKShbQ0gzXSlPTzQ=

>  <s_epik_cmdline>  (276) 
J2VwaWtfcHl0aG9uJywgJy1waHQnLCAnMi4wJywgJy1waCcsICc3LjAnLCAnLXRuJywgJzgnLCAnLW1hJywgJzIwMCcsICctaW1hZScsICc8aW5maWxlLm1hZT4nLCAnLW9tYWUnLCAnPG91dGZpbGUubWFlPic=

>  <r_lp_tautomer_probability>  (276) 
1

>  <r_epik_Ionization_Penalty>  (276) 
4.84134e-14

>  <r_epik_Ionization_Penalty_Charging>  (276) 
0

>  <r_epik_Ionization_Penalty_Neutral>  (276) 
4.84134e-14

>  <r_epik_State_Penalty>  (276) 
-0

>  <r_epik_Charging_Adjusted_Penalty>  (276) 
0

>  <i_epik_Tot_Q>  (276) 
0

>  <i_epik_Tot_abs_Q>  (276) 
0

>  <s_epik_Chemistry_Notes>  (276) 
This compound contains an acetal/aminal-like group ( X-CH(R)-Y where X, Y are N, S, or O) that may be acid/base labile, releasing an aldehyde.

>  <s_lp_Force_Field>  (276) 
OPLS3e

>  <r_lp_Energy>  (276) 
70.3898

>  <b_lp_Chiralities_Consistent>  (276) 
1

>  <s_lp_Variant>  (276) 
76:0-1

>  <s_i_glide_gridfile>  (276) 
pfpi4k_grid

>  <i_i_glide_lignum>  (276) 
39

>  <i_i_glide_rotatable_bonds>  (276) 
3

>  <r_i_docking_score>  (276) 
-2.37835

>  <r_i_glide_ligand_efficiency>  (276) 
-0.113255

>  <r_i_glide_ligand_efficiency_sa>  (276) 
-0.312461

>  <r_i_glide_ligand_efficiency_ln>  (276) 
-0.588042

>  <r_i_glide_gscore>  (276) 
-2.37835

>  <r_i_glide_lipo>  (276) 
-0.361407

>  <r_i_glide_hbond>  (276) 
0

>  <r_i_glide_metal>  (276) 
-0

>  <r_i_glide_rewards>  (276) 
-1.47975

>  <r_i_glide_evdw>  (276) 
-17.0684

>  <r_i_glide_ecoul>  (276) 
-0.644842

>  <r_i_glide_erotb>  (276) 
0.417042

>  <r_i_glide_esite>  (276) 
-0.00408444

>  <r_i_glide_emodel>  (276) 
-17.5255

>  <r_i_glide_energy>  (276) 
-17.7132

>  <r_i_glide_einternal>  (276) 
4.75575

>  <r_i_glide_intrahb_reward>  (276) 
-0

>  <i_i_glide_confnum>  (276) 
6

>  <i_i_glide_posenum>  (276) 
28

>  <r_i_glide_eff_state_penalty>  (276) 
0

>  <ligand_id>  (276) 
76

>  <original_smiles>  (276) 
CCCCC1OC2OC3(C)CCC4C(C)CCC1C24OO3

>  <smiles>  (276) 
[H]C([H])([H])C([H])([H])C([H])([H])C([H])([H])C1([H])OC2([H])OC3(C([H])([H])[H])OOC24C1([H])C([H])([H])C([H])([H])C([H])(C([H])([H])[H])C4([H])C([H])([H])C3([H])[H]

$$$$
77:0:0
     RDKit          3D

 81 87  0  0  1  0  0  0  0  0999 V2000
   -1.3482   -8.2408    4.4384 C   0  0  0  0  0  0  0  0  0  0  0  0
   -0.1437   -7.9675    3.5760 C   0  0  0  0  0  0  0  0  0  0  0  0
    0.1017   -8.4784    2.3852 C   0  0  0  0  0  0  0  0  0  0  0  0
    1.4112   -8.0069    1.8064 C   0  0  2  0  0  0  0  0  0  0  0  0
    2.4229   -9.1638    1.8211 C   0  0  0  0  0  0  0  0  0  0  0  0
    3.3155   -9.1267    3.0648 C   0  0  1  0  0  0  0  0  0  0  0  0
    3.9737  -10.3591    3.2650 O   0  0  0  0  0  0  0  0  0  0  0  0
    4.2383   -7.8709    3.0639 C   0  0  1  0  0  0  0  0  0  0  0  0
    5.3659   -7.9258    1.9526 C   0  0  0  0  0  0  0  0  0  0  0  0
    6.7164   -7.2793    2.3594 C   0  0  0  0  0  0  0  0  0  0  0  0
    5.7708   -9.2907    1.3399 C   0  0  0  0  0  0  0  0  0  0  0  0
    4.7524   -7.2005    0.9228 O   0  0  0  0  0  0  0  0  0  0  0  0
    4.0739   -6.0728    1.4460 C   0  0  1  0  0  0  0  0  0  0  0  0
    3.3212   -5.4796    0.2160 C   0  0  0  0  0  0  0  0  0  0  0  0
    2.8378   -4.0626    0.3470 C   0  0  2  0  0  0  0  0  0  0  0  0
    2.6641   -3.1857   -0.8568 O   0  0  0  0  0  0  0  0  0  0  0  0
    3.6630   -2.8775    0.1743 C   0  0  1  0  0  0  0  0  0  0  0  0
    3.8338   -1.6255    0.8232 C   0  0  1  0  0  0  0  0  0  0  0  0
    3.9428   -1.7073    2.3425 C   0  0  0  0  0  0  0  0  0  0  0  0
    4.0716   -3.1560    2.8997 C   0  0  0  0  0  0  0  0  0  0  0  0
    3.3208   -3.9167    3.7551 C   0  0  0  0  0  0  0  0  0  0  0  0
    2.2297   -3.2239    4.6218 C   0  0  0  0  0  0  0  0  0  0  0  0
    2.8418   -2.0370    5.4062 C   0  0  0  0  0  0  0  0  0  0  0  0
    1.0427   -2.7628    3.7446 C   0  0  0  0  0  0  0  0  0  0  0  0
    1.6573   -4.1274    5.7357 C   0  0  0  0  0  0  0  0  0  0  0  0
    0.5945   -3.7699    6.2595 O   0  0  0  0  0  0  0  0  0  0  0  0
    2.3557   -5.3316    6.1814 C   0  0  0  0  0  0  0  0  0  0  0  0
    3.2749   -5.8993    5.3911 C   0  0  0  0  0  0  0  0  0  0  0  0
    3.7802   -5.3932    4.0518 C   0  0  2  0  0  0  0  0  0  0  0  0
    5.3016   -5.2904    4.3994 C   0  0  0  0  0  0  0  0  0  0  0  0
    3.4420   -6.4960    2.8620 C   0  0  2  0  0  0  0  0  0  0  0  0
    1.8501   -6.8185    2.7481 C   0  0  1  0  0  0  0  0  0  0  0  0
    1.1371   -5.7220    2.2336 O   0  0  0  0  0  0  0  0  0  0  0  0
    0.9535   -7.0769    4.0382 C   0  0  0  0  0  0  0  0  0  0  0  0
    4.8963   -2.2707   -0.3009 C   0  0  0  0  0  0  0  0  0  0  0  0
    6.2043   -2.8906    0.0796 C   0  0  0  0  0  0  0  0  0  0  0  0
    5.0614   -1.4206   -1.5375 C   0  0  0  0  0  0  0  0  0  0  0  0
   -1.8658   -7.3094    4.6803 H   0  0  0  0  0  0  0  0  0  0  0  0
   -1.0288   -8.7061    5.3760 H   0  0  0  0  0  0  0  0  0  0  0  0
   -2.0551   -8.9192    3.9592 H   0  0  0  0  0  0  0  0  0  0  0  0
   -0.5568   -9.1482    1.8604 H   0  0  0  0  0  0  0  0  0  0  0  0
    1.2441   -7.6787    0.7913 H   0  0  0  0  0  0  0  0  0  0  0  0
    1.8894  -10.1183    1.7626 H   0  0  0  0  0  0  0  0  0  0  0  0
    2.9796   -9.1278    0.8833 H   0  0  0  0  0  0  0  0  0  0  0  0
    2.6911   -9.0924    3.9524 H   0  0  0  0  0  0  0  0  0  0  0  0
    4.2068  -10.7248    2.4279 H   0  0  0  0  0  0  0  0  0  0  0  0
    4.7355   -7.9109    4.0303 H   0  0  0  0  0  0  0  0  0  0  0  0
    6.9787   -7.5047    3.3939 H   0  0  0  0  0  0  0  0  0  0  0  0
    6.7605   -6.2060    2.2095 H   0  0  0  0  0  0  0  0  0  0  0  0
    7.5440   -7.6518    1.7537 H   0  0  0  0  0  0  0  0  0  0  0  0
    6.2778   -9.9273    2.0631 H   0  0  0  0  0  0  0  0  0  0  0  0
    6.4705   -9.1392    0.5219 H   0  0  0  0  0  0  0  0  0  0  0  0
    4.9490   -9.8520    0.9016 H   0  0  0  0  0  0  0  0  0  0  0  0
    4.8974   -5.4066    1.6541 H   0  0  0  0  0  0  0  0  0  0  0  0
    4.0302   -5.4708   -0.6287 H   0  0  0  0  0  0  0  0  0  0  0  0
    2.4911   -6.0929   -0.0883 H   0  0  0  0  0  0  0  0  0  0  0  0
    2.0364   -3.9023    1.0749 H   0  0  0  0  0  0  0  0  0  0  0  0
    3.3351   -0.7338    0.4397 H   0  0  0  0  0  0  0  0  0  0  0  0
    4.8342   -1.1613    2.6185 H   0  0  0  0  0  0  0  0  0  0  0  0
    3.0898   -1.1800    2.7471 H   0  0  0  0  0  0  0  0  0  0  0  0
    4.9337   -3.6042    2.4690 H   0  0  0  0  0  0  0  0  0  0  0  0
    3.6687   -2.3960    6.0282 H   0  0  0  0  0  0  0  0  0  0  0  0
    2.1202   -1.5827    6.0826 H   0  0  0  0  0  0  0  0  0  0  0  0
    3.2464   -1.2325    4.8081 H   0  0  0  0  0  0  0  0  0  0  0  0
    0.3840   -3.6058    3.5299 H   0  0  0  0  0  0  0  0  0  0  0  0
    1.3323   -2.3640    2.7764 H   0  0  0  0  0  0  0  0  0  0  0  0
    0.4265   -2.0175    4.2417 H   0  0  0  0  0  0  0  0  0  0  0  0
    2.0478   -5.7636    7.1157 H   0  0  0  0  0  0  0  0  0  0  0  0
    3.7333   -6.8175    5.7410 H   0  0  0  0  0  0  0  0  0  0  0  0
    5.4293   -4.5623    5.2072 H   0  0  0  0  0  0  0  0  0  0  0  0
    5.9572   -4.9420    3.6159 H   0  0  0  0  0  0  0  0  0  0  0  0
    5.7247   -6.2087    4.8011 H   0  0  0  0  0  0  0  0  0  0  0  0
    1.4121   -4.9746    2.7303 H   0  0  0  0  0  0  0  0  0  0  0  0
    0.4996   -6.1882    4.4520 H   0  0  0  0  0  0  0  0  0  0  0  0
    1.4645   -7.6263    4.8250 H   0  0  0  0  0  0  0  0  0  0  0  0
    6.8262   -2.1588    0.5809 H   0  0  0  0  0  0  0  0  0  0  0  0
    6.6986   -3.2808   -0.8001 H   0  0  0  0  0  0  0  0  0  0  0  0
    6.0294   -3.7406    0.7437 H   0  0  0  0  0  0  0  0  0  0  0  0
    5.8067   -0.6553   -1.3440 H   0  0  0  0  0  0  0  0  0  0  0  0
    4.1170   -0.9236   -1.8094 H   0  0  0  0  0  0  0  0  0  0  0  0
    5.3878   -2.0236   -2.3808 H   0  0  0  0  0  0  0  0  0  0  0  0
  1  2  1  0
  1 38  1  0
  1 39  1  0
  1 40  1  0
  2 34  1  0
  2  3  2  0
  3  4  1  0
  3 41  1  0
  4 32  1  0
  4  5  1  0
  4 42  1  6
  5  6  1  0
  5 43  1  0
  5 44  1  0
  6  7  1  0
  6  8  1  0
  6 45  1  1
  7 46  1  0
  8 31  1  0
  8  9  1  0
  8 47  1  1
  9 10  1  0
  9 11  1  0
  9 12  1  0
 10 48  1  0
 10 49  1  0
 10 50  1  0
 11 51  1  0
 11 52  1  0
 11 53  1  0
 12 13  1  0
 13 31  1  0
 13 14  1  0
 13 54  1  1
 14 15  1  0
 14 55  1  0
 14 56  1  0
 15 17  1  0
 15 16  1  0
 15 57  1  1
 17 16  1  6
 17 35  1  0
 17 18  1  0
 18 19  1  0
 18 35  1  0
 18 58  1  1
 19 20  1  0
 19 59  1  0
 19 60  1  0
 20 21  2  3
 20 61  1  0
 21 29  1  0
 21 22  1  0
 22 23  1  0
 22 24  1  0
 22 25  1  0
 23 62  1  0
 23 63  1  0
 23 64  1  0
 24 65  1  0
 24 66  1  0
 24 67  1  0
 25 26  2  0
 25 27  1  0
 27 28  2  0
 27 68  1  0
 28 29  1  0
 28 69  1  0
 29 30  1  1
 31 29  1  1
 30 70  1  0
 30 71  1  0
 30 72  1  0
 31 32  1  0
 32 33  1  6
 32 34  1  0
 33 73  1  0
 34 74  1  0
 34 75  1  0
 35 36  1  0
 35 37  1  0
 36 76  1  0
 36 77  1  0
 36 78  1  0
 37 79  1  0
 37 80  1  0
 37 81  1  0
M  END
>  <i_m_ct_stereo_status>  (277) 
1

>  <s_m_source_file>  (277) 
/var/tmp/pbs.5076255.sched01/tmp7qb2j_xu/82up84z1qn.sdf

>  <i_m_source_file_index>  (277) 
40

>  <i_lp_mmshare_version>  (277) 
48012

>  <i_f3d_flags>  (277) 
0

>  <s_epik_input>  (277) 
W0NIM11DKD1bQ0hdMSlbQ0gyXVtDQF0yKFtPSF0pW0NASF0xW0NIMl1bQ0BASF0oW09IXSlbQ0BASF0oQyhPMykoW0NIM10pW0NIM10pW0NAXTIoW0NAQEhdM1tDSDJdW0NASF0oTzQpQzQ1NilbQ0BAXTcoW0NIM10pQyhcQyhbQ0gzXSkoW0NIM10pQyg9TylbQ0hdPVtDSF03KT1bQ0hdXFtDSDJdW0NASF01QzYoW0NIM10pW0NIM10=

>  <s_epik_cmdline>  (277) 
J2VwaWtfcHl0aG9uJywgJy1waHQnLCAnMi4wJywgJy1waCcsICc3LjAnLCAnLXRuJywgJzgnLCAnLW1hJywgJzIwMCcsICctaW1hZScsICc8aW5maWxlLm1hZT4nLCAnLW9tYWUnLCAnPG91dGZpbGUubWFlPic=

>  <r_lp_tautomer_probability>  (277) 
1

>  <r_epik_Ionization_Penalty>  (277) 
1.28386e-07

>  <r_epik_Ionization_Penalty_Charging>  (277) 
0

>  <r_epik_Ionization_Penalty_Neutral>  (277) 
1.28386e-07

>  <r_epik_State_Penalty>  (277) 
-0

>  <r_epik_Charging_Adjusted_Penalty>  (277) 
0

>  <i_epik_Tot_Q>  (277) 
0

>  <i_epik_Tot_abs_Q>  (277) 
0

>  <s_lp_Force_Field>  (277) 
OPLS3e

>  <r_lp_Energy>  (277) 
104.648

>  <b_lp_Chiralities_Consistent>  (277) 
1

>  <s_lp_Variant>  (277) 
77:0-1

>  <s_i_glide_gridfile>  (277) 
pfpi4k_grid

>  <i_i_glide_lignum>  (277) 
40

>  <i_i_glide_rotatable_bonds>  (277) 
2

>  <r_i_docking_score>  (277) 
-2.50768

>  <r_i_glide_ligand_efficiency>  (277) 
-0.0677751

>  <r_i_glide_ligand_efficiency_sa>  (277) 
-0.225842

>  <r_i_glide_ligand_efficiency_ln>  (277) 
-0.543857

>  <r_i_glide_gscore>  (277) 
-2.50768

>  <r_i_glide_lipo>  (277) 
-0.242652

>  <r_i_glide_hbond>  (277) 
-0.0538526

>  <r_i_glide_metal>  (277) 
-0

>  <r_i_glide_rewards>  (277) 
0

>  <r_i_glide_evdw>  (277) 
-34.2983

>  <r_i_glide_ecoul>  (277) 
-3.30839

>  <r_i_glide_erotb>  (277) 
0

>  <r_i_glide_esite>  (277) 
0

>  <r_i_glide_emodel>  (277) 
-40.1137

>  <r_i_glide_energy>  (277) 
-37.6067

>  <r_i_glide_einternal>  (277) 
0.740994

>  <r_i_glide_intrahb_reward>  (277) 
-0

>  <i_i_glide_confnum>  (277) 
1

>  <i_i_glide_posenum>  (277) 
1

>  <r_i_glide_eff_state_penalty>  (277) 
0

>  <ligand_id>  (277) 
77

>  <original_smiles>  (277) 
CC1=CC2CC(O)C3C(C)(C)OC4CC5OC56C(CC=C5C(C)(C)C(=O)C=CC5(C)C43C2(O)C1)C6(C)C

>  <smiles>  (277) 
[H]OC1([H])C([H])([H])C2([H])C([H])=C(C([H])([H])[H])C([H])([H])C2(O[H])C23C([H])(OC(C([H])([H])[H])(C([H])([H])[H])C12[H])C([H])([H])C1([H])OC12C([H])(C([H])([H])C([H])=C1C(C([H])([H])[H])(C([H])([H])[H])C(=O)C([H])=C([H])C13C([H])([H])[H])C2(C([H])([H])[H])C([H])([H])[H]

$$$$
77:0:1
     RDKit          3D

 81 87  0  0  1  0  0  0  0  0999 V2000
   -0.9649   -8.2522    4.6134 C   0  0  0  0  0  0  0  0  0  0  0  0
    0.2051   -7.9859    3.7019 C   0  0  0  0  0  0  0  0  0  0  0  0
    0.4410   -8.5335    2.5116 C   0  0  0  0  0  0  0  0  0  0  0  0
    1.7345   -8.0481    1.9061 C   0  0  2  0  0  0  0  0  0  0  0  0
    2.7654   -9.1815    1.9243 C   0  0  0  0  0  0  0  0  0  0  0  0
    3.6857   -9.0530    3.1537 C   0  0  1  0  0  0  0  0  0  0  0  0
    4.4203  -10.2346    3.3969 O   0  0  0  0  0  0  0  0  0  0  0  0
    4.5766   -7.7750    3.0684 C   0  0  1  0  0  0  0  0  0  0  0  0
    5.6751   -7.8480    1.9347 C   0  0  0  0  0  0  0  0  0  0  0  0
    7.0170   -7.1447    2.2740 C   0  0  0  0  0  0  0  0  0  0  0  0
    6.1030   -9.2224    1.3534 C   0  0  0  0  0  0  0  0  0  0  0  0
    5.0139   -7.1827    0.8854 O   0  0  0  0  0  0  0  0  0  0  0  0
    4.3206   -6.0496    1.3884 C   0  0  1  0  0  0  0  0  0  0  0  0
    3.5232   -5.5237    0.1349 C   0  0  0  0  0  0  0  0  0  0  0  0
    2.9248   -4.1353    0.1942 C   0  0  2  0  0  0  0  0  0  0  0  0
    2.7755   -3.2875   -0.9687 O   0  0  0  0  0  0  0  0  0  0  0  0
    3.7663   -2.9368    0.0088 C   0  0  1  0  0  0  0  0  0  0  0  0
    3.9722   -1.6223    0.5677 C   0  0  1  0  0  0  0  0  0  0  0  0
    4.0859   -1.6666    2.0992 C   0  0  0  0  0  0  0  0  0  0  0  0
    4.2664   -3.0779    2.7097 C   0  0  0  0  0  0  0  0  0  0  0  0
    3.5705   -3.8193    3.6172 C   0  0  0  0  0  0  0  0  0  0  0  0
    2.4778   -3.1328    4.4879 C   0  0  0  0  0  0  0  0  0  0  0  0
    3.0786   -1.8950    5.2094 C   0  0  0  0  0  0  0  0  0  0  0  0
    1.2491   -2.7451    3.6249 C   0  0  0  0  0  0  0  0  0  0  0  0
    1.9552   -3.9920    5.6536 C   0  0  0  0  0  0  0  0  0  0  0  0
    0.9022   -3.6517    6.1983 O   0  0  0  0  0  0  0  0  0  0  0  0
    2.6965   -5.1543    6.1277 C   0  0  0  0  0  0  0  0  0  0  0  0
    3.6111   -5.7393    5.3432 C   0  0  0  0  0  0  0  0  0  0  0  0
    4.0750   -5.2823    3.9587 C   0  0  2  0  0  0  0  0  0  0  0  0
    5.5924   -5.1141    4.2733 C   0  0  0  0  0  0  0  0  0  0  0  0
    3.7192   -6.4370    2.8288 C   0  0  2  0  0  0  0  0  0  0  0  0
    2.1332   -6.8096    2.7743 C   0  0  1  0  0  0  0  0  0  0  0  0
    1.3980   -5.7475    2.2219 O   0  0  0  0  0  0  0  0  0  0  0  0
    1.2976   -7.0396    4.0865 C   0  0  0  0  0  0  0  0  0  0  0  0
    4.9615   -2.2841   -0.5188 C   0  0  0  0  0  0  0  0  0  0  0  0
    6.3037   -2.8757   -0.1667 C   0  0  0  0  0  0  0  0  0  0  0  0
    5.0663   -1.5097   -1.8221 C   0  0  0  0  0  0  0  0  0  0  0  0
   -1.4978   -7.3280    4.8258 H   0  0  0  0  0  0  0  0  0  0  0  0
   -0.6069   -8.6654    5.5548 H   0  0  0  0  0  0  0  0  0  0  0  0
   -1.6602   -8.9643    4.1731 H   0  0  0  0  0  0  0  0  0  0  0  0
   -0.2052   -9.2527    2.0476 H   0  0  0  0  0  0  0  0  0  0  0  0
    1.5147   -7.7651    0.8767 H   0  0  0  0  0  0  0  0  0  0  0  0
    2.2655  -10.1486    1.9183 H   0  0  0  0  0  0  0  0  0  0  0  0
    3.3091   -9.1550    0.9833 H   0  0  0  0  0  0  0  0  0  0  0  0
    3.0713   -9.0093    4.0528 H   0  0  0  0  0  0  0  0  0  0  0  0
    3.8330  -10.9738    3.3452 H   0  0  0  0  0  0  0  0  0  0  0  0
    5.0974   -7.7571    4.0239 H   0  0  0  0  0  0  0  0  0  0  0  0
    7.3117   -7.3175    3.3099 H   0  0  0  0  0  0  0  0  0  0  0  0
    7.0266   -6.0787    2.0781 H   0  0  0  0  0  0  0  0  0  0  0  0
    7.8384   -7.5181    1.6613 H   0  0  0  0  0  0  0  0  0  0  0  0
    6.6500   -9.8100    2.0904 H   0  0  0  0  0  0  0  0  0  0  0  0
    6.7690   -9.0907    0.4993 H   0  0  0  0  0  0  0  0  0  0  0  0
    5.2852   -9.8346    0.9842 H   0  0  0  0  0  0  0  0  0  0  0  0
    5.1284   -5.3553    1.5388 H   0  0  0  0  0  0  0  0  0  0  0  0
    4.2098   -5.5484   -0.7214 H   0  0  0  0  0  0  0  0  0  0  0  0
    2.7038   -6.1944   -0.1069 H   0  0  0  0  0  0  0  0  0  0  0  0
    2.2089   -3.9698    0.9733 H   0  0  0  0  0  0  0  0  0  0  0  0
    3.3929   -0.7809    0.1802 H   0  0  0  0  0  0  0  0  0  0  0  0
    4.9647   -1.0772    2.3359 H   0  0  0  0  0  0  0  0  0  0  0  0
    3.2234   -1.1423    2.5104 H   0  0  0  0  0  0  0  0  0  0  0  0
    5.1284   -3.5200    2.2771 H   0  0  0  0  0  0  0  0  0  0  0  0
    3.9287   -2.1985    5.8181 H   0  0  0  0  0  0  0  0  0  0  0  0
    2.3591   -1.4280    5.8849 H   0  0  0  0  0  0  0  0  0  0  0  0
    3.4405   -1.1021    4.5635 H   0  0  0  0  0  0  0  0  0  0  0  0
    0.6103   -3.6100    3.4566 H   0  0  0  0  0  0  0  0  0  0  0  0
    1.5034   -2.3686    2.6385 H   0  0  0  0  0  0  0  0  0  0  0  0
    0.6265   -1.9901    4.1103 H   0  0  0  0  0  0  0  0  0  0  0  0
    2.4313   -5.5686    7.0923 H   0  0  0  0  0  0  0  0  0  0  0  0
    4.1082   -6.6309    5.7158 H   0  0  0  0  0  0  0  0  0  0  0  0
    5.7232   -4.3486    5.0401 H   0  0  0  0  0  0  0  0  0  0  0  0
    6.2065   -4.7848    3.4490 H   0  0  0  0  0  0  0  0  0  0  0  0
    6.0563   -6.0021    4.6951 H   0  0  0  0  0  0  0  0  0  0  0  0
    1.6629   -4.9714    2.6890 H   0  0  0  0  0  0  0  0  0  0  0  0
    0.8276   -6.1408    4.4871 H   0  0  0  0  0  0  0  0  0  0  0  0
    1.8433   -7.5331    4.8865 H   0  0  0  0  0  0  0  0  0  0  0  0
    6.9295   -2.1058    0.2787 H   0  0  0  0  0  0  0  0  0  0  0  0
    6.7980   -3.2918   -1.0487 H   0  0  0  0  0  0  0  0  0  0  0  0
    6.1853   -3.6980    0.5281 H   0  0  0  0  0  0  0  0  0  0  0  0
    5.7854   -0.7018   -1.6837 H   0  0  0  0  0  0  0  0  0  0  0  0
    4.1146   -1.0485   -2.0869 H   0  0  0  0  0  0  0  0  0  0  0  0
    5.4110   -2.1331   -2.6524 H   0  0  0  0  0  0  0  0  0  0  0  0
  1  2  1  0
  1 38  1  0
  1 39  1  0
  1 40  1  0
  2 34  1  0
  2  3  2  0
  3  4  1  0
  3 41  1  0
  4 32  1  0
  4  5  1  0
  4 42  1  6
  5  6  1  0
  5 43  1  0
  5 44  1  0
  6  7  1  0
  6  8  1  0
  6 45  1  1
  7 46  1  0
  8 31  1  0
  8  9  1  0
  8 47  1  1
  9 10  1  0
  9 11  1  0
  9 12  1  0
 10 48  1  0
 10 49  1  0
 10 50  1  0
 11 51  1  0
 11 52  1  0
 11 53  1  0
 12 13  1  0
 13 31  1  0
 13 14  1  0
 13 54  1  1
 14 15  1  0
 14 55  1  0
 14 56  1  0
 15 17  1  0
 15 16  1  0
 15 57  1  1
 17 16  1  6
 17 35  1  0
 17 18  1  0
 18 19  1  0
 18 35  1  0
 18 58  1  6
 19 20  1  0
 19 59  1  0
 19 60  1  0
 20 21  2  3
 20 61  1  0
 21 29  1  0
 21 22  1  0
 22 23  1  0
 22 24  1  0
 22 25  1  0
 23 62  1  0
 23 63  1  0
 23 64  1  0
 24 65  1  0
 24 66  1  0
 24 67  1  0
 25 26  2  0
 25 27  1  0
 27 28  2  0
 27 68  1  0
 28 29  1  0
 28 69  1  0
 29 30  1  1
 31 29  1  1
 30 70  1  0
 30 71  1  0
 30 72  1  0
 31 32  1  0
 32 33  1  6
 32 34  1  0
 33 73  1  0
 34 74  1  0
 34 75  1  0
 35 36  1  0
 35 37  1  0
 36 76  1  0
 36 77  1  0
 36 78  1  0
 37 79  1  0
 37 80  1  0
 37 81  1  0
M  END
>  <i_m_ct_stereo_status>  (278) 
1

>  <s_m_source_file>  (278) 
/var/tmp/pbs.5076255.sched01/tmp7qb2j_xu/82up84z1qn.sdf

>  <i_m_source_file_index>  (278) 
40

>  <i_lp_mmshare_version>  (278) 
48012

>  <i_f3d_flags>  (278) 
0

>  <s_epik_input>  (278) 
W0NIM11DKD1bQ0hdMSlbQ0gyXVtDQF0yKFtPSF0pW0NASF0xW0NIMl1bQ0BASF0oW09IXSlbQ0BASF0oQyhPMykoW0NIM10pW0NIM10pW0NAXTIoW0NAQEhdM1tDSDJdW0NASF0oTzQpQzQ1NilbQ0BAXTcoW0NIM10pQyhcQyhbQ0gzXSkoW0NIM10pQyg9TylbQ0hdPVtDSF03KT1bQ0hdXFtDSDJdW0NASF01QzYoW0NIM10pW0NIM10=

>  <s_epik_cmdline>  (278) 
J2VwaWtfcHl0aG9uJywgJy1waHQnLCAnMi4wJywgJy1waCcsICc3LjAnLCAnLXRuJywgJzgnLCAnLW1hJywgJzIwMCcsICctaW1hZScsICc8aW5maWxlLm1hZT4nLCAnLW9tYWUnLCAnPG91dGZpbGUubWFlPic=

>  <r_lp_tautomer_probability>  (278) 
1

>  <r_epik_Ionization_Penalty>  (278) 
1.28386e-07

>  <r_epik_Ionization_Penalty_Charging>  (278) 
0

>  <r_epik_Ionization_Penalty_Neutral>  (278) 
1.28386e-07

>  <r_epik_State_Penalty>  (278) 
-0

>  <r_epik_Charging_Adjusted_Penalty>  (278) 
0

>  <i_epik_Tot_Q>  (278) 
0

>  <i_epik_Tot_abs_Q>  (278) 
0

>  <s_lp_Force_Field>  (278) 
OPLS3e

>  <r_lp_Energy>  (278) 
104.648

>  <b_lp_Chiralities_Consistent>  (278) 
1

>  <s_lp_Variant>  (278) 
77:0-1

>  <s_i_glide_gridfile>  (278) 
pfpi4k_grid

>  <i_i_glide_lignum>  (278) 
40

>  <i_i_glide_rotatable_bonds>  (278) 
2

>  <r_i_docking_score>  (278) 
-2.48259

>  <r_i_glide_ligand_efficiency>  (278) 
-0.0670971

>  <r_i_glide_ligand_efficiency_sa>  (278) 
-0.223582

>  <r_i_glide_ligand_efficiency_ln>  (278) 
-0.538416

>  <r_i_glide_gscore>  (278) 
-2.48259

>  <r_i_glide_lipo>  (278) 
-0.346692

>  <r_i_glide_hbond>  (278) 
-0.0172806

>  <r_i_glide_metal>  (278) 
-0

>  <r_i_glide_rewards>  (278) 
0

>  <r_i_glide_evdw>  (278) 
-35.21

>  <r_i_glide_ecoul>  (278) 
-2.38745

>  <r_i_glide_erotb>  (278) 
0

>  <r_i_glide_esite>  (278) 
0

>  <r_i_glide_emodel>  (278) 
-42.047

>  <r_i_glide_energy>  (278) 
-37.5975

>  <r_i_glide_einternal>  (278) 
0.526729

>  <r_i_glide_intrahb_reward>  (278) 
-0

>  <i_i_glide_confnum>  (278) 
2

>  <i_i_glide_posenum>  (278) 
24

>  <r_i_glide_eff_state_penalty>  (278) 
0

>  <ligand_id>  (278) 
77

>  <original_smiles>  (278) 
CC1=CC2CC(O)C3C(C)(C)OC4CC5OC56C(CC=C5C(C)(C)C(=O)C=CC5(C)C43C2(O)C1)C6(C)C

>  <smiles>  (278) 
[H]OC1([H])C([H])([H])C2([H])C([H])=C(C([H])([H])[H])C([H])([H])C2(O[H])C23C([H])(OC(C([H])([H])[H])(C([H])([H])[H])C12[H])C([H])([H])C1([H])OC12C([H])(C([H])([H])C([H])=C1C(C([H])([H])[H])(C([H])([H])[H])C(=O)C([H])=C([H])C13C([H])([H])[H])C2(C([H])([H])[H])C([H])([H])[H]

$$$$
77:0:2
     RDKit          3D

 81 87  0  0  1  0  0  0  0  0999 V2000
   -0.9584   -8.2542    4.6030 C   0  0  0  0  0  0  0  0  0  0  0  0
    0.2110   -7.9848    3.6937 C   0  0  0  0  0  0  0  0  0  0  0  0
    0.4540   -8.5380    2.5070 C   0  0  0  0  0  0  0  0  0  0  0  0
    1.7490   -8.0527    1.9052 C   0  0  2  0  0  0  0  0  0  0  0  0
    2.7836   -9.1815    1.9262 C   0  0  0  0  0  0  0  0  0  0  0  0
    3.6990   -9.0460    3.1587 C   0  0  1  0  0  0  0  0  0  0  0  0
    4.4360  -10.2250    3.4040 O   0  0  0  0  0  0  0  0  0  0  0  0
    4.5870   -7.7658    3.0741 C   0  0  1  0  0  0  0  0  0  0  0  0
    5.6863   -7.8356    1.9414 C   0  0  0  0  0  0  0  0  0  0  0  0
    7.0254   -7.1281    2.2826 C   0  0  0  0  0  0  0  0  0  0  0  0
    6.1193   -9.2092    1.3626 C   0  0  0  0  0  0  0  0  0  0  0  0
    5.0225   -7.1735    0.8909 O   0  0  0  0  0  0  0  0  0  0  0  0
    4.3290   -6.0405    1.3925 C   0  0  1  0  0  0  0  0  0  0  0  0
    3.5308   -5.5159    0.1374 C   0  0  0  0  0  0  0  0  0  0  0  0
    2.9308   -4.1256    0.1917 C   0  0  2  0  0  0  0  0  0  0  0  0
    2.7820   -3.2853   -0.9769 O   0  0  0  0  0  0  0  0  0  0  0  0
    3.7706   -2.9264    0.0032 C   0  0  1  0  0  0  0  0  0  0  0  0
    3.9729   -1.6127    0.5624 C   0  0  1  0  0  0  0  0  0  0  0  0
    4.0795   -1.6578    2.0948 C   0  0  0  0  0  0  0  0  0  0  0  0
    4.2631   -3.0680    2.7071 C   0  0  0  0  0  0  0  0  0  0  0  0
    3.5669   -3.8113    3.6142 C   0  0  0  0  0  0  0  0  0  0  0  0
    2.4709   -3.1257    4.4810 C   0  0  0  0  0  0  0  0  0  0  0  0
    3.0656   -1.8859    5.2035 C   0  0  0  0  0  0  0  0  0  0  0  0
    1.2438   -2.7423    3.6154 C   0  0  0  0  0  0  0  0  0  0  0  0
    1.9462   -3.9858    5.6451 C   0  0  0  0  0  0  0  0  0  0  0  0
    0.8932   -3.6452    6.1908 O   0  0  0  0  0  0  0  0  0  0  0  0
    2.6898   -5.1464    6.1226 C   0  0  0  0  0  0  0  0  0  0  0  0
    3.6081   -5.7291    5.3436 C   0  0  0  0  0  0  0  0  0  0  0  0
    4.0749   -5.2726    3.9594 C   0  0  2  0  0  0  0  0  0  0  0  0
    5.5904   -5.0992    4.2770 C   0  0  0  0  0  0  0  0  0  0  0  0
    3.7260   -6.4303    2.8320 C   0  0  2  0  0  0  0  0  0  0  0  0
    2.1413   -6.8121    2.7754 C   0  0  1  0  0  0  0  0  0  0  0  0
    1.4057   -5.7636    2.2021 O   0  0  0  0  0  0  0  0  0  0  0  0
    1.2982   -7.0351    4.0790 C   0  0  0  0  0  0  0  0  0  0  0  0
    4.9656   -2.2742   -0.5208 C   0  0  0  0  0  0  0  0  0  0  0  0
    6.3074   -2.8638   -0.1648 C   0  0  0  0  0  0  0  0  0  0  0  0
    5.0693   -1.5034   -1.8249 C   0  0  0  0  0  0  0  0  0  0  0  0
   -1.4950   -7.3290    4.8144 H   0  0  0  0  0  0  0  0  0  0  0  0
   -0.6021   -8.6628    5.5472 H   0  0  0  0  0  0  0  0  0  0  0  0
   -1.6526   -8.9673    4.1632 H   0  0  0  0  0  0  0  0  0  0  0  0
   -0.1897   -9.2597    2.0445 H   0  0  0  0  0  0  0  0  0  0  0  0
    1.5294   -7.7757    0.8782 H   0  0  0  0  0  0  0  0  0  0  0  0
    2.2842  -10.1489    1.9205 H   0  0  0  0  0  0  0  0  0  0  0  0
    3.3279   -9.1532    0.9850 H   0  0  0  0  0  0  0  0  0  0  0  0
    3.0812   -9.0013    4.0557 H   0  0  0  0  0  0  0  0  0  0  0  0
    3.8485  -10.9640    3.3582 H   0  0  0  0  0  0  0  0  0  0  0  0
    5.1061   -7.7447    4.0309 H   0  0  0  0  0  0  0  0  0  0  0  0
    7.3179   -7.2995    3.3193 H   0  0  0  0  0  0  0  0  0  0  0  0
    7.0332   -6.0623    2.0863 H   0  0  0  0  0  0  0  0  0  0  0  0
    7.8488   -7.5002    1.6720 H   0  0  0  0  0  0  0  0  0  0  0  0
    6.6662   -9.7940    2.1019 H   0  0  0  0  0  0  0  0  0  0  0  0
    6.7872   -9.0763    0.5104 H   0  0  0  0  0  0  0  0  0  0  0  0
    5.3045   -9.8246    0.9922 H   0  0  0  0  0  0  0  0  0  0  0  0
    5.1366   -5.3452    1.5437 H   0  0  0  0  0  0  0  0  0  0  0  0
    4.2207   -5.5396   -0.7156 H   0  0  0  0  0  0  0  0  0  0  0  0
    2.7206   -6.1924   -0.1180 H   0  0  0  0  0  0  0  0  0  0  0  0
    2.2206   -3.9466    0.9750 H   0  0  0  0  0  0  0  0  0  0  0  0
    3.3881   -0.7763    0.1731 H   0  0  0  0  0  0  0  0  0  0  0  0
    4.9557   -1.0663    2.3327 H   0  0  0  0  0  0  0  0  0  0  0  0
    3.2148   -1.1362    2.5042 H   0  0  0  0  0  0  0  0  0  0  0  0
    5.1277   -3.5076    2.2792 H   0  0  0  0  0  0  0  0  0  0  0  0
    3.9148   -2.1874    5.8143 H   0  0  0  0  0  0  0  0  0  0  0  0
    2.3430   -1.4210    5.8769 H   0  0  0  0  0  0  0  0  0  0  0  0
    3.4269   -1.0927    4.5581 H   0  0  0  0  0  0  0  0  0  0  0  0
    0.6222   -3.6187    3.4398 H   0  0  0  0  0  0  0  0  0  0  0  0
    1.4990   -2.3652    2.6299 H   0  0  0  0  0  0  0  0  0  0  0  0
    0.6118   -1.9929    4.0984 H   0  0  0  0  0  0  0  0  0  0  0  0
    2.4222   -5.5590    7.0880 H   0  0  0  0  0  0  0  0  0  0  0  0
    4.1091   -6.6186    5.7181 H   0  0  0  0  0  0  0  0  0  0  0  0
    5.7171   -4.3324    5.0429 H   0  0  0  0  0  0  0  0  0  0  0  0
    6.2047   -4.7691    3.4532 H   0  0  0  0  0  0  0  0  0  0  0  0
    6.0559   -5.9853    4.7004 H   0  0  0  0  0  0  0  0  0  0  0  0
    1.9345   -5.4382    1.4953 H   0  0  0  0  0  0  0  0  0  0  0  0
    0.8302   -6.1289    4.4647 H   0  0  0  0  0  0  0  0  0  0  0  0
    1.8416   -7.5225    4.8833 H   0  0  0  0  0  0  0  0  0  0  0  0
    6.9282   -2.0913    0.2815 H   0  0  0  0  0  0  0  0  0  0  0  0
    6.8047   -3.2792   -1.0449 H   0  0  0  0  0  0  0  0  0  0  0  0
    6.1881   -3.6855    0.5310 H   0  0  0  0  0  0  0  0  0  0  0  0
    5.7830   -0.6928   -1.6839 H   0  0  0  0  0  0  0  0  0  0  0  0
    4.1164   -1.0458   -2.0907 H   0  0  0  0  0  0  0  0  0  0  0  0
    5.4169   -2.1267   -2.6535 H   0  0  0  0  0  0  0  0  0  0  0  0
  1  2  1  0
  1 38  1  0
  1 39  1  0
  1 40  1  0
  2 34  1  0
  2  3  2  0
  3  4  1  0
  3 41  1  0
  4 32  1  0
  4  5  1  0
  4 42  1  6
  5  6  1  0
  5 43  1  0
  5 44  1  0
  6  7  1  0
  6  8  1  0
  6 45  1  1
  7 46  1  0
  8 31  1  0
  8  9  1  0
  8 47  1  1
  9 10  1  0
  9 11  1  0
  9 12  1  0
 10 48  1  0
 10 49  1  0
 10 50  1  0
 11 51  1  0
 11 52  1  0
 11 53  1  0
 12 13  1  0
 13 31  1  0
 13 14  1  0
 13 54  1  1
 14 15  1  0
 14 55  1  0
 14 56  1  0
 15 17  1  0
 15 16  1  0
 15 57  1  1
 17 16  1  6
 17 35  1  0
 17 18  1  0
 18 19  1  0
 18 35  1  0
 18 58  1  6
 19 20  1  0
 19 59  1  0
 19 60  1  0
 20 21  2  3
 20 61  1  0
 21 29  1  0
 21 22  1  0
 22 23  1  0
 22 24  1  0
 22 25  1  0
 23 62  1  0
 23 63  1  0
 23 64  1  0
 24 65  1  0
 24 66  1  0
 24 67  1  0
 25 26  2  0
 25 27  1  0
 27 28  2  0
 27 68  1  0
 28 29  1  0
 28 69  1  0
 29 30  1  1
 31 29  1  1
 30 70  1  0
 30 71  1  0
 30 72  1  0
 31 32  1  0
 32 33  1  6
 32 34  1  0
 33 73  1  0
 34 74  1  0
 34 75  1  0
 35 36  1  0
 35 37  1  0
 36 76  1  0
 36 77  1  0
 36 78  1  0
 37 79  1  0
 37 80  1  0
 37 81  1  0
M  END
>  <i_m_ct_stereo_status>  (279) 
1

>  <s_m_source_file>  (279) 
/var/tmp/pbs.5076255.sched01/tmp7qb2j_xu/82up84z1qn.sdf

>  <i_m_source_file_index>  (279) 
40

>  <i_lp_mmshare_version>  (279) 
48012

>  <i_f3d_flags>  (279) 
0

>  <s_epik_input>  (279) 
W0NIM11DKD1bQ0hdMSlbQ0gyXVtDQF0yKFtPSF0pW0NASF0xW0NIMl1bQ0BASF0oW09IXSlbQ0BASF0oQyhPMykoW0NIM10pW0NIM10pW0NAXTIoW0NAQEhdM1tDSDJdW0NASF0oTzQpQzQ1NilbQ0BAXTcoW0NIM10pQyhcQyhbQ0gzXSkoW0NIM10pQyg9TylbQ0hdPVtDSF03KT1bQ0hdXFtDSDJdW0NASF01QzYoW0NIM10pW0NIM10=

>  <s_epik_cmdline>  (279) 
J2VwaWtfcHl0aG9uJywgJy1waHQnLCAnMi4wJywgJy1waCcsICc3LjAnLCAnLXRuJywgJzgnLCAnLW1hJywgJzIwMCcsICctaW1hZScsICc8aW5maWxlLm1hZT4nLCAnLW9tYWUnLCAnPG91dGZpbGUubWFlPic=

>  <r_lp_tautomer_probability>  (279) 
1

>  <r_epik_Ionization_Penalty>  (279) 
1.28386e-07

>  <r_epik_Ionization_Penalty_Charging>  (279) 
0

>  <r_epik_Ionization_Penalty_Neutral>  (279) 
1.28386e-07

>  <r_epik_State_Penalty>  (279) 
-0

>  <r_epik_Charging_Adjusted_Penalty>  (279) 
0

>  <i_epik_Tot_Q>  (279) 
0

>  <i_epik_Tot_abs_Q>  (279) 
0

>  <s_lp_Force_Field>  (279) 
OPLS3e

>  <r_lp_Energy>  (279) 
104.648

>  <b_lp_Chiralities_Consistent>  (279) 
1

>  <s_lp_Variant>  (279) 
77:0-1

>  <s_i_glide_gridfile>  (279) 
pfpi4k_grid

>  <i_i_glide_lignum>  (279) 
40

>  <i_i_glide_rotatable_bonds>  (279) 
2

>  <r_i_docking_score>  (279) 
-2.33018

>  <r_i_glide_ligand_efficiency>  (279) 
-0.062978

>  <r_i_glide_ligand_efficiency_sa>  (279) 
-0.209857

>  <r_i_glide_ligand_efficiency_ln>  (279) 
-0.505362

>  <r_i_glide_gscore>  (279) 
-2.33018

>  <r_i_glide_lipo>  (279) 
-0.349372

>  <r_i_glide_hbond>  (279) 
-0.0175499

>  <r_i_glide_metal>  (279) 
-0

>  <r_i_glide_rewards>  (279) 
0

>  <r_i_glide_evdw>  (279) 
-35.2672

>  <r_i_glide_ecoul>  (279) 
-1.33267

>  <r_i_glide_erotb>  (279) 
0

>  <r_i_glide_esite>  (279) 
0

>  <r_i_glide_emodel>  (279) 
-40.4727

>  <r_i_glide_energy>  (279) 
-36.5999

>  <r_i_glide_einternal>  (279) 
0.737891

>  <r_i_glide_intrahb_reward>  (279) 
-0

>  <i_i_glide_confnum>  (279) 
2

>  <i_i_glide_posenum>  (279) 
17

>  <r_i_glide_eff_state_penalty>  (279) 
0

>  <ligand_id>  (279) 
77

>  <original_smiles>  (279) 
CC1=CC2CC(O)C3C(C)(C)OC4CC5OC56C(CC=C5C(C)(C)C(=O)C=CC5(C)C43C2(O)C1)C6(C)C

>  <smiles>  (279) 
[H]OC1([H])C([H])([H])C2([H])C([H])=C(C([H])([H])[H])C([H])([H])C2(O[H])C23C([H])(OC(C([H])([H])[H])(C([H])([H])[H])C12[H])C([H])([H])C1([H])OC12C([H])(C([H])([H])C([H])=C1C(C([H])([H])[H])(C([H])([H])[H])C(=O)C([H])=C([H])C13C([H])([H])[H])C2(C([H])([H])[H])C([H])([H])[H]

$$$$
77:1:0
     RDKit          3D

 81 87  0  0  1  0  0  0  0  0999 V2000
   -1.7646   -7.9430    4.0551 C   0  0  0  0  0  0  0  0  0  0  0  0
   -0.4229   -7.7408    3.4105 C   0  0  0  0  0  0  0  0  0  0  0  0
   -0.0142   -8.2504    2.2558 C   0  0  0  0  0  0  0  0  0  0  0  0
    1.4087   -7.8785    1.9207 C   0  0  2  0  0  0  0  0  0  0  0  0
    2.3095   -9.1111    2.0669 C   0  0  0  0  0  0  0  0  0  0  0  0
    2.9904   -9.1370    3.4495 C   0  0  1  0  0  0  0  0  0  0  0  0
    3.5662  -10.3948    3.7358 O   0  0  0  0  0  0  0  0  0  0  0  0
    3.9945   -7.9549    3.6108 C   0  0  1  0  0  0  0  0  0  0  0  0
    5.2780   -8.0652    2.6992 C   0  0  0  0  0  0  0  0  0  0  0  0
    6.5785   -7.4982    3.3217 C   0  0  0  0  0  0  0  0  0  0  0  0
    5.6934   -9.4378    2.1113 C   0  0  0  0  0  0  0  0  0  0  0  0
    4.9011   -7.2816    1.5980 O   0  0  0  0  0  0  0  0  0  0  0  0
    4.1780   -6.1403    2.0347 C   0  0  1  0  0  0  0  0  0  0  0  0
    3.6560   -5.5125    0.6857 C   0  0  0  0  0  0  0  0  0  0  0  0
    3.3500   -4.0409    0.7769 C   0  0  2  0  0  0  0  0  0  0  0  0
    3.5620   -3.0103   -0.2511 O   0  0  0  0  0  0  0  0  0  0  0  0
    4.5080   -3.1593    0.8058 C   0  0  1  0  0  0  0  0  0  0  0  0
    5.1444   -2.2346    1.6805 C   0  0  1  0  0  0  0  0  0  0  0  0
    5.1955   -2.8252    3.0778 C   0  0  0  0  0  0  0  0  0  0  0  0
    3.8320   -2.9797    3.7704 C   0  0  0  0  0  0  0  0  0  0  0  0
    3.1167   -3.9780    4.3802 C   0  0  0  0  0  0  0  0  0  0  0  0
    1.8987   -3.3971    5.1767 C   0  0  0  0  0  0  0  0  0  0  0  0
    2.3641   -2.2408    6.1128 C   0  0  0  0  0  0  0  0  0  0  0  0
    0.8239   -2.8467    4.2001 C   0  0  0  0  0  0  0  0  0  0  0  0
    1.2076   -4.3690    6.1429 C   0  0  0  0  0  0  0  0  0  0  0  0
    0.0892   -4.0688    6.5682 O   0  0  0  0  0  0  0  0  0  0  0  0
    1.8672   -5.5972    6.5617 C   0  0  0  0  0  0  0  0  0  0  0  0
    2.8765   -6.0959    5.8393 C   0  0  0  0  0  0  0  0  0  0  0  0
    3.5499   -5.4954    4.5917 C   0  0  2  0  0  0  0  0  0  0  0  0
    4.9987   -5.4302    5.1516 C   0  0  0  0  0  0  0  0  0  0  0  0
    3.3097   -6.5312    3.3189 C   0  0  2  0  0  0  0  0  0  0  0  0
    1.7416   -6.7336    2.9392 C   0  0  1  0  0  0  0  0  0  0  0  0
    1.2294   -5.5722    2.3343 O   0  0  0  0  0  0  0  0  0  0  0  0
    0.6514   -6.9357    4.0539 C   0  0  0  0  0  0  0  0  0  0  0  0
    5.9051   -2.9044    0.4365 C   0  0  0  0  0  0  0  0  0  0  0  0
    6.9523   -3.9850    0.6127 C   0  0  0  0  0  0  0  0  0  0  0  0
    6.3794   -1.9173   -0.6080 C   0  0  0  0  0  0  0  0  0  0  0  0
   -2.2484   -6.9804    4.2192 H   0  0  0  0  0  0  0  0  0  0  0  0
   -1.6347   -8.4425    5.0141 H   0  0  0  0  0  0  0  0  0  0  0  0
   -2.4191   -8.5676    3.4453 H   0  0  0  0  0  0  0  0  0  0  0  0
   -0.6464   -8.8788    1.6657 H   0  0  0  0  0  0  0  0  0  0  0  0
    1.4213   -7.5453    0.8816 H   0  0  0  0  0  0  0  0  0  0  0  0
    1.7323  -10.0187    1.9062 H   0  0  0  0  0  0  0  0  0  0  0  0
    3.0213   -9.1024    1.2448 H   0  0  0  0  0  0  0  0  0  0  0  0
    2.2272   -9.0743    4.2253 H   0  0  0  0  0  0  0  0  0  0  0  0
    2.9131  -11.0689    3.6280 H   0  0  0  0  0  0  0  0  0  0  0  0
    4.3473   -8.0437    4.6371 H   0  0  0  0  0  0  0  0  0  0  0  0
    6.6811   -7.7760    4.3714 H   0  0  0  0  0  0  0  0  0  0  0  0
    6.6807   -6.4244    3.2247 H   0  0  0  0  0  0  0  0  0  0  0  0
    7.4646   -7.8795    2.8152 H   0  0  0  0  0  0  0  0  0  0  0  0
    6.0405  -10.1125    2.8937 H   0  0  0  0  0  0  0  0  0  0  0  0
    6.5130   -9.3174    1.4013 H   0  0  0  0  0  0  0  0  0  0  0  0
    4.9103   -9.9497    1.5602 H   0  0  0  0  0  0  0  0  0  0  0  0
    4.9342   -5.4794    2.4124 H   0  0  0  0  0  0  0  0  0  0  0  0
    4.4347   -5.6524   -0.0722 H   0  0  0  0  0  0  0  0  0  0  0  0
    2.7718   -6.0091    0.2989 H   0  0  0  0  0  0  0  0  0  0  0  0
    2.6198   -3.7814    1.5131 H   0  0  0  0  0  0  0  0  0  0  0  0
    4.8531   -1.1875    1.5921 H   0  0  0  0  0  0  0  0  0  0  0  0
    5.7686   -3.7285    3.0210 H   0  0  0  0  0  0  0  0  0  0  0  0
    5.7939   -2.1404    3.6640 H   0  0  0  0  0  0  0  0  0  0  0  0
    3.3869   -1.9996    3.7867 H   0  0  0  0  0  0  0  0  0  0  0  0
    3.1948   -2.5781    6.7302 H   0  0  0  0  0  0  0  0  0  0  0  0
    1.5767   -1.9212    6.7987 H   0  0  0  0  0  0  0  0  0  0  0  0
    2.6894   -1.3361    5.5990 H   0  0  0  0  0  0  0  0  0  0  0  0
    0.2834   -3.6597    3.7240 H   0  0  0  0  0  0  0  0  0  0  0  0
    1.2388   -2.2295    3.4044 H   0  0  0  0  0  0  0  0  0  0  0  0
    0.0712   -2.2405    4.7101 H   0  0  0  0  0  0  0  0  0  0  0  0
    1.4712   -6.1209    7.4261 H   0  0  0  0  0  0  0  0  0  0  0  0
    3.3049   -7.0333    6.1798 H   0  0  0  0  0  0  0  0  0  0  0  0
    5.0334   -4.7331    5.9891 H   0  0  0  0  0  0  0  0  0  0  0  0
    5.7633   -5.0845    4.4807 H   0  0  0  0  0  0  0  0  0  0  0  0
    5.3426   -6.3740    5.5696 H   0  0  0  0  0  0  0  0  0  0  0  0
    1.4909   -4.8497    2.8793 H   0  0  0  0  0  0  0  0  0  0  0  0
    0.1810   -6.0205    4.4127 H   0  0  0  0  0  0  0  0  0  0  0  0
    0.9734   -7.5357    4.9005 H   0  0  0  0  0  0  0  0  0  0  0  0
    7.8809   -3.5572    0.9880 H   0  0  0  0  0  0  0  0  0  0  0  0
    7.1568   -4.4853   -0.3282 H   0  0  0  0  0  0  0  0  0  0  0  0
    6.6070   -4.7521    1.2932 H   0  0  0  0  0  0  0  0  0  0  0  0
    7.3298   -1.5017   -0.2695 H   0  0  0  0  0  0  0  0  0  0  0  0
    5.6612   -1.1073   -0.7142 H   0  0  0  0  0  0  0  0  0  0  0  0
    6.5285   -2.3919   -1.5796 H   0  0  0  0  0  0  0  0  0  0  0  0
  1  2  1  0
  1 38  1  0
  1 39  1  0
  1 40  1  0
  2 34  1  0
  2  3  2  0
  3  4  1  0
  3 41  1  0
  4 32  1  0
  4  5  1  0
  4 42  1  6
  5  6  1  0
  5 43  1  0
  5 44  1  0
  6  7  1  0
  6  8  1  0
  6 45  1  1
  7 46  1  0
  8 31  1  0
  8  9  1  0
  8 47  1  1
  9 10  1  0
  9 11  1  0
  9 12  1  0
 10 48  1  0
 10 49  1  0
 10 50  1  0
 11 51  1  0
 11 52  1  0
 11 53  1  0
 12 13  1  0
 13 31  1  0
 13 14  1  0
 13 54  1  1
 14 15  1  0
 14 55  1  0
 14 56  1  0
 15 17  1  0
 15 16  1  0
 15 57  1  1
 17 16  1  6
 17 35  1  0
 17 18  1  0
 18 19  1  0
 18 35  1  0
 18 58  1  1
 19 20  1  0
 19 59  1  0
 19 60  1  0
 20 21  2  3
 20 61  1  0
 21 29  1  0
 21 22  1  0
 22 23  1  0
 22 24  1  0
 22 25  1  0
 23 62  1  0
 23 63  1  0
 23 64  1  0
 24 65  1  0
 24 66  1  0
 24 67  1  0
 25 26  2  0
 25 27  1  0
 27 28  2  0
 27 68  1  0
 28 29  1  0
 28 69  1  0
 29 30  1  1
 31 29  1  1
 30 70  1  0
 30 71  1  0
 30 72  1  0
 31 32  1  0
 32 33  1  6
 32 34  1  0
 33 73  1  0
 34 74  1  0
 34 75  1  0
 35 36  1  0
 35 37  1  0
 36 76  1  0
 36 77  1  0
 36 78  1  0
 37 79  1  0
 37 80  1  0
 37 81  1  0
M  END
>  <i_m_ct_stereo_status>  (280) 
1

>  <s_m_source_file>  (280) 
/var/tmp/pbs.5076255.sched01/tmp7qb2j_xu/82up84z1qn.sdf

>  <i_m_source_file_index>  (280) 
41

>  <i_lp_mmshare_version>  (280) 
48012

>  <i_f3d_flags>  (280) 
0

>  <s_epik_input>  (280) 
W0NIM11DKD1bQ0hdMSlbQ0gyXVtDQF0yKFtPSF0pW0NASF0xW0NIMl1bQ0BASF0oW09IXSlbQ0BASF0oQyhPMykoW0NIM10pW0NIM10pW0NAXTIoW0NAQEhdM1tDSDJdW0NASF0oTzQpQzQ1NilbQ0BAXTcoW0NIM10pQyhcQyhbQ0gzXSkoW0NIM10pQyg9TylbQ0hdPVtDSF03KT1bQ0hdXFtDSDJdW0NASF01QzYoW0NIM10pW0NIM10=

>  <s_epik_cmdline>  (280) 
J2VwaWtfcHl0aG9uJywgJy1waHQnLCAnMi4wJywgJy1waCcsICc3LjAnLCAnLXRuJywgJzgnLCAnLW1hJywgJzIwMCcsICctaW1hZScsICc8aW5maWxlLm1hZT4nLCAnLW9tYWUnLCAnPG91dGZpbGUubWFlPic=

>  <r_lp_tautomer_probability>  (280) 
1

>  <r_epik_Ionization_Penalty>  (280) 
1.28386e-07

>  <r_epik_Ionization_Penalty_Charging>  (280) 
0

>  <r_epik_Ionization_Penalty_Neutral>  (280) 
1.28386e-07

>  <r_epik_State_Penalty>  (280) 
-0

>  <r_epik_Charging_Adjusted_Penalty>  (280) 
0

>  <i_epik_Tot_Q>  (280) 
0

>  <i_epik_Tot_abs_Q>  (280) 
0

>  <s_lp_Force_Field>  (280) 
OPLS3e

>  <r_lp_Energy>  (280) 
107.261

>  <b_lp_Chiralities_Consistent>  (280) 
1

>  <s_lp_Variant>  (280) 
77:0-2

>  <s_i_glide_gridfile>  (280) 
pfpi4k_grid

>  <i_i_glide_lignum>  (280) 
41

>  <i_i_glide_rotatable_bonds>  (280) 
2

>  <r_i_docking_score>  (280) 
-2.48309

>  <r_i_glide_ligand_efficiency>  (280) 
-0.0671106

>  <r_i_glide_ligand_efficiency_sa>  (280) 
-0.223627

>  <r_i_glide_ligand_efficiency_ln>  (280) 
-0.538524

>  <r_i_glide_gscore>  (280) 
-2.48309

>  <r_i_glide_lipo>  (280) 
-0.392854

>  <r_i_glide_hbond>  (280) 
-0.0352137

>  <r_i_glide_metal>  (280) 
-0

>  <r_i_glide_rewards>  (280) 
0

>  <r_i_glide_evdw>  (280) 
-32.2381

>  <r_i_glide_ecoul>  (280) 
-2.95411

>  <r_i_glide_erotb>  (280) 
0

>  <r_i_glide_esite>  (280) 
0

>  <r_i_glide_emodel>  (280) 
-39.322

>  <r_i_glide_energy>  (280) 
-35.1923

>  <r_i_glide_einternal>  (280) 
0.467902

>  <r_i_glide_intrahb_reward>  (280) 
-0

>  <i_i_glide_confnum>  (280) 
2

>  <i_i_glide_posenum>  (280) 
1

>  <r_i_glide_eff_state_penalty>  (280) 
0

>  <ligand_id>  (280) 
77

>  <original_smiles>  (280) 
CC1=CC2CC(O)C3C(C)(C)OC4CC5OC56C(CC=C5C(C)(C)C(=O)C=CC5(C)C43C2(O)C1)C6(C)C

>  <smiles>  (280) 
[H]OC1([H])C([H])([H])C2([H])C([H])=C(C([H])([H])[H])C([H])([H])C2(O[H])C23C([H])(OC(C([H])([H])[H])(C([H])([H])[H])C12[H])C([H])([H])C1([H])OC12C([H])(C([H])([H])C([H])=C1C(C([H])([H])[H])(C([H])([H])[H])C(=O)C([H])=C([H])C13C([H])([H])[H])C2(C([H])([H])[H])C([H])([H])[H]

$$$$
77:1:1
     RDKit          3D

 81 87  0  0  1  0  0  0  0  0999 V2000
   -1.5840   -8.2479    4.3501 C   0  0  0  0  0  0  0  0  0  0  0  0
   -0.3440   -7.9642    3.5470 C   0  0  0  0  0  0  0  0  0  0  0  0
   -0.0730   -8.3921    2.3257 C   0  0  0  0  0  0  0  0  0  0  0  0
    1.2784   -7.9330    1.8409 C   0  0  2  0  0  0  0  0  0  0  0  0
    2.2347   -9.1280    1.8014 C   0  0  0  0  0  0  0  0  0  0  0  0
    3.1032   -9.2024    3.0670 C   0  0  1  0  0  0  0  0  0  0  0  0
    3.7233  -10.4689    3.1978 O   0  0  0  0  0  0  0  0  0  0  0  0
    4.0704   -7.9864    3.1659 C   0  0  1  0  0  0  0  0  0  0  0  0
    5.2231   -7.9909    2.0887 C   0  0  0  0  0  0  0  0  0  0  0  0
    6.5718   -7.3996    2.5686 C   0  0  0  0  0  0  0  0  0  0  0  0
    5.6015   -9.3117    1.3763 C   0  0  0  0  0  0  0  0  0  0  0  0
    4.6711   -7.1716    1.0956 O   0  0  0  0  0  0  0  0  0  0  0  0
    3.9711   -6.0882    1.6942 C   0  0  1  0  0  0  0  0  0  0  0  0
    3.2533   -5.4189    0.4750 C   0  0  0  0  0  0  0  0  0  0  0  0
    2.9339   -3.9692    0.6923 C   0  0  2  0  0  0  0  0  0  0  0  0
    2.9393   -2.8926   -0.3139 O   0  0  0  0  0  0  0  0  0  0  0  0
    4.0319   -3.0284    0.5976 C   0  0  1  0  0  0  0  0  0  0  0  0
    4.7238   -2.1246    1.4491 C   0  0  1  0  0  0  0  0  0  0  0  0
    5.0000   -2.7829    2.7870 C   0  0  0  0  0  0  0  0  0  0  0  0
    3.7483   -3.0380    3.6444 C   0  0  0  0  0  0  0  0  0  0  0  0
    3.1525   -4.1004    4.2789 C   0  0  0  0  0  0  0  0  0  0  0  0
    2.0317   -3.6148    5.2611 C   0  0  0  0  0  0  0  0  0  0  0  0
    2.5746   -2.4912    6.1940 C   0  0  0  0  0  0  0  0  0  0  0  0
    0.8153   -3.0630    4.4707 C   0  0  0  0  0  0  0  0  0  0  0  0
    1.5192   -4.6692    6.2474 C   0  0  0  0  0  0  0  0  0  0  0  0
    0.4536   -4.4387    6.8346 O   0  0  0  0  0  0  0  0  0  0  0  0
    2.2658   -5.8865    6.5077 C   0  0  0  0  0  0  0  0  0  0  0  0
    3.1898   -6.2986    5.6253 C   0  0  0  0  0  0  0  0  0  0  0  0
    3.6647   -5.6030    4.3433 C   0  0  2  0  0  0  0  0  0  0  0  0
    5.1747   -5.5055    4.7112 C   0  0  0  0  0  0  0  0  0  0  0  0
    3.2983   -6.5823    3.0559 C   0  0  2  0  0  0  0  0  0  0  0  0
    1.7013   -6.8326    2.8740 C   0  0  1  0  0  0  0  0  0  0  0  0
    1.0656   -5.6668    2.4133 O   0  0  0  0  0  0  0  0  0  0  0  0
    0.7693   -7.1441    4.1038 C   0  0  0  0  0  0  0  0  0  0  0  0
    5.3514   -2.6866    0.0713 C   0  0  0  0  0  0  0  0  0  0  0  0
    6.4473   -3.7308    0.0332 C   0  0  0  0  0  0  0  0  0  0  0  0
    5.6349   -1.6226   -0.9701 C   0  0  0  0  0  0  0  0  0  0  0  0
   -2.0785   -7.3188    4.6239 H   0  0  0  0  0  0  0  0  0  0  0  0
   -1.3166   -8.7705    5.2662 H   0  0  0  0  0  0  0  0  0  0  0  0
   -2.2952   -8.8727    3.8081 H   0  0  0  0  0  0  0  0  0  0  0  0
   -0.7379   -9.0108    1.7416 H   0  0  0  0  0  0  0  0  0  0  0  0
    1.1348   -7.5440    0.8362 H   0  0  0  0  0  0  0  0  0  0  0  0
    1.6751  -10.0523    1.6820 H   0  0  0  0  0  0  0  0  0  0  0  0
    2.8199   -9.0478    0.8887 H   0  0  0  0  0  0  0  0  0  0  0  0
    2.4563   -9.2087    3.9406 H   0  0  0  0  0  0  0  0  0  0  0  0
    3.9884  -10.7816    2.3431 H   0  0  0  0  0  0  0  0  0  0  0  0
    4.5558   -8.1125    4.1334 H   0  0  0  0  0  0  0  0  0  0  0  0
    6.8227   -7.7268    3.5770 H   0  0  0  0  0  0  0  0  0  0  0  0
    6.6195   -6.3192    2.5219 H   0  0  0  0  0  0  0  0  0  0  0  0
    7.3960   -7.7141    1.9302 H   0  0  0  0  0  0  0  0  0  0  0  0
    6.0780  -10.0126    2.0627 H   0  0  0  0  0  0  0  0  0  0  0  0
    6.3179   -9.1183    0.5760 H   0  0  0  0  0  0  0  0  0  0  0  0
    4.7747   -9.8209    0.8911 H   0  0  0  0  0  0  0  0  0  0  0  0
    4.7454   -5.4116    2.0060 H   0  0  0  0  0  0  0  0  0  0  0  0
    3.9306   -5.4713   -0.3843 H   0  0  0  0  0  0  0  0  0  0  0  0
    2.3433   -5.9196    0.1695 H   0  0  0  0  0  0  0  0  0  0  0  0
    2.2813   -3.7715    1.5156 H   0  0  0  0  0  0  0  0  0  0  0  0
    4.4036   -1.0860    1.4561 H   0  0  0  0  0  0  0  0  0  0  0  0
    5.5956   -3.6581    2.5999 H   0  0  0  0  0  0  0  0  0  0  0  0
    5.6502   -2.1093    3.3265 H   0  0  0  0  0  0  0  0  0  0  0  0
    3.2727   -2.0800    3.7701 H   0  0  0  0  0  0  0  0  0  0  0  0
    3.4935   -2.8258    6.6779 H   0  0  0  0  0  0  0  0  0  0  0  0
    1.8775   -2.2450    6.9980 H   0  0  0  0  0  0  0  0  0  0  0  0
    2.7983   -1.5484    5.6972 H   0  0  0  0  0  0  0  0  0  0  0  0
    0.2444   -3.8739    4.0244 H   0  0  0  0  0  0  0  0  0  0  0  0
    1.0974   -2.3888    3.6625 H   0  0  0  0  0  0  0  0  0  0  0  0
    0.1161   -2.5188    5.1085 H   0  0  0  0  0  0  0  0  0  0  0  0
    2.0091   -6.4743    7.3837 H   0  0  0  0  0  0  0  0  0  0  0  0
    3.6906   -7.2328    5.8547 H   0  0  0  0  0  0  0  0  0  0  0  0
    5.2954   -4.8531    5.5749 H   0  0  0  0  0  0  0  0  0  0  0  0
    5.8310   -5.0904    3.9668 H   0  0  0  0  0  0  0  0  0  0  0  0
    5.6048   -6.4536    5.0241 H   0  0  0  0  0  0  0  0  0  0  0  0
    1.3809   -4.9602    2.9495 H   0  0  0  0  0  0  0  0  0  0  0  0
    0.3211   -6.2711    4.5757 H   0  0  0  0  0  0  0  0  0  0  0  0
    1.2263   -7.7736    4.8613 H   0  0  0  0  0  0  0  0  0  0  0  0
    7.4036   -3.2930    0.3151 H   0  0  0  0  0  0  0  0  0  0  0  0
    6.5220   -4.1582   -0.9657 H   0  0  0  0  0  0  0  0  0  0  0  0
    6.2244   -4.5479    0.7124 H   0  0  0  0  0  0  0  0  0  0  0  0
    6.5846   -1.1555   -0.7304 H   0  0  0  0  0  0  0  0  0  0  0  0
    4.8695   -0.8469   -0.9367 H   0  0  0  0  0  0  0  0  0  0  0  0
    5.6749   -2.0418   -1.9794 H   0  0  0  0  0  0  0  0  0  0  0  0
  1  2  1  0
  1 38  1  0
  1 39  1  0
  1 40  1  0
  2 34  1  0
  2  3  2  0
  3  4  1  0
  3 41  1  0
  4 32  1  0
  4  5  1  0
  4 42  1  6
  5  6  1  0
  5 43  1  0
  5 44  1  0
  6  7  1  0
  6  8  1  0
  6 45  1  1
  7 46  1  0
  8 31  1  0
  8  9  1  0
  8 47  1  1
  9 10  1  0
  9 11  1  0
  9 12  1  0
 10 48  1  0
 10 49  1  0
 10 50  1  0
 11 51  1  0
 11 52  1  0
 11 53  1  0
 12 13  1  0
 13 31  1  0
 13 14  1  0
 13 54  1  1
 14 15  1  0
 14 55  1  0
 14 56  1  0
 15 17  1  0
 15 16  1  0
 15 57  1  1
 17 16  1  6
 17 35  1  0
 17 18  1  0
 18 19  1  0
 18 35  1  0
 18 58  1  1
 19 20  1  0
 19 59  1  0
 19 60  1  0
 20 21  2  3
 20 61  1  0
 21 29  1  0
 21 22  1  0
 22 23  1  0
 22 24  1  0
 22 25  1  0
 23 62  1  0
 23 63  1  0
 23 64  1  0
 24 65  1  0
 24 66  1  0
 24 67  1  0
 25 26  2  0
 25 27  1  0
 27 28  2  0
 27 68  1  0
 28 29  1  0
 28 69  1  0
 29 30  1  1
 31 29  1  1
 30 70  1  0
 30 71  1  0
 30 72  1  0
 31 32  1  0
 32 33  1  6
 32 34  1  0
 33 73  1  0
 34 74  1  0
 34 75  1  0
 35 36  1  0
 35 37  1  0
 36 76  1  0
 36 77  1  0
 36 78  1  0
 37 79  1  0
 37 80  1  0
 37 81  1  0
M  END
>  <i_m_ct_stereo_status>  (281) 
1

>  <s_m_source_file>  (281) 
/var/tmp/pbs.5076255.sched01/tmp7qb2j_xu/82up84z1qn.sdf

>  <i_m_source_file_index>  (281) 
41

>  <i_lp_mmshare_version>  (281) 
48012

>  <i_f3d_flags>  (281) 
0

>  <s_epik_input>  (281) 
W0NIM11DKD1bQ0hdMSlbQ0gyXVtDQF0yKFtPSF0pW0NASF0xW0NIMl1bQ0BASF0oW09IXSlbQ0BASF0oQyhPMykoW0NIM10pW0NIM10pW0NAXTIoW0NAQEhdM1tDSDJdW0NASF0oTzQpQzQ1NilbQ0BAXTcoW0NIM10pQyhcQyhbQ0gzXSkoW0NIM10pQyg9TylbQ0hdPVtDSF03KT1bQ0hdXFtDSDJdW0NASF01QzYoW0NIM10pW0NIM10=

>  <s_epik_cmdline>  (281) 
J2VwaWtfcHl0aG9uJywgJy1waHQnLCAnMi4wJywgJy1waCcsICc3LjAnLCAnLXRuJywgJzgnLCAnLW1hJywgJzIwMCcsICctaW1hZScsICc8aW5maWxlLm1hZT4nLCAnLW9tYWUnLCAnPG91dGZpbGUubWFlPic=

>  <r_lp_tautomer_probability>  (281) 
1

>  <r_epik_Ionization_Penalty>  (281) 
1.28386e-07

>  <r_epik_Ionization_Penalty_Charging>  (281) 
0

>  <r_epik_Ionization_Penalty_Neutral>  (281) 
1.28386e-07

>  <r_epik_State_Penalty>  (281) 
-0

>  <r_epik_Charging_Adjusted_Penalty>  (281) 
0

>  <i_epik_Tot_Q>  (281) 
0

>  <i_epik_Tot_abs_Q>  (281) 
0

>  <s_lp_Force_Field>  (281) 
OPLS3e

>  <r_lp_Energy>  (281) 
107.261

>  <b_lp_Chiralities_Consistent>  (281) 
1

>  <s_lp_Variant>  (281) 
77:0-2

>  <s_i_glide_gridfile>  (281) 
pfpi4k_grid

>  <i_i_glide_lignum>  (281) 
41

>  <i_i_glide_rotatable_bonds>  (281) 
2

>  <r_i_docking_score>  (281) 
-2.46896

>  <r_i_glide_ligand_efficiency>  (281) 
-0.0667287

>  <r_i_glide_ligand_efficiency_sa>  (281) 
-0.222355

>  <r_i_glide_ligand_efficiency_ln>  (281) 
-0.53546

>  <r_i_glide_gscore>  (281) 
-2.46896

>  <r_i_glide_lipo>  (281) 
-0.348453

>  <r_i_glide_hbond>  (281) 
-0.0344836

>  <r_i_glide_metal>  (281) 
-0

>  <r_i_glide_rewards>  (281) 
0

>  <r_i_glide_evdw>  (281) 
-32.8795

>  <r_i_glide_ecoul>  (281) 
-2.94703

>  <r_i_glide_erotb>  (281) 
0

>  <r_i_glide_esite>  (281) 
0

>  <r_i_glide_emodel>  (281) 
-39.3147

>  <r_i_glide_energy>  (281) 
-35.8265

>  <r_i_glide_einternal>  (281) 
0.735683

>  <r_i_glide_intrahb_reward>  (281) 
-0

>  <i_i_glide_confnum>  (281) 
2

>  <i_i_glide_posenum>  (281) 
3

>  <r_i_glide_eff_state_penalty>  (281) 
0

>  <ligand_id>  (281) 
77

>  <original_smiles>  (281) 
CC1=CC2CC(O)C3C(C)(C)OC4CC5OC56C(CC=C5C(C)(C)C(=O)C=CC5(C)C43C2(O)C1)C6(C)C

>  <smiles>  (281) 
[H]OC1([H])C([H])([H])C2([H])C([H])=C(C([H])([H])[H])C([H])([H])C2(O[H])C23C([H])(OC(C([H])([H])[H])(C([H])([H])[H])C12[H])C([H])([H])C1([H])OC12C([H])(C([H])([H])C([H])=C1C(C([H])([H])[H])(C([H])([H])[H])C(=O)C([H])=C([H])C13C([H])([H])[H])C2(C([H])([H])[H])C([H])([H])[H]

$$$$
77:1:2
     RDKit          3D

 81 87  0  0  1  0  0  0  0  0999 V2000
   -1.7408   -8.0870    4.0485 C   0  0  0  0  0  0  0  0  0  0  0  0
   -0.4380   -7.8181    3.3405 C   0  0  0  0  0  0  0  0  0  0  0  0
   -0.1018   -8.2204    2.1314 C   0  0  0  0  0  0  0  0  0  0  0  0
    1.2977   -7.8019    1.7541 C   0  0  2  0  0  0  0  0  0  0  0  0
    2.2387   -9.0212    1.7602 C   0  0  0  0  0  0  0  0  0  0  0  0
    2.9918   -9.1585    3.0870 C   0  0  1  0  0  0  0  0  0  0  0  0
    3.6010  -10.4243    3.2274 O   0  0  0  0  0  0  0  0  0  0  0  0
    3.9827   -7.9727    3.2986 C   0  0  1  0  0  0  0  0  0  0  0  0
    5.2191   -7.9836    2.3070 C   0  0  0  0  0  0  0  0  0  0  0  0
    6.5483   -7.4509    2.9048 C   0  0  0  0  0  0  0  0  0  0  0  0
    5.6196   -9.2951    1.5858 C   0  0  0  0  0  0  0  0  0  0  0  0
    4.7684   -7.1151    1.3082 O   0  0  0  0  0  0  0  0  0  0  0  0
    4.0628   -6.0316    1.8751 C   0  0  1  0  0  0  0  0  0  0  0  0
    3.4558   -5.3042    0.6304 C   0  0  0  0  0  0  0  0  0  0  0  0
    3.1975   -3.8603    0.8969 C   0  0  2  0  0  0  0  0  0  0  0  0
    3.2432   -2.7508   -0.1437 O   0  0  0  0  0  0  0  0  0  0  0  0
    4.3004   -2.9163    0.8401 C   0  0  1  0  0  0  0  0  0  0  0  0
    4.9220   -2.0924    1.8072 C   0  0  1  0  0  0  0  0  0  0  0  0
    5.1034   -2.7952    3.1348 C   0  0  0  0  0  0  0  0  0  0  0  0
    3.7836   -3.0311    3.8879 C   0  0  0  0  0  0  0  0  0  0  0  0
    3.1020   -4.0910    4.4477 C   0  0  0  0  0  0  0  0  0  0  0  0
    1.9250   -3.5939    5.3595 C   0  0  0  0  0  0  0  0  0  0  0  0
    2.4320   -2.5196    6.3637 C   0  0  0  0  0  0  0  0  0  0  0  0
    0.7964   -2.9884    4.4895 C   0  0  0  0  0  0  0  0  0  0  0  0
    1.3012   -4.6661    6.2730 C   0  0  0  0  0  0  0  0  0  0  0  0
    0.2020   -4.4222    6.7923 O   0  0  0  0  0  0  0  0  0  0  0  0
    2.0037   -5.9116    6.5438 C   0  0  0  0  0  0  0  0  0  0  0  0
    2.9772   -6.3208    5.7265 C   0  0  0  0  0  0  0  0  0  0  0  0
    3.5680   -5.6017    4.5148 C   0  0  2  0  0  0  0  0  0  0  0  0
    5.0510   -5.5721    4.9914 C   0  0  0  0  0  0  0  0  0  0  0  0
    3.2791   -6.5413    3.1721 C   0  0  2  0  0  0  0  0  0  0  0  0
    1.6991   -6.7384    2.8591 C   0  0  1  0  0  0  0  0  0  0  0  0
    1.1442   -5.5344    2.3820 O   0  0  0  0  0  0  0  0  0  0  0  0
    0.6526   -7.0595    4.0038 C   0  0  0  0  0  0  0  0  0  0  0  0
    5.6757   -2.6484    0.4359 C   0  0  0  0  0  0  0  0  0  0  0  0
    6.7347   -3.7186    0.4785 C   0  0  0  0  0  0  0  0  0  0  0  0
    6.0724   -1.5501   -0.5167 C   0  0  0  0  0  0  0  0  0  0  0  0
   -2.2250   -7.1456    4.3152 H   0  0  0  0  0  0  0  0  0  0  0  0
   -1.5635   -8.6477    4.9704 H   0  0  0  0  0  0  0  0  0  0  0  0
   -2.4289   -8.6715    3.4370 H   0  0  0  0  0  0  0  0  0  0  0  0
   -0.7535   -8.7710    1.4810 H   0  0  0  0  0  0  0  0  0  0  0  0
    1.2604   -7.3829    0.7576 H   0  0  0  0  0  0  0  0  0  0  0  0
    1.6643   -9.9277    1.5498 H   0  0  0  0  0  0  0  0  0  0  0  0
    2.9077   -8.9247    0.9051 H   0  0  0  0  0  0  0  0  0  0  0  0
    2.2714   -9.1781    3.8997 H   0  0  0  0  0  0  0  0  0  0  0  0
    3.0496  -11.0806    2.8488 H   0  0  0  0  0  0  0  0  0  0  0  0
    4.3899   -8.1432    4.2889 H   0  0  0  0  0  0  0  0  0  0  0  0
    6.7131   -7.8136    3.9198 H   0  0  0  0  0  0  0  0  0  0  0  0
    6.6311   -6.3694    2.8947 H   0  0  0  0  0  0  0  0  0  0  0  0
    7.4139   -7.7761    2.3231 H   0  0  0  0  0  0  0  0  0  0  0  0
    6.0153  -10.0333    2.2830 H   0  0  0  0  0  0  0  0  0  0  0  0
    6.3983   -9.1044    0.8464 H   0  0  0  0  0  0  0  0  0  0  0  0
    4.8133   -9.7680    1.0298 H   0  0  0  0  0  0  0  0  0  0  0  0
    4.8291   -5.3883    2.2604 H   0  0  0  0  0  0  0  0  0  0  0  0
    4.1970   -5.3527   -0.1833 H   0  0  0  0  0  0  0  0  0  0  0  0
    2.5729   -5.7803    0.2233 H   0  0  0  0  0  0  0  0  0  0  0  0
    2.4469   -3.6303    1.6534 H   0  0  0  0  0  0  0  0  0  0  0  0
    4.6761   -1.0306    1.8294 H   0  0  0  0  0  0  0  0  0  0  0  0
    5.6866   -3.6906    2.9766 H   0  0  0  0  0  0  0  0  0  0  0  0
    5.7240   -2.1567    3.7544 H   0  0  0  0  0  0  0  0  0  0  0  0
    3.3249   -2.0626    4.0053 H   0  0  0  0  0  0  0  0  0  0  0  0
    3.3031   -2.8967    6.9089 H   0  0  0  0  0  0  0  0  0  0  0  0
    1.6818   -2.2697    7.1147 H   0  0  0  0  0  0  0  0  0  0  0  0
    2.7174   -1.5739    5.9135 H   0  0  0  0  0  0  0  0  0  0  0  0
    0.2474   -3.7744    3.9670 H   0  0  0  0  0  0  0  0  0  0  0  0
    1.1592   -2.3033    3.7256 H   0  0  0  0  0  0  0  0  0  0  0  0
    0.0628   -2.4479    5.0832 H   0  0  0  0  0  0  0  0  0  0  0  0
    1.6634   -6.5031    7.3722 H   0  0  0  0  0  0  0  0  0  0  0  0
    3.4201   -7.2768    5.9762 H   0  0  0  0  0  0  0  0  0  0  0  0
    5.1254   -4.9458    5.8859 H   0  0  0  0  0  0  0  0  0  0  0  0
    5.7711   -5.1592    4.3125 H   0  0  0  0  0  0  0  0  0  0  0  0
    5.4292   -6.5412    5.3075 H   0  0  0  0  0  0  0  0  0  0  0  0
    1.8012   -5.1520    1.8361 H   0  0  0  0  0  0  0  0  0  0  0  0
    0.2087   -6.1807    4.4478 H   0  0  0  0  0  0  0  0  0  0  0  0
    1.0361   -7.7136    4.7842 H   0  0  0  0  0  0  0  0  0  0  0  0
    7.6769   -3.3206    0.8489 H   0  0  0  0  0  0  0  0  0  0  0  0
    6.8768   -4.1171   -0.5195 H   0  0  0  0  0  0  0  0  0  0  0  0
    6.4336   -4.5465    1.1192 H   0  0  0  0  0  0  0  0  0  0  0  0
    7.0254   -1.1224   -0.2158 H   0  0  0  0  0  0  0  0  0  0  0  0
    5.3268   -0.7451   -0.5233 H   0  0  0  0  0  0  0  0  0  0  0  0
    6.1530   -1.9495   -1.5267 H   0  0  0  0  0  0  0  0  0  0  0  0
  1  2  1  0
  1 38  1  0
  1 39  1  0
  1 40  1  0
  2 34  1  0
  2  3  2  0
  3  4  1  0
  3 41  1  0
  4 32  1  0
  4  5  1  0
  4 42  1  6
  5  6  1  0
  5 43  1  0
  5 44  1  0
  6  7  1  0
  6  8  1  0
  6 45  1  1
  7 46  1  0
  8 31  1  0
  8  9  1  0
  8 47  1  1
  9 10  1  0
  9 11  1  0
  9 12  1  0
 10 48  1  0
 10 49  1  0
 10 50  1  0
 11 51  1  0
 11 52  1  0
 11 53  1  0
 12 13  1  0
 13 31  1  0
 13 14  1  0
 13 54  1  1
 14 15  1  0
 14 55  1  0
 14 56  1  0
 15 17  1  0
 15 16  1  0
 15 57  1  1
 17 16  1  6
 17 35  1  0
 17 18  1  0
 18 19  1  0
 18 35  1  0
 18 58  1  1
 19 20  1  0
 19 59  1  0
 19 60  1  0
 20 21  2  3
 20 61  1  0
 21 29  1  0
 21 22  1  0
 22 23  1  0
 22 24  1  0
 22 25  1  0
 23 62  1  0
 23 63  1  0
 23 64  1  0
 24 65  1  0
 24 66  1  0
 24 67  1  0
 25 26  2  0
 25 27  1  0
 27 28  2  0
 27 68  1  0
 28 29  1  0
 28 69  1  0
 29 30  1  1
 31 29  1  1
 30 70  1  0
 30 71  1  0
 30 72  1  0
 31 32  1  0
 32 33  1  6
 32 34  1  0
 33 73  1  0
 34 74  1  0
 34 75  1  0
 35 36  1  0
 35 37  1  0
 36 76  1  0
 36 77  1  0
 36 78  1  0
 37 79  1  0
 37 80  1  0
 37 81  1  0
M  END
>  <i_m_ct_stereo_status>  (282) 
1

>  <s_m_source_file>  (282) 
/var/tmp/pbs.5076255.sched01/tmp7qb2j_xu/82up84z1qn.sdf

>  <i_m_source_file_index>  (282) 
41

>  <i_lp_mmshare_version>  (282) 
48012

>  <i_f3d_flags>  (282) 
0

>  <s_epik_input>  (282) 
W0NIM11DKD1bQ0hdMSlbQ0gyXVtDQF0yKFtPSF0pW0NASF0xW0NIMl1bQ0BASF0oW09IXSlbQ0BASF0oQyhPMykoW0NIM10pW0NIM10pW0NAXTIoW0NAQEhdM1tDSDJdW0NASF0oTzQpQzQ1NilbQ0BAXTcoW0NIM10pQyhcQyhbQ0gzXSkoW0NIM10pQyg9TylbQ0hdPVtDSF03KT1bQ0hdXFtDSDJdW0NASF01QzYoW0NIM10pW0NIM10=

>  <s_epik_cmdline>  (282) 
J2VwaWtfcHl0aG9uJywgJy1waHQnLCAnMi4wJywgJy1waCcsICc3LjAnLCAnLXRuJywgJzgnLCAnLW1hJywgJzIwMCcsICctaW1hZScsICc8aW5maWxlLm1hZT4nLCAnLW9tYWUnLCAnPG91dGZpbGUubWFlPic=

>  <r_lp_tautomer_probability>  (282) 
1

>  <r_epik_Ionization_Penalty>  (282) 
1.28386e-07

>  <r_epik_Ionization_Penalty_Charging>  (282) 
0

>  <r_epik_Ionization_Penalty_Neutral>  (282) 
1.28386e-07

>  <r_epik_State_Penalty>  (282) 
-0

>  <r_epik_Charging_Adjusted_Penalty>  (282) 
0

>  <i_epik_Tot_Q>  (282) 
0

>  <i_epik_Tot_abs_Q>  (282) 
0

>  <s_lp_Force_Field>  (282) 
OPLS3e

>  <r_lp_Energy>  (282) 
107.261

>  <b_lp_Chiralities_Consistent>  (282) 
1

>  <s_lp_Variant>  (282) 
77:0-2

>  <s_i_glide_gridfile>  (282) 
pfpi4k_grid

>  <i_i_glide_lignum>  (282) 
41

>  <i_i_glide_rotatable_bonds>  (282) 
2

>  <r_i_docking_score>  (282) 
-2.31888

>  <r_i_glide_ligand_efficiency>  (282) 
-0.0626725

>  <r_i_glide_ligand_efficiency_sa>  (282) 
-0.208839

>  <r_i_glide_ligand_efficiency_ln>  (282) 
-0.502912

>  <r_i_glide_gscore>  (282) 
-2.31888

>  <r_i_glide_lipo>  (282) 
-0.379478

>  <r_i_glide_hbond>  (282) 
-0.0385993

>  <r_i_glide_metal>  (282) 
-0

>  <r_i_glide_rewards>  (282) 
0

>  <r_i_glide_evdw>  (282) 
-32.5464

>  <r_i_glide_ecoul>  (282) 
-1.82326

>  <r_i_glide_erotb>  (282) 
0

>  <r_i_glide_esite>  (282) 
0

>  <r_i_glide_emodel>  (282) 
-36.0401

>  <r_i_glide_energy>  (282) 
-34.3696

>  <r_i_glide_einternal>  (282) 
1.15202

>  <r_i_glide_intrahb_reward>  (282) 
-0

>  <i_i_glide_confnum>  (282) 
1

>  <i_i_glide_posenum>  (282) 
15

>  <r_i_glide_eff_state_penalty>  (282) 
0

>  <ligand_id>  (282) 
77

>  <original_smiles>  (282) 
CC1=CC2CC(O)C3C(C)(C)OC4CC5OC56C(CC=C5C(C)(C)C(=O)C=CC5(C)C43C2(O)C1)C6(C)C

>  <smiles>  (282) 
[H]OC1([H])C([H])([H])C2([H])C([H])=C(C([H])([H])[H])C([H])([H])C2(O[H])C23C([H])(OC(C([H])([H])[H])(C([H])([H])[H])C12[H])C([H])([H])C1([H])OC12C([H])(C([H])([H])C([H])=C1C(C([H])([H])[H])(C([H])([H])[H])C(=O)C([H])=C([H])C13C([H])([H])[H])C2(C([H])([H])[H])C([H])([H])[H]

$$$$
77:2:0
     RDKit          3D

 81 87  0  0  1  0  0  0  0  0999 V2000
   -1.7229   -7.8577    3.9776 C   0  0  0  0  0  0  0  0  0  0  0  0
   -0.2970   -7.9252    3.4768 C   0  0  0  0  0  0  0  0  0  0  0  0
    0.1855   -8.7155    2.5360 C   0  0  0  0  0  0  0  0  0  0  0  0
    1.6787   -8.5651    2.4193 C   0  0  2  0  0  0  0  0  0  0  0  0
    2.2678   -9.6996    3.3033 C   0  0  0  0  0  0  0  0  0  0  0  0
    3.3958   -9.2167    4.2254 C   0  0  1  0  0  0  0  0  0  0  0  0
    4.1724  -10.2999    4.7027 O   0  0  0  0  0  0  0  0  0  0  0  0
    4.2697   -8.0912    3.6396 C   0  0  1  0  0  0  0  0  0  0  0  0
    5.1799   -8.4638    2.4129 C   0  0  0  0  0  0  0  0  0  0  0  0
    6.6748   -8.2081    2.7103 C   0  0  0  0  0  0  0  0  0  0  0  0
    5.0469   -9.8337    1.7555 C   0  0  0  0  0  0  0  0  0  0  0  0
    4.7322   -7.5970    1.4020 O   0  0  0  0  0  0  0  0  0  0  0  0
    4.3249   -6.3912    1.9859 C   0  0  1  0  0  0  0  0  0  0  0  0
    3.7549   -5.5857    0.7968 C   0  0  0  0  0  0  0  0  0  0  0  0
    4.7763   -4.7762    0.0367 C   0  0  2  0  0  0  0  0  0  0  0  0
    5.7109   -3.9072    0.7420 O   0  0  0  0  0  0  0  0  0  0  0  0
    4.5341   -3.3073    0.1766 C   0  0  2  0  0  0  0  0  0  0  0  0
    3.7985   -2.3403    0.9729 C   0  0  1  0  0  0  0  0  0  0  0  0
    4.0104   -2.1505    2.4625 C   0  0  0  0  0  0  0  0  0  0  0  0
    4.0866   -3.4972    3.1957 C   0  0  0  0  0  0  0  0  0  0  0  0
    3.2692   -4.1670    4.0521 C   0  0  0  0  0  0  0  0  0  0  0  0
    2.0790   -3.4395    4.7437 C   0  0  0  0  0  0  0  0  0  0  0  0
    2.5698   -2.1660    5.4774 C   0  0  0  0  0  0  0  0  0  0  0  0
    0.9981   -3.0973    3.6983 C   0  0  0  0  0  0  0  0  0  0  0  0
    1.4129   -4.2618    5.8615 C   0  0  0  0  0  0  0  0  0  0  0  0
    0.3153   -3.8654    6.2861 O   0  0  0  0  0  0  0  0  0  0  0  0
    2.0448   -5.4429    6.4335 C   0  0  0  0  0  0  0  0  0  0  0  0
    3.0514   -6.0512    5.7752 C   0  0  0  0  0  0  0  0  0  0  0  0
    3.7056   -5.6094    4.4774 C   0  0  2  0  0  0  0  0  0  0  0  0
    5.1977   -5.4606    4.9504 C   0  0  0  0  0  0  0  0  0  0  0  0
    3.4895   -6.7501    3.3127 C   0  0  2  0  0  0  0  0  0  0  0  0
    1.9380   -7.1339    3.0108 C   0  0  1  0  0  0  0  0  0  0  0  0
    1.3621   -6.2348    2.0793 O   0  0  0  0  0  0  0  0  0  0  0  0
    0.7914   -7.0828    4.0866 C   0  0  0  0  0  0  0  0  0  0  0  0
    4.7477   -1.9397   -0.2678 C   0  0  0  0  0  0  0  0  0  0  0  0
    5.8660   -0.9822    0.0649 C   0  0  0  0  0  0  0  0  0  0  0  0
    4.1251   -1.6344   -1.5975 C   0  0  0  0  0  0  0  0  0  0  0  0
   -1.7403   -8.1637    5.0152 H   0  0  0  0  0  0  0  0  0  0  0  0
   -2.3837   -8.5285    3.4322 H   0  0  0  0  0  0  0  0  0  0  0  0
   -2.1106   -6.8410    3.9128 H   0  0  0  0  0  0  0  0  0  0  0  0
   -0.3827   -9.4226    1.9505 H   0  0  0  0  0  0  0  0  0  0  0  0
    1.9859   -8.6663    1.3773 H   0  0  0  0  0  0  0  0  0  0  0  0
    1.4975  -10.1340    3.9426 H   0  0  0  0  0  0  0  0  0  0  0  0
    2.5925  -10.5191    2.6716 H   0  0  0  0  0  0  0  0  0  0  0  0
    2.9196   -8.8178    5.1145 H   0  0  0  0  0  0  0  0  0  0  0  0
    3.6025  -10.9404    5.1009 H   0  0  0  0  0  0  0  0  0  0  0  0
    4.9761   -7.9157    4.4446 H   0  0  0  0  0  0  0  0  0  0  0  0
    7.0515   -8.9348    3.4268 H   0  0  0  0  0  0  0  0  0  0  0  0
    6.8663   -7.2205    3.1226 H   0  0  0  0  0  0  0  0  0  0  0  0
    7.2714   -8.3004    1.8003 H   0  0  0  0  0  0  0  0  0  0  0  0
    5.2214  -10.6722    2.4386 H   0  0  0  0  0  0  0  0  0  0  0  0
    5.7624   -9.9458    0.9392 H   0  0  0  0  0  0  0  0  0  0  0  0
    4.0739   -9.9561    1.2933 H   0  0  0  0  0  0  0  0  0  0  0  0
    5.2581   -5.9217    2.2696 H   0  0  0  0  0  0  0  0  0  0  0  0
    3.2086   -6.2118    0.0903 H   0  0  0  0  0  0  0  0  0  0  0  0
    3.0256   -4.8595    1.1665 H   0  0  0  0  0  0  0  0  0  0  0  0
    5.0212   -5.0589   -0.9861 H   0  0  0  0  0  0  0  0  0  0  0  0
    2.7517   -2.4679    0.7498 H   0  0  0  0  0  0  0  0  0  0  0  0
    4.9277   -1.5916    2.6696 H   0  0  0  0  0  0  0  0  0  0  0  0
    3.1916   -1.5203    2.7924 H   0  0  0  0  0  0  0  0  0  0  0  0
    4.9802   -3.9917    2.9006 H   0  0  0  0  0  0  0  0  0  0  0  0
    3.3090   -2.4443    6.2332 H   0  0  0  0  0  0  0  0  0  0  0  0
    1.7599   -1.6603    6.0054 H   0  0  0  0  0  0  0  0  0  0  0  0
    3.0477   -1.4204    4.8523 H   0  0  0  0  0  0  0  0  0  0  0  0
    0.5635   -4.0220    3.3252 H   0  0  0  0  0  0  0  0  0  0  0  0
    1.3614   -2.5752    2.8180 H   0  0  0  0  0  0  0  0  0  0  0  0
    0.1831   -2.5019    4.1088 H   0  0  0  0  0  0  0  0  0  0  0  0
    1.6474   -5.8374    7.3576 H   0  0  0  0  0  0  0  0  0  0  0  0
    3.4817   -6.9420    6.2251 H   0  0  0  0  0  0  0  0  0  0  0  0
    5.2868   -4.5818    5.5874 H   0  0  0  0  0  0  0  0  0  0  0  0
    5.9410   -5.3346    4.1671 H   0  0  0  0  0  0  0  0  0  0  0  0
    5.5418   -6.2811    5.5757 H   0  0  0  0  0  0  0  0  0  0  0  0
    1.9430   -6.2203    1.3423 H   0  0  0  0  0  0  0  0  0  0  0  0
    0.3872   -6.0988    4.2918 H   0  0  0  0  0  0  0  0  0  0  0  0
    1.0592   -7.5842    5.0134 H   0  0  0  0  0  0  0  0  0  0  0  0
    5.4526    0.0264    0.1423 H   0  0  0  0  0  0  0  0  0  0  0  0
    6.6134   -0.9996   -0.7255 H   0  0  0  0  0  0  0  0  0  0  0  0
    6.3570   -1.2213    1.0115 H   0  0  0  0  0  0  0  0  0  0  0  0
    3.6887   -0.6497   -1.5930 H   0  0  0  0  0  0  0  0  0  0  0  0
    3.3128   -2.3509   -1.7569 H   0  0  0  0  0  0  0  0  0  0  0  0
    4.8417   -1.7439   -2.4172 H   0  0  0  0  0  0  0  0  0  0  0  0
  1  2  1  0
  1 38  1  0
  1 39  1  0
  1 40  1  0
  2 34  1  0
  2  3  2  0
  3  4  1  0
  3 41  1  0
  4 32  1  0
  4  5  1  0
  4 42  1  6
  5  6  1  0
  5 43  1  0
  5 44  1  0
  6  7  1  0
  6  8  1  0
  6 45  1  1
  7 46  1  0
  8 31  1  0
  8  9  1  0
  8 47  1  1
  9 10  1  0
  9 11  1  0
  9 12  1  0
 10 48  1  0
 10 49  1  0
 10 50  1  0
 11 51  1  0
 11 52  1  0
 11 53  1  0
 12 13  1  0
 13 31  1  0
 13 14  1  0
 13 54  1  1
 14 15  1  0
 14 55  1  0
 14 56  1  0
 15 17  1  0
 15 16  1  0
 15 57  1  6
 17 16  1  1
 17 35  1  0
 17 18  1  0
 18 19  1  0
 18 35  1  0
 18 58  1  6
 19 20  1  0
 19 59  1  0
 19 60  1  0
 20 21  2  3
 20 61  1  0
 21 29  1  0
 21 22  1  0
 22 23  1  0
 22 24  1  0
 22 25  1  0
 23 62  1  0
 23 63  1  0
 23 64  1  0
 24 65  1  0
 24 66  1  0
 24 67  1  0
 25 26  2  0
 25 27  1  0
 27 28  2  0
 27 68  1  0
 28 29  1  0
 28 69  1  0
 29 30  1  1
 31 29  1  1
 30 70  1  0
 30 71  1  0
 30 72  1  0
 31 32  1  0
 32 33  1  6
 32 34  1  0
 33 73  1  0
 34 74  1  0
 34 75  1  0
 35 36  1  0
 35 37  1  0
 36 76  1  0
 36 77  1  0
 36 78  1  0
 37 79  1  0
 37 80  1  0
 37 81  1  0
M  END
>  <i_m_ct_stereo_status>  (283) 
1

>  <s_m_source_file>  (283) 
/var/tmp/pbs.5076255.sched01/tmpulc5pjk6/123bob0etdf.sdf

>  <i_m_source_file_index>  (283) 
1

>  <i_lp_mmshare_version>  (283) 
48012

>  <i_f3d_flags>  (283) 
0

>  <s_epik_input>  (283) 
W0NIM11DKD1bQ0hdMSlbQ0gyXVtDQF0yKFtPSF0pW0NASF0xW0NIMl1bQ0BASF0oW09IXSlbQ0BASF0oQyhPMykoW0NIM10pW0NIM10pW0NAXTIoW0NAQEhdM1tDSDJdW0NASF0oTzQpQzQ1NilbQ0BAXTcoW0NIM10pQyhcQyhbQ0gzXSkoW0NIM10pQyg9TylbQ0hdPVtDSF03KT1bQ0hdXFtDSDJdW0NASF01QzYoW0NIM10pW0NIM10=

>  <s_epik_cmdline>  (283) 
J2VwaWtfcHl0aG9uJywgJy1waHQnLCAnMi4wJywgJy1waCcsICc3LjAnLCAnLXRuJywgJzgnLCAnLW1hJywgJzIwMCcsICctaW1hZScsICc8aW5maWxlLm1hZT4nLCAnLW9tYWUnLCAnPG91dGZpbGUubWFlPic=

>  <r_lp_tautomer_probability>  (283) 
1

>  <r_epik_Ionization_Penalty>  (283) 
1.28386e-07

>  <r_epik_Ionization_Penalty_Charging>  (283) 
0

>  <r_epik_Ionization_Penalty_Neutral>  (283) 
1.28386e-07

>  <r_epik_State_Penalty>  (283) 
-0

>  <r_epik_Charging_Adjusted_Penalty>  (283) 
0

>  <i_epik_Tot_Q>  (283) 
0

>  <i_epik_Tot_abs_Q>  (283) 
0

>  <s_lp_Force_Field>  (283) 
OPLS3e

>  <r_lp_Energy>  (283) 
95.6075

>  <b_lp_Chiralities_Consistent>  (283) 
1

>  <s_lp_Variant>  (283) 
77:0-3

>  <s_i_glide_gridfile>  (283) 
pfpi4k_grid

>  <i_i_glide_lignum>  (283) 
1

>  <i_i_glide_rotatable_bonds>  (283) 
2

>  <r_i_docking_score>  (283) 
-2.34713

>  <r_i_glide_ligand_efficiency>  (283) 
-0.063436

>  <r_i_glide_ligand_efficiency_sa>  (283) 
-0.211383

>  <r_i_glide_ligand_efficiency_ln>  (283) 
-0.509038

>  <r_i_glide_gscore>  (283) 
-2.34713

>  <r_i_glide_lipo>  (283) 
-0.193728

>  <r_i_glide_hbond>  (283) 
0

>  <r_i_glide_metal>  (283) 
-0

>  <r_i_glide_rewards>  (283) 
0

>  <r_i_glide_evdw>  (283) 
-33.431

>  <r_i_glide_ecoul>  (283) 
-3.21237

>  <r_i_glide_erotb>  (283) 
0

>  <r_i_glide_esite>  (283) 
0

>  <r_i_glide_emodel>  (283) 
-40.0862

>  <r_i_glide_energy>  (283) 
-36.6434

>  <r_i_glide_einternal>  (283) 
0.355226

>  <r_i_glide_intrahb_reward>  (283) 
-0

>  <i_i_glide_confnum>  (283) 
2

>  <i_i_glide_posenum>  (283) 
3

>  <r_i_glide_eff_state_penalty>  (283) 
0

>  <ligand_id>  (283) 
77

>  <original_smiles>  (283) 
CC1=CC2CC(O)C3C(C)(C)OC4CC5OC56C(CC=C5C(C)(C)C(=O)C=CC5(C)C43C2(O)C1)C6(C)C

>  <smiles>  (283) 
[H]OC1([H])C([H])([H])C2([H])C([H])=C(C([H])([H])[H])C([H])([H])C2(O[H])C23C([H])(OC(C([H])([H])[H])(C([H])([H])[H])C12[H])C([H])([H])C1([H])OC12C([H])(C([H])([H])C([H])=C1C(C([H])([H])[H])(C([H])([H])[H])C(=O)C([H])=C([H])C13C([H])([H])[H])C2(C([H])([H])[H])C([H])([H])[H]

$$$$
77:2:1
     RDKit          3D

 81 87  0  0  1  0  0  0  0  0999 V2000
   -1.6283   -7.9400    3.9992 C   0  0  0  0  0  0  0  0  0  0  0  0
   -0.2048   -7.9899    3.4837 C   0  0  0  0  0  0  0  0  0  0  0  0
    0.2774   -8.7683    2.5383 C   0  0  0  0  0  0  0  0  0  0  0  0
    1.7675   -8.6018    2.4069 C   0  0  2  0  0  0  0  0  0  0  0  0
    2.3742   -9.7321    3.2819 C   0  0  0  0  0  0  0  0  0  0  0  0
    3.5069   -9.2391    4.1903 C   0  0  1  0  0  0  0  0  0  0  0  0
    4.2816  -10.3204    4.6615 O   0  0  0  0  0  0  0  0  0  0  0  0
    4.3655   -8.1028    3.6070 C   0  0  1  0  0  0  0  0  0  0  0  0
    5.2706   -8.4583    2.3745 C   0  0  0  0  0  0  0  0  0  0  0  0
    6.7624   -8.1907    2.6623 C   0  0  0  0  0  0  0  0  0  0  0  0
    5.1474   -9.8348    1.7138 C   0  0  0  0  0  0  0  0  0  0  0  0
    4.8029   -7.5975    1.3708 O   0  0  0  0  0  0  0  0  0  0  0  0
    4.3869   -6.3982    1.9614 C   0  0  1  0  0  0  0  0  0  0  0  0
    3.7987   -5.5941    0.7805 C   0  0  0  0  0  0  0  0  0  0  0  0
    4.8053   -4.7709    0.0159 C   0  0  2  0  0  0  0  0  0  0  0  0
    5.7348   -3.8943    0.7180 O   0  0  0  0  0  0  0  0  0  0  0  0
    4.5467   -3.3069    0.1649 C   0  0  2  0  0  0  0  0  0  0  0  0
    3.8060   -2.3516    0.9703 C   0  0  1  0  0  0  0  0  0  0  0  0
    4.0260   -2.1637    2.4592 C   0  0  0  0  0  0  0  0  0  0  0  0
    4.1226   -3.5111    3.1861 C   0  0  0  0  0  0  0  0  0  0  0  0
    3.3167   -4.1937    4.0442 C   0  0  0  0  0  0  0  0  0  0  0  0
    2.1215   -3.4828    4.7461 C   0  0  0  0  0  0  0  0  0  0  0  0
    2.6070   -2.2070    5.4820 C   0  0  0  0  0  0  0  0  0  0  0  0
    1.0195   -3.1510    3.7132 C   0  0  0  0  0  0  0  0  0  0  0  0
    1.4779   -4.3162    5.8679 C   0  0  0  0  0  0  0  0  0  0  0  0
    0.3796   -3.9335    6.3039 O   0  0  0  0  0  0  0  0  0  0  0  0
    2.1283   -5.4914    6.4310 C   0  0  0  0  0  0  0  0  0  0  0  0
    3.1371   -6.0862    5.7626 C   0  0  0  0  0  0  0  0  0  0  0  0
    3.7762   -5.6316    4.4614 C   0  0  2  0  0  0  0  0  0  0  0  0
    5.2700   -5.4682    4.9241 C   0  0  0  0  0  0  0  0  0  0  0  0
    3.5668   -6.7708    3.2935 C   0  0  2  0  0  0  0  0  0  0  0  0
    2.0169   -7.1704    3.0033 C   0  0  1  0  0  0  0  0  0  0  0  0
    1.4286   -6.2705    2.0820 O   0  0  0  0  0  0  0  0  0  0  0  0
    0.8782   -7.1366    4.0881 C   0  0  0  0  0  0  0  0  0  0  0  0
    4.7414   -1.9346   -0.2730 C   0  0  0  0  0  0  0  0  0  0  0  0
    5.8509   -0.9628    0.0604 C   0  0  0  0  0  0  0  0  0  0  0  0
    4.1067   -1.6309   -1.5991 C   0  0  0  0  0  0  0  0  0  0  0  0
   -1.6371   -8.2455    5.0386 H   0  0  0  0  0  0  0  0  0  0  0  0
   -2.2852   -8.6166    3.4564 H   0  0  0  0  0  0  0  0  0  0  0  0
   -2.0296   -6.9281    3.9361 H   0  0  0  0  0  0  0  0  0  0  0  0
   -0.2879   -9.4842    1.9577 H   0  0  0  0  0  0  0  0  0  0  0  0
    2.0672   -8.6963    1.3627 H   0  0  0  0  0  0  0  0  0  0  0  0
    1.6194  -10.1770    3.9317 H   0  0  0  0  0  0  0  0  0  0  0  0
    2.6978  -10.5480    2.6447 H   0  0  0  0  0  0  0  0  0  0  0  0
    3.0416   -8.8515    5.0902 H   0  0  0  0  0  0  0  0  0  0  0  0
    4.6047  -10.8090    3.9223 H   0  0  0  0  0  0  0  0  0  0  0  0
    5.0729   -7.9225    4.4098 H   0  0  0  0  0  0  0  0  0  0  0  0
    7.1539   -8.9158    3.3739 H   0  0  0  0  0  0  0  0  0  0  0  0
    6.9450   -7.2034    3.0768 H   0  0  0  0  0  0  0  0  0  0  0  0
    7.3536   -8.2727    1.7473 H   0  0  0  0  0  0  0  0  0  0  0  0
    5.3445  -10.6751    2.3781 H   0  0  0  0  0  0  0  0  0  0  0  0
    5.8555   -9.9285    0.8877 H   0  0  0  0  0  0  0  0  0  0  0  0
    4.1684   -9.9593    1.2642 H   0  0  0  0  0  0  0  0  0  0  0  0
    5.3166   -5.9188    2.2410 H   0  0  0  0  0  0  0  0  0  0  0  0
    3.2530   -6.2244    0.0772 H   0  0  0  0  0  0  0  0  0  0  0  0
    3.0650   -4.8769    1.1581 H   0  0  0  0  0  0  0  0  0  0  0  0
    5.0432   -5.0468   -1.0103 H   0  0  0  0  0  0  0  0  0  0  0  0
    2.7599   -2.4888    0.7536 H   0  0  0  0  0  0  0  0  0  0  0  0
    4.9385   -1.5950    2.6608 H   0  0  0  0  0  0  0  0  0  0  0  0
    3.2024   -1.5437    2.7965 H   0  0  0  0  0  0  0  0  0  0  0  0
    5.0200   -3.9939    2.8830 H   0  0  0  0  0  0  0  0  0  0  0  0
    3.3554   -2.4802    6.2306 H   0  0  0  0  0  0  0  0  0  0  0  0
    1.7975   -1.7111    6.0198 H   0  0  0  0  0  0  0  0  0  0  0  0
    3.0737   -1.4536    4.8575 H   0  0  0  0  0  0  0  0  0  0  0  0
    0.5981   -4.0797    3.3360 H   0  0  0  0  0  0  0  0  0  0  0  0
    1.3761   -2.6209    2.8344 H   0  0  0  0  0  0  0  0  0  0  0  0
    0.2041   -2.5633    4.1325 H   0  0  0  0  0  0  0  0  0  0  0  0
    1.7428   -5.8946    7.3562 H   0  0  0  0  0  0  0  0  0  0  0  0
    3.5797   -6.9740    6.2057 H   0  0  0  0  0  0  0  0  0  0  0  0
    5.3543   -4.5912    5.5642 H   0  0  0  0  0  0  0  0  0  0  0  0
    6.0065   -5.3312    4.1362 H   0  0  0  0  0  0  0  0  0  0  0  0
    5.6279   -6.2871    5.5441 H   0  0  0  0  0  0  0  0  0  0  0  0
    2.0019   -6.2500    1.3385 H   0  0  0  0  0  0  0  0  0  0  0  0
    0.4629   -6.1579    4.3001 H   0  0  0  0  0  0  0  0  0  0  0  0
    1.1578   -7.6391    5.0110 H   0  0  0  0  0  0  0  0  0  0  0  0
    5.4239    0.0423    0.1435 H   0  0  0  0  0  0  0  0  0  0  0  0
    6.6011   -0.9687   -0.7217 H   0  0  0  0  0  0  0  0  0  0  0  0
    6.3500   -1.2023    1.0051 H   0  0  0  0  0  0  0  0  0  0  0  0
    3.6575   -0.6520   -1.5890 H   0  0  0  0  0  0  0  0  0  0  0  0
    3.3016   -2.3555   -1.7558 H   0  0  0  0  0  0  0  0  0  0  0  0
    4.8182   -1.7290   -2.4246 H   0  0  0  0  0  0  0  0  0  0  0  0
  1  2  1  0
  1 38  1  0
  1 39  1  0
  1 40  1  0
  2 34  1  0
  2  3  2  0
  3  4  1  0
  3 41  1  0
  4 32  1  0
  4  5  1  0
  4 42  1  6
  5  6  1  0
  5 43  1  0
  5 44  1  0
  6  7  1  0
  6  8  1  0
  6 45  1  1
  7 46  1  0
  8 31  1  0
  8  9  1  0
  8 47  1  1
  9 10  1  0
  9 11  1  0
  9 12  1  0
 10 48  1  0
 10 49  1  0
 10 50  1  0
 11 51  1  0
 11 52  1  0
 11 53  1  0
 12 13  1  0
 13 31  1  0
 13 14  1  0
 13 54  1  1
 14 15  1  0
 14 55  1  0
 14 56  1  0
 15 17  1  0
 15 16  1  0
 15 57  1  6
 17 16  1  1
 17 35  1  0
 17 18  1  0
 18 19  1  0
 18 35  1  0
 18 58  1  6
 19 20  1  0
 19 59  1  0
 19 60  1  0
 20 21  2  3
 20 61  1  0
 21 29  1  0
 21 22  1  0
 22 23  1  0
 22 24  1  0
 22 25  1  0
 23 62  1  0
 23 63  1  0
 23 64  1  0
 24 65  1  0
 24 66  1  0
 24 67  1  0
 25 26  2  0
 25 27  1  0
 27 28  2  0
 27 68  1  0
 28 29  1  0
 28 69  1  0
 29 30  1  1
 31 29  1  1
 30 70  1  0
 30 71  1  0
 30 72  1  0
 31 32  1  0
 32 33  1  6
 32 34  1  0
 33 73  1  0
 34 74  1  0
 34 75  1  0
 35 36  1  0
 35 37  1  0
 36 76  1  0
 36 77  1  0
 36 78  1  0
 37 79  1  0
 37 80  1  0
 37 81  1  0
M  END
>  <i_m_ct_stereo_status>  (284) 
1

>  <s_m_source_file>  (284) 
/var/tmp/pbs.5076255.sched01/tmpulc5pjk6/123bob0etdf.sdf

>  <i_m_source_file_index>  (284) 
1

>  <i_lp_mmshare_version>  (284) 
48012

>  <i_f3d_flags>  (284) 
0

>  <s_epik_input>  (284) 
W0NIM11DKD1bQ0hdMSlbQ0gyXVtDQF0yKFtPSF0pW0NASF0xW0NIMl1bQ0BASF0oW09IXSlbQ0BASF0oQyhPMykoW0NIM10pW0NIM10pW0NAXTIoW0NAQEhdM1tDSDJdW0NASF0oTzQpQzQ1NilbQ0BAXTcoW0NIM10pQyhcQyhbQ0gzXSkoW0NIM10pQyg9TylbQ0hdPVtDSF03KT1bQ0hdXFtDSDJdW0NASF01QzYoW0NIM10pW0NIM10=

>  <s_epik_cmdline>  (284) 
J2VwaWtfcHl0aG9uJywgJy1waHQnLCAnMi4wJywgJy1waCcsICc3LjAnLCAnLXRuJywgJzgnLCAnLW1hJywgJzIwMCcsICctaW1hZScsICc8aW5maWxlLm1hZT4nLCAnLW9tYWUnLCAnPG91dGZpbGUubWFlPic=

>  <r_lp_tautomer_probability>  (284) 
1

>  <r_epik_Ionization_Penalty>  (284) 
1.28386e-07

>  <r_epik_Ionization_Penalty_Charging>  (284) 
0

>  <r_epik_Ionization_Penalty_Neutral>  (284) 
1.28386e-07

>  <r_epik_State_Penalty>  (284) 
-0

>  <r_epik_Charging_Adjusted_Penalty>  (284) 
0

>  <i_epik_Tot_Q>  (284) 
0

>  <i_epik_Tot_abs_Q>  (284) 
0

>  <s_lp_Force_Field>  (284) 
OPLS3e

>  <r_lp_Energy>  (284) 
95.6075

>  <b_lp_Chiralities_Consistent>  (284) 
1

>  <s_lp_Variant>  (284) 
77:0-3

>  <s_i_glide_gridfile>  (284) 
pfpi4k_grid

>  <i_i_glide_lignum>  (284) 
1

>  <i_i_glide_rotatable_bonds>  (284) 
2

>  <r_i_docking_score>  (284) 
-2.2725

>  <r_i_glide_ligand_efficiency>  (284) 
-0.061419

>  <r_i_glide_ligand_efficiency_sa>  (284) 
-0.204662

>  <r_i_glide_ligand_efficiency_ln>  (284) 
-0.492853

>  <r_i_glide_gscore>  (284) 
-2.2725

>  <r_i_glide_lipo>  (284) 
-0.205538

>  <r_i_glide_hbond>  (284) 
0

>  <r_i_glide_metal>  (284) 
-0

>  <r_i_glide_rewards>  (284) 
0

>  <r_i_glide_evdw>  (284) 
-33.4386

>  <r_i_glide_ecoul>  (284) 
-2.63356

>  <r_i_glide_erotb>  (284) 
0

>  <r_i_glide_esite>  (284) 
0

>  <r_i_glide_emodel>  (284) 
-39.4942

>  <r_i_glide_energy>  (284) 
-36.0722

>  <r_i_glide_einternal>  (284) 
0.162785

>  <r_i_glide_intrahb_reward>  (284) 
-0

>  <i_i_glide_confnum>  (284) 
2

>  <i_i_glide_posenum>  (284) 
17

>  <r_i_glide_eff_state_penalty>  (284) 
0

>  <ligand_id>  (284) 
77

>  <original_smiles>  (284) 
CC1=CC2CC(O)C3C(C)(C)OC4CC5OC56C(CC=C5C(C)(C)C(=O)C=CC5(C)C43C2(O)C1)C6(C)C

>  <smiles>  (284) 
[H]OC1([H])C([H])([H])C2([H])C([H])=C(C([H])([H])[H])C([H])([H])C2(O[H])C23C([H])(OC(C([H])([H])[H])(C([H])([H])[H])C12[H])C([H])([H])C1([H])OC12C([H])(C([H])([H])C([H])=C1C(C([H])([H])[H])(C([H])([H])[H])C(=O)C([H])=C([H])C13C([H])([H])[H])C2(C([H])([H])[H])C([H])([H])[H]

$$$$
77:2:2
     RDKit          3D

 81 87  0  0  1  0  0  0  0  0999 V2000
   -0.9974   -8.6472    4.0817 C   0  0  0  0  0  0  0  0  0  0  0  0
    0.4018   -8.5524    3.5067 C   0  0  0  0  0  0  0  0  0  0  0  0
    0.9250   -9.2844    2.5382 C   0  0  0  0  0  0  0  0  0  0  0  0
    2.3846   -8.9475    2.3481 C   0  0  2  0  0  0  0  0  0  0  0  0
    3.1486  -10.0058    3.1875 C   0  0  0  0  0  0  0  0  0  0  0  0
    4.2496   -9.3947    4.0590 C   0  0  1  0  0  0  0  0  0  0  0  0
    5.1717  -10.3797    4.4912 O   0  0  0  0  0  0  0  0  0  0  0  0
    4.9575   -8.1749    3.4418 C   0  0  1  0  0  0  0  0  0  0  0  0
    5.8391   -8.4350    2.1689 C   0  0  0  0  0  0  0  0  0  0  0  0
    7.3048   -8.0049    2.3924 C   0  0  0  0  0  0  0  0  0  0  0  0
    5.8381   -9.8197    1.5018 C   0  0  0  0  0  0  0  0  0  0  0  0
    5.2437   -7.6256    1.1899 O   0  0  0  0  0  0  0  0  0  0  0  0
    4.7256   -6.4781    1.8058 C   0  0  1  0  0  0  0  0  0  0  0  0
    4.0080   -5.7309    0.6538 C   0  0  0  0  0  0  0  0  0  0  0  0
    4.8799   -4.8094   -0.1638 C   0  0  2  0  0  0  0  0  0  0  0  0
    5.7580   -3.8449    0.5111 O   0  0  0  0  0  0  0  0  0  0  0  0
    4.4901   -3.3833    0.0193 C   0  0  2  0  0  0  0  0  0  0  0  0
    3.6793   -2.5225    0.8464 C   0  0  1  0  0  0  0  0  0  0  0  0
    3.9335   -2.3059    2.3372 C   0  0  0  0  0  0  0  0  0  0  0  0
    4.2037   -3.6333    3.0475 C   0  0  0  0  0  0  0  0  0  0  0  0
    3.5086   -4.3975    3.9347 C   0  0  0  0  0  0  0  0  0  0  0  0
    2.2753   -3.8254    4.6917 C   0  0  0  0  0  0  0  0  0  0  0  0
    2.6557   -2.5038    5.4135 C   0  0  0  0  0  0  0  0  0  0  0  0
    1.1021   -3.6171    3.7048 C   0  0  0  0  0  0  0  0  0  0  0  0
    1.7737   -4.7205    5.8363 C   0  0  0  0  0  0  0  0  0  0  0  0
    0.6621   -4.4571    6.3235 O   0  0  0  0  0  0  0  0  0  0  0  0
    2.5758   -5.8192    6.3614 C   0  0  0  0  0  0  0  0  0  0  0  0
    3.6041   -6.2987    5.6554 C   0  0  0  0  0  0  0  0  0  0  0  0
    4.1427   -5.7777    4.3261 C   0  0  2  0  0  0  0  0  0  0  0  0
    5.6252   -5.4568    4.7308 C   0  0  0  0  0  0  0  0  0  0  0  0
    4.0100   -6.9338    3.1665 C   0  0  2  0  0  0  0  0  0  0  0  0
    2.5005   -7.4973    2.9398 C   0  0  1  0  0  0  0  0  0  0  0  0
    1.7815   -6.6622    2.0481 O   0  0  0  0  0  0  0  0  0  0  0  0
    1.4150   -7.5912    4.0668 C   0  0  0  0  0  0  0  0  0  0  0  0
    4.5109   -2.0029   -0.4285 C   0  0  0  0  0  0  0  0  0  0  0  0
    5.5231   -0.9042   -0.1384 C   0  0  0  0  0  0  0  0  0  0  0  0
    3.7863   -1.7657   -1.7267 C   0  0  0  0  0  0  0  0  0  0  0  0
   -0.9459   -8.9348    5.1285 H   0  0  0  0  0  0  0  0  0  0  0  0
   -1.6002   -9.3852    3.5595 H   0  0  0  0  0  0  0  0  0  0  0  0
   -1.5025   -7.6818    4.0274 H   0  0  0  0  0  0  0  0  0  0  0  0
    0.4207  -10.0514    1.9734 H   0  0  0  0  0  0  0  0  0  0  0  0
    2.6545   -9.0071    1.2894 H   0  0  0  0  0  0  0  0  0  0  0  0
    2.4725  -10.5339    3.8674 H   0  0  0  0  0  0  0  0  0  0  0  0
    3.5334  -10.7890    2.5404 H   0  0  0  0  0  0  0  0  0  0  0  0
    3.7751   -9.0602    4.9769 H   0  0  0  0  0  0  0  0  0  0  0  0
    5.7525   -9.9995    5.1246 H   0  0  0  0  0  0  0  0  0  0  0  0
    5.6724   -7.9101    4.2079 H   0  0  0  0  0  0  0  0  0  0  0  0
    7.8061   -8.6824    3.0841 H   0  0  0  0  0  0  0  0  0  0  0  0
    7.3971   -7.0027    2.8048 H   0  0  0  0  0  0  0  0  0  0  0  0
    7.8659   -8.0207    1.4564 H   0  0  0  0  0  0  0  0  0  0  0  0
    6.1391  -10.6270    2.1678 H   0  0  0  0  0  0  0  0  0  0  0  0
    6.5244   -9.8358    0.6534 H   0  0  0  0  0  0  0  0  0  0  0  0
    4.8655  -10.0569    1.0817 H   0  0  0  0  0  0  0  0  0  0  0  0
    5.6080   -5.8994    2.0457 H   0  0  0  0  0  0  0  0  0  0  0  0
    3.5003   -6.4232   -0.0271 H   0  0  0  0  0  0  0  0  0  0  0  0
    3.2184   -5.1031    1.0610 H   0  0  0  0  0  0  0  0  0  0  0  0
    5.0934   -5.0589   -1.1906 H   0  0  0  0  0  0  0  0  0  0  0  0
    2.6373   -2.7624    0.6761 H   0  0  0  0  0  0  0  0  0  0  0  0
    4.7865   -1.6392    2.4977 H   0  0  0  0  0  0  0  0  0  0  0  0
    3.0586   -1.7731    2.7097 H   0  0  0  0  0  0  0  0  0  0  0  0
    5.1364   -4.0161    2.7018 H   0  0  0  0  0  0  0  0  0  0  0  0
    3.4583   -2.6928    6.1283 H   0  0  0  0  0  0  0  0  0  0  0  0
    1.8195   -2.0952    5.9853 H   0  0  0  0  0  0  0  0  0  0  0  0
    3.0105   -1.7030    4.7723 H   0  0  0  0  0  0  0  0  0  0  0  0
    0.7424   -4.5781    3.3452 H   0  0  0  0  0  0  0  0  0  0  0  0
    1.3651   -3.0502    2.8174 H   0  0  0  0  0  0  0  0  0  0  0  0
    0.2519   -3.1113    4.1623 H   0  0  0  0  0  0  0  0  0  0  0  0
    2.2703   -6.2608    7.2990 H   0  0  0  0  0  0  0  0  0  0  0  0
    4.1556   -7.1330    6.0764 H   0  0  0  0  0  0  0  0  0  0  0  0
    5.6437   -4.5748    5.3714 H   0  0  0  0  0  0  0  0  0  0  0  0
    6.3094   -5.2426    3.9134 H   0  0  0  0  0  0  0  0  0  0  0  0
    6.0984   -6.2321    5.3334 H   0  0  0  0  0  0  0  0  0  0  0  0
    2.2823   -6.6144    1.2585 H   0  0  0  0  0  0  0  0  0  0  0  0
    0.9051   -6.6627    4.2987 H   0  0  0  0  0  0  0  0  0  0  0  0
    1.7798   -8.0577    4.9783 H   0  0  0  0  0  0  0  0  0  0  0  0
    4.9818    0.0383   -0.0089 H   0  0  0  0  0  0  0  0  0  0  0  0
    6.2131   -0.7976   -0.9702 H   0  0  0  0  0  0  0  0  0  0  0  0
    6.0858   -1.0971    0.7742 H   0  0  0  0  0  0  0  0  0  0  0  0
    3.2349   -0.8307   -1.6955 H   0  0  0  0  0  0  0  0  0  0  0  0
    3.0613   -2.5696   -1.8520 H   0  0  0  0  0  0  0  0  0  0  0  0
    4.4710   -1.7867   -2.5759 H   0  0  0  0  0  0  0  0  0  0  0  0
  1  2  1  0
  1 38  1  0
  1 39  1  0
  1 40  1  0
  2 34  1  0
  2  3  2  0
  3  4  1  0
  3 41  1  0
  4 32  1  0
  4  5  1  0
  4 42  1  6
  5  6  1  0
  5 43  1  0
  5 44  1  0
  6  7  1  0
  6  8  1  0
  6 45  1  1
  7 46  1  0
  8 31  1  0
  8  9  1  0
  8 47  1  1
  9 10  1  0
  9 11  1  0
  9 12  1  0
 10 48  1  0
 10 49  1  0
 10 50  1  0
 11 51  1  0
 11 52  1  0
 11 53  1  0
 12 13  1  0
 13 31  1  0
 13 14  1  0
 13 54  1  1
 14 15  1  0
 14 55  1  0
 14 56  1  0
 15 17  1  0
 15 16  1  0
 15 57  1  6
 17 16  1  1
 17 35  1  0
 17 18  1  0
 18 19  1  0
 18 35  1  0
 18 58  1  6
 19 20  1  0
 19 59  1  0
 19 60  1  0
 20 21  2  3
 20 61  1  0
 21 29  1  0
 21 22  1  0
 22 23  1  0
 22 24  1  0
 22 25  1  0
 23 62  1  0
 23 63  1  0
 23 64  1  0
 24 65  1  0
 24 66  1  0
 24 67  1  0
 25 26  2  0
 25 27  1  0
 27 28  2  0
 27 68  1  0
 28 29  1  0
 28 69  1  0
 29 30  1  1
 31 29  1  1
 30 70  1  0
 30 71  1  0
 30 72  1  0
 31 32  1  0
 32 33  1  6
 32 34  1  0
 33 73  1  0
 34 74  1  0
 34 75  1  0
 35 36  1  0
 35 37  1  0
 36 76  1  0
 36 77  1  0
 36 78  1  0
 37 79  1  0
 37 80  1  0
 37 81  1  0
M  END
>  <i_m_ct_stereo_status>  (285) 
1

>  <s_m_source_file>  (285) 
/var/tmp/pbs.5076255.sched01/tmpulc5pjk6/123bob0etdf.sdf

>  <i_m_source_file_index>  (285) 
1

>  <i_lp_mmshare_version>  (285) 
48012

>  <i_f3d_flags>  (285) 
0

>  <s_epik_input>  (285) 
W0NIM11DKD1bQ0hdMSlbQ0gyXVtDQF0yKFtPSF0pW0NASF0xW0NIMl1bQ0BASF0oW09IXSlbQ0BASF0oQyhPMykoW0NIM10pW0NIM10pW0NAXTIoW0NAQEhdM1tDSDJdW0NASF0oTzQpQzQ1NilbQ0BAXTcoW0NIM10pQyhcQyhbQ0gzXSkoW0NIM10pQyg9TylbQ0hdPVtDSF03KT1bQ0hdXFtDSDJdW0NASF01QzYoW0NIM10pW0NIM10=

>  <s_epik_cmdline>  (285) 
J2VwaWtfcHl0aG9uJywgJy1waHQnLCAnMi4wJywgJy1waCcsICc3LjAnLCAnLXRuJywgJzgnLCAnLW1hJywgJzIwMCcsICctaW1hZScsICc8aW5maWxlLm1hZT4nLCAnLW9tYWUnLCAnPG91dGZpbGUubWFlPic=

>  <r_lp_tautomer_probability>  (285) 
1

>  <r_epik_Ionization_Penalty>  (285) 
1.28386e-07

>  <r_epik_Ionization_Penalty_Charging>  (285) 
0

>  <r_epik_Ionization_Penalty_Neutral>  (285) 
1.28386e-07

>  <r_epik_State_Penalty>  (285) 
-0

>  <r_epik_Charging_Adjusted_Penalty>  (285) 
0

>  <i_epik_Tot_Q>  (285) 
0

>  <i_epik_Tot_abs_Q>  (285) 
0

>  <s_lp_Force_Field>  (285) 
OPLS3e

>  <r_lp_Energy>  (285) 
95.6075

>  <b_lp_Chiralities_Consistent>  (285) 
1

>  <s_lp_Variant>  (285) 
77:0-3

>  <s_i_glide_gridfile>  (285) 
pfpi4k_grid

>  <i_i_glide_lignum>  (285) 
1

>  <i_i_glide_rotatable_bonds>  (285) 
2

>  <r_i_docking_score>  (285) 
-2.26684

>  <r_i_glide_ligand_efficiency>  (285) 
-0.0612658

>  <r_i_glide_ligand_efficiency_sa>  (285) 
-0.204151

>  <r_i_glide_ligand_efficiency_ln>  (285) 
-0.491624

>  <r_i_glide_gscore>  (285) 
-2.26684

>  <r_i_glide_lipo>  (285) 
-0.25914

>  <r_i_glide_hbond>  (285) 
0

>  <r_i_glide_metal>  (285) 
-0

>  <r_i_glide_rewards>  (285) 
0

>  <r_i_glide_evdw>  (285) 
-33.2082

>  <r_i_glide_ecoul>  (285) 
-2.31525

>  <r_i_glide_erotb>  (285) 
0

>  <r_i_glide_esite>  (285) 
0

>  <r_i_glide_emodel>  (285) 
-39.1818

>  <r_i_glide_energy>  (285) 
-35.5234

>  <r_i_glide_einternal>  (285) 
0.337635

>  <r_i_glide_intrahb_reward>  (285) 
-0

>  <i_i_glide_confnum>  (285) 
2

>  <i_i_glide_posenum>  (285) 
37

>  <r_i_glide_eff_state_penalty>  (285) 
0

>  <ligand_id>  (285) 
77

>  <original_smiles>  (285) 
CC1=CC2CC(O)C3C(C)(C)OC4CC5OC56C(CC=C5C(C)(C)C(=O)C=CC5(C)C43C2(O)C1)C6(C)C

>  <smiles>  (285) 
[H]OC1([H])C([H])([H])C2([H])C([H])=C(C([H])([H])[H])C([H])([H])C2(O[H])C23C([H])(OC(C([H])([H])[H])(C([H])([H])[H])C12[H])C([H])([H])C1([H])OC12C([H])(C([H])([H])C([H])=C1C(C([H])([H])[H])(C([H])([H])[H])C(=O)C([H])=C([H])C13C([H])([H])[H])C2(C([H])([H])[H])C([H])([H])[H]

$$$$
79:0:0
     RDKit          3D

 15 16  0  0  1  0  0  0  0  0999 V2000
    3.7213   -6.5871    0.8895 C   0  0  0  0  0  0  0  0  0  0  0  0
    3.5599   -7.8285    1.5211 C   0  0  0  0  0  0  0  0  0  0  0  0
    2.3525   -8.2528    1.9394 N   0  0  0  0  0  0  0  0  0  0  0  0
    1.3006   -7.4541    1.7451 C   0  0  0  0  0  0  0  0  0  0  0  0
    0.0498   -7.9093    2.2141 N   0  0  0  0  0  0  0  0  0  0  0  0
   -0.3793   -9.1482    2.4808 C   0  0  0  0  0  0  0  0  0  0  0  0
   -1.6433   -9.1488    2.8656 N   0  0  0  0  0  0  0  0  0  0  0  0
   -1.9735   -7.8123    2.8841 N   0  0  0  0  0  0  0  0  0  0  0  0
   -0.9807   -7.0679    2.4839 N   0  0  0  0  0  0  0  0  0  0  0  0
    1.3509   -6.2544    1.1501 N   0  0  0  0  0  0  0  0  0  0  0  0
    2.5582   -5.8196    0.7266 C   0  0  0  0  0  0  0  0  0  0  0  0
    4.6821   -6.2458    0.5356 H   0  0  0  0  0  0  0  0  0  0  0  0
    4.3946   -8.4931    1.6833 H   0  0  0  0  0  0  0  0  0  0  0  0
    0.2082  -10.0481    2.3579 H   0  0  0  0  0  0  0  0  0  0  0  0
    2.5855   -4.8551    0.2462 H   0  0  0  0  0  0  0  0  0  0  0  0
  1 11  2  0
  1  2  1  0
  1 12  1  0
  2  3  2  0
  2 13  1  0
  3  4  1  0
  4  5  1  0
  4 10  2  0
  5  9  1  0
  5  6  1  0
  6  7  2  0
  6 14  1  0
  7  8  1  0
  8  9  2  0
 10 11  1  0
 11 15  1  0
M  END
>  <i_m_ct_stereo_status>  (286) 
1

>  <s_m_source_file>  (286) 
/var/tmp/pbs.5076255.sched01/tmpulc5pjk6/123bob0etdf.sdf

>  <i_m_source_file_index>  (286) 
5

>  <i_lp_mmshare_version>  (286) 
48012

>  <i_f3d_flags>  (286) 
0

>  <s_epik_input>  (286) 
bjFbY0hdW2NIXVtjSF1uYzEtbjJbY0hdbm5uMg==

>  <s_epik_cmdline>  (286) 
J2VwaWtfcHl0aG9uJywgJy1waHQnLCAnMi4wJywgJy1waCcsICc3LjAnLCAnLXRuJywgJzgnLCAnLW1hJywgJzIwMCcsICctaW1hZScsICc8aW5maWxlLm1hZT4nLCAnLW9tYWUnLCAnPG91dGZpbGUubWFlPic=

>  <r_lp_tautomer_probability>  (286) 
1

>  <r_epik_Ionization_Penalty>  (286) 
3.98814e-10

>  <r_epik_Ionization_Penalty_Charging>  (286) 
0

>  <r_epik_Ionization_Penalty_Neutral>  (286) 
3.98814e-10

>  <r_epik_State_Penalty>  (286) 
-0

>  <r_epik_Charging_Adjusted_Penalty>  (286) 
0

>  <i_epik_Tot_Q>  (286) 
0

>  <i_epik_Tot_abs_Q>  (286) 
0

>  <s_lp_Force_Field>  (286) 
OPLS3e

>  <r_lp_Energy>  (286) 
18.2772

>  <b_lp_Chiralities_Consistent>  (286) 
1

>  <s_lp_Variant>  (286) 
79:0-1

>  <s_i_glide_gridfile>  (286) 
pfpi4k_grid

>  <i_i_glide_lignum>  (286) 
5

>  <i_i_glide_rotatable_bonds>  (286) 
1

>  <r_i_docking_score>  (286) 
-3.66062

>  <r_i_glide_ligand_efficiency>  (286) 
-0.332784

>  <r_i_glide_ligand_efficiency_sa>  (286) 
-0.740105

>  <r_i_glide_ligand_efficiency_ln>  (286) 
-1.07732

>  <r_i_glide_gscore>  (286) 
-3.66062

>  <r_i_glide_lipo>  (286) 
-0.0820478

>  <r_i_glide_hbond>  (286) 
-0.0974466

>  <r_i_glide_metal>  (286) 
-0

>  <r_i_glide_rewards>  (286) 
-2.25475

>  <r_i_glide_evdw>  (286) 
-17.3569

>  <r_i_glide_ecoul>  (286) 
-5.14772

>  <r_i_glide_erotb>  (286) 
0.6666

>  <r_i_glide_esite>  (286) 
-0.252975

>  <r_i_glide_emodel>  (286) 
-27.7971

>  <r_i_glide_energy>  (286) 
-22.5046

>  <r_i_glide_einternal>  (286) 
0.367446

>  <r_i_glide_intrahb_reward>  (286) 
-0

>  <i_i_glide_confnum>  (286) 
4

>  <i_i_glide_posenum>  (286) 
24

>  <r_i_glide_eff_state_penalty>  (286) 
0

>  <ligand_id>  (286) 
79

>  <original_smiles>  (286) 
c1cnc(-n2cnnn2)nc1

>  <smiles>  (286) 
[H]c1nc(-n2nnnc2[H])nc([H])c1[H]

$$$$
79:0:1
     RDKit          3D

 15 16  0  0  1  0  0  0  0  0999 V2000
   -0.2702   -9.0615    2.8805 C   0  0  0  0  0  0  0  0  0  0  0  0
   -0.2671   -7.8072    2.2552 C   0  0  0  0  0  0  0  0  0  0  0  0
   -0.1886   -6.6570    2.9610 N   0  0  0  0  0  0  0  0  0  0  0  0
   -0.0973   -6.7599    4.2962 C   0  0  0  0  0  0  0  0  0  0  0  0
    0.0155   -5.5658    5.0426 N   0  0  0  0  0  0  0  0  0  0  0  0
    0.6150   -4.4113    4.7345 C   0  0  0  0  0  0  0  0  0  0  0  0
    0.4561   -3.5043    5.6881 N   0  0  0  0  0  0  0  0  0  0  0  0
   -0.2911   -4.1756    6.6387 N   0  0  0  0  0  0  0  0  0  0  0  0
   -0.5576   -5.3970    6.2637 N   0  0  0  0  0  0  0  0  0  0  0  0
   -0.1055   -7.9070    4.9761 N   0  0  0  0  0  0  0  0  0  0  0  0
   -0.1867   -9.0565    4.2812 C   0  0  0  0  0  0  0  0  0  0  0  0
   -0.3314   -9.9814    2.3175 H   0  0  0  0  0  0  0  0  0  0  0  0
   -0.3321   -7.7243    1.1806 H   0  0  0  0  0  0  0  0  0  0  0  0
    1.1518   -4.2275    3.8147 H   0  0  0  0  0  0  0  0  0  0  0  0
   -0.1742   -9.9757    4.8463 H   0  0  0  0  0  0  0  0  0  0  0  0
  1 11  2  0
  1  2  1  0
  1 12  1  0
  2  3  2  0
  2 13  1  0
  3  4  1  0
  4  5  1  0
  4 10  2  0
  5  9  1  0
  5  6  1  0
  6  7  2  0
  6 14  1  0
  7  8  1  0
  8  9  2  0
 10 11  1  0
 11 15  1  0
M  END
>  <i_m_ct_stereo_status>  (287) 
1

>  <s_m_source_file>  (287) 
/var/tmp/pbs.5076255.sched01/tmpulc5pjk6/123bob0etdf.sdf

>  <i_m_source_file_index>  (287) 
5

>  <i_lp_mmshare_version>  (287) 
48012

>  <i_f3d_flags>  (287) 
0

>  <s_epik_input>  (287) 
bjFbY0hdW2NIXVtjSF1uYzEtbjJbY0hdbm5uMg==

>  <s_epik_cmdline>  (287) 
J2VwaWtfcHl0aG9uJywgJy1waHQnLCAnMi4wJywgJy1waCcsICc3LjAnLCAnLXRuJywgJzgnLCAnLW1hJywgJzIwMCcsICctaW1hZScsICc8aW5maWxlLm1hZT4nLCAnLW9tYWUnLCAnPG91dGZpbGUubWFlPic=

>  <r_lp_tautomer_probability>  (287) 
1

>  <r_epik_Ionization_Penalty>  (287) 
3.98814e-10

>  <r_epik_Ionization_Penalty_Charging>  (287) 
0

>  <r_epik_Ionization_Penalty_Neutral>  (287) 
3.98814e-10

>  <r_epik_State_Penalty>  (287) 
-0

>  <r_epik_Charging_Adjusted_Penalty>  (287) 
0

>  <i_epik_Tot_Q>  (287) 
0

>  <i_epik_Tot_abs_Q>  (287) 
0

>  <s_lp_Force_Field>  (287) 
OPLS3e

>  <r_lp_Energy>  (287) 
18.2772

>  <b_lp_Chiralities_Consistent>  (287) 
1

>  <s_lp_Variant>  (287) 
79:0-1

>  <s_i_glide_gridfile>  (287) 
pfpi4k_grid

>  <i_i_glide_lignum>  (287) 
5

>  <i_i_glide_rotatable_bonds>  (287) 
1

>  <r_i_docking_score>  (287) 
-3.24357

>  <r_i_glide_ligand_efficiency>  (287) 
-0.29487

>  <r_i_glide_ligand_efficiency_sa>  (287) 
-0.655784

>  <r_i_glide_ligand_efficiency_ln>  (287) 
-0.954581

>  <r_i_glide_gscore>  (287) 
-3.24357

>  <r_i_glide_lipo>  (287) 
0

>  <r_i_glide_hbond>  (287) 
-0.16

>  <r_i_glide_metal>  (287) 
-0

>  <r_i_glide_rewards>  (287) 
-2.25

>  <r_i_glide_evdw>  (287) 
-13.2932

>  <r_i_glide_ecoul>  (287) 
-5.12045

>  <r_i_glide_erotb>  (287) 
0.6666

>  <r_i_glide_esite>  (287) 
-0.0674396

>  <r_i_glide_emodel>  (287) 
-22.8413

>  <r_i_glide_energy>  (287) 
-18.4136

>  <r_i_glide_einternal>  (287) 
0.777004

>  <r_i_glide_intrahb_reward>  (287) 
-0

>  <i_i_glide_confnum>  (287) 
4

>  <i_i_glide_posenum>  (287) 
4

>  <r_i_glide_eff_state_penalty>  (287) 
0

>  <ligand_id>  (287) 
79

>  <original_smiles>  (287) 
c1cnc(-n2cnnn2)nc1

>  <smiles>  (287) 
[H]c1nc(-n2nnnc2[H])nc([H])c1[H]

$$$$
79:0:2
     RDKit          3D

 15 16  0  0  1  0  0  0  0  0999 V2000
   -1.3173   -8.9368    3.2368 C   0  0  0  0  0  0  0  0  0  0  0  0
   -1.4458   -7.6889    2.6218 C   0  0  0  0  0  0  0  0  0  0  0  0
   -0.3962   -7.0344    2.0839 N   0  0  0  0  0  0  0  0  0  0  0  0
    0.7991   -7.6450    2.1477 C   0  0  0  0  0  0  0  0  0  0  0  0
    1.9252   -6.9933    1.5913 N   0  0  0  0  0  0  0  0  0  0  0  0
    3.2220   -7.3117    1.6603 C   0  0  0  0  0  0  0  0  0  0  0  0
    3.9806   -6.4507    1.0002 N   0  0  0  0  0  0  0  0  0  0  0  0
    3.0642   -5.5445    0.4999 N   0  0  0  0  0  0  0  0  0  0  0  0
    1.8444   -5.8584    0.8437 N   0  0  0  0  0  0  0  0  0  0  0  0
    1.0178   -8.8300    2.7252 N   0  0  0  0  0  0  0  0  0  0  0  0
   -0.0293   -9.4858    3.2615 C   0  0  0  0  0  0  0  0  0  0  0  0
   -2.1563   -9.4539    3.6769 H   0  0  0  0  0  0  0  0  0  0  0  0
   -2.4063   -7.2057    2.5696 H   0  0  0  0  0  0  0  0  0  0  0  0
    3.6151   -8.1687    2.1845 H   0  0  0  0  0  0  0  0  0  0  0  0
    0.1630  -10.4453    3.7177 H   0  0  0  0  0  0  0  0  0  0  0  0
  1 11  2  0
  1  2  1  0
  1 12  1  0
  2  3  2  0
  2 13  1  0
  3  4  1  0
  4  5  1  0
  4 10  2  0
  5  9  1  0
  5  6  1  0
  6  7  2  0
  6 14  1  0
  7  8  1  0
  8  9  2  0
 10 11  1  0
 11 15  1  0
M  END
>  <i_m_ct_stereo_status>  (288) 
1

>  <s_m_source_file>  (288) 
/var/tmp/pbs.5076255.sched01/tmpulc5pjk6/123bob0etdf.sdf

>  <i_m_source_file_index>  (288) 
5

>  <i_lp_mmshare_version>  (288) 
48012

>  <i_f3d_flags>  (288) 
0

>  <s_epik_input>  (288) 
bjFbY0hdW2NIXVtjSF1uYzEtbjJbY0hdbm5uMg==

>  <s_epik_cmdline>  (288) 
J2VwaWtfcHl0aG9uJywgJy1waHQnLCAnMi4wJywgJy1waCcsICc3LjAnLCAnLXRuJywgJzgnLCAnLW1hJywgJzIwMCcsICctaW1hZScsICc8aW5maWxlLm1hZT4nLCAnLW9tYWUnLCAnPG91dGZpbGUubWFlPic=

>  <r_lp_tautomer_probability>  (288) 
1

>  <r_epik_Ionization_Penalty>  (288) 
3.98814e-10

>  <r_epik_Ionization_Penalty_Charging>  (288) 
0

>  <r_epik_Ionization_Penalty_Neutral>  (288) 
3.98814e-10

>  <r_epik_State_Penalty>  (288) 
-0

>  <r_epik_Charging_Adjusted_Penalty>  (288) 
0

>  <i_epik_Tot_Q>  (288) 
0

>  <i_epik_Tot_abs_Q>  (288) 
0

>  <s_lp_Force_Field>  (288) 
OPLS3e

>  <r_lp_Energy>  (288) 
18.2772

>  <b_lp_Chiralities_Consistent>  (288) 
1

>  <s_lp_Variant>  (288) 
79:0-1

>  <s_i_glide_gridfile>  (288) 
pfpi4k_grid

>  <i_i_glide_lignum>  (288) 
5

>  <i_i_glide_rotatable_bonds>  (288) 
1

>  <r_i_docking_score>  (288) 
-3.1311

>  <r_i_glide_ligand_efficiency>  (288) 
-0.284645

>  <r_i_glide_ligand_efficiency_sa>  (288) 
-0.633046

>  <r_i_glide_ligand_efficiency_ln>  (288) 
-0.921482

>  <r_i_glide_gscore>  (288) 
-3.1311

>  <r_i_glide_lipo>  (288) 
0

>  <r_i_glide_hbond>  (288) 
-0.109846

>  <r_i_glide_metal>  (288) 
-0

>  <r_i_glide_rewards>  (288) 
-2.32262

>  <r_i_glide_evdw>  (288) 
-16.9688

>  <r_i_glide_ecoul>  (288) 
-2.37662

>  <r_i_glide_erotb>  (288) 
0.6666

>  <r_i_glide_esite>  (288) 
-0.1603

>  <r_i_glide_emodel>  (288) 
-24.0352

>  <r_i_glide_energy>  (288) 
-19.3454

>  <r_i_glide_einternal>  (288) 
0.0329462

>  <r_i_glide_intrahb_reward>  (288) 
-0

>  <i_i_glide_confnum>  (288) 
1

>  <i_i_glide_posenum>  (288) 
17

>  <r_i_glide_eff_state_penalty>  (288) 
0

>  <ligand_id>  (288) 
79

>  <original_smiles>  (288) 
c1cnc(-n2cnnn2)nc1

>  <smiles>  (288) 
[H]c1nc(-n2nnnc2[H])nc([H])c1[H]

$$$$
81:0:0
     RDKit          3D

 59 64  0  0  1  0  0  0  0  0999 V2000
    4.2632   -0.7239   -0.8741 C   0  0  0  0  0  0  0  0  0  0  0  0
    4.5032   -2.1620   -0.4324 C   0  0  1  0  0  0  0  0  0  0  0  0
    5.9217   -2.2872    0.1929 C   0  0  0  0  0  0  0  0  0  0  0  0
    6.1407   -3.7242    0.6604 C   0  0  0  0  0  0  0  0  0  0  0  0
    5.1677   -4.6503    0.4816 C   0  0  0  0  0  0  0  0  0  0  0  0
    5.3135   -6.0552    0.8617 C   0  0  0  0  0  0  0  0  0  0  0  0
    4.3237   -6.9365    0.7061 N   0  0  0  0  0  0  0  0  0  0  0  0
    4.6628   -8.2262    1.1611 C   0  0  0  0  0  0  0  0  0  0  0  0
    3.6354   -9.3036    1.0829 C   0  0  0  0  0  0  0  0  0  0  0  0
    3.7666  -10.2451    2.1932 N   0  0  0  0  0  0  0  0  0  0  0  0
    2.7810  -10.1651    3.2799 C   0  0  1  0  0  0  0  0  0  0  0  0
    3.1517  -11.0519    4.4865 C   0  0  0  0  0  0  0  0  0  0  0  0
    2.3801  -10.3388    5.6015 C   0  0  2  0  0  0  0  0  0  0  0  0
    0.8462  -10.4140    5.3280 C   0  0  0  0  0  0  0  0  0  0  0  0
    0.5282   -9.8647    3.9070 C   0  0  1  0  0  0  0  0  0  0  0  0
    1.1031   -8.4530    3.7577 C   0  0  0  0  0  0  0  0  0  0  0  0
    2.6071   -8.7309    3.8941 C   0  0  1  0  0  0  0  0  0  0  0  0
    2.8773   -8.9104    5.3926 C   0  0  0  0  0  0  0  0  0  0  0  0
    1.3618  -10.6074    2.8664 C   0  0  0  0  0  0  0  0  0  0  0  0
    5.9630   -8.2982    1.6319 C   0  0  0  0  0  0  0  0  0  0  0  0
    6.7791   -6.7550    1.5554 S   0  0  0  0  0  0  0  0  0  0  0  0
    3.8849   -4.1219   -0.1963 C   0  0  1  0  0  0  0  0  0  0  0  0
    3.4331   -2.8203    0.4774 C   0  0  0  0  0  0  0  0  0  0  0  0
    4.1509   -3.2822   -1.4797 C   0  0  0  0  0  0  0  0  0  0  0  0
    2.9431   -3.0158   -2.4293 C   0  0  0  0  0  0  0  0  0  0  0  0
    5.2660   -3.7535   -2.4497 C   0  0  0  0  0  0  0  0  0  0  0  0
    4.9510   -0.4057   -1.6602 H   0  0  0  0  0  0  0  0  0  0  0  0
    4.3026   -0.0119   -0.0477 H   0  0  0  0  0  0  0  0  0  0  0  0
    3.2604   -0.6575   -1.2973 H   0  0  0  0  0  0  0  0  0  0  0  0
    6.6864   -2.0424   -0.5410 H   0  0  0  0  0  0  0  0  0  0  0  0
    6.0575   -1.6082    1.0355 H   0  0  0  0  0  0  0  0  0  0  0  0
    7.1102   -3.9619    1.0807 H   0  0  0  0  0  0  0  0  0  0  0  0
    2.6353   -8.8576    1.0417 H   0  0  0  0  0  0  0  0  0  0  0  0
    3.7389   -9.8373    0.1360 H   0  0  0  0  0  0  0  0  0  0  0  0
    3.7677  -11.1866    1.7614 H   0  0  0  0  0  0  0  0  0  0  0  0
    2.8577  -12.0978    4.3837 H   0  0  0  0  0  0  0  0  0  0  0  0
    4.2207  -11.0338    4.7053 H   0  0  0  0  0  0  0  0  0  0  0  0
    2.6259  -10.7095    6.5968 H   0  0  0  0  0  0  0  0  0  0  0  0
    0.4948  -11.4428    5.4205 H   0  0  0  0  0  0  0  0  0  0  0  0
    0.3031   -9.8409    6.0797 H   0  0  0  0  0  0  0  0  0  0  0  0
   -0.5400   -9.9060    3.6889 H   0  0  0  0  0  0  0  0  0  0  0  0
    0.8705   -8.0534    2.7702 H   0  0  0  0  0  0  0  0  0  0  0  0
    0.7174   -7.7554    4.5029 H   0  0  0  0  0  0  0  0  0  0  0  0
    3.2217   -7.9359    3.4717 H   0  0  0  0  0  0  0  0  0  0  0  0
    2.3642   -8.1834    6.0244 H   0  0  0  0  0  0  0  0  0  0  0  0
    3.9451   -8.8467    5.6109 H   0  0  0  0  0  0  0  0  0  0  0  0
    1.0819  -10.2566    1.8729 H   0  0  0  0  0  0  0  0  0  0  0  0
    1.2112  -11.6883    2.8929 H   0  0  0  0  0  0  0  0  0  0  0  0
    6.5041   -9.1489    2.0206 H   0  0  0  0  0  0  0  0  0  0  0  0
    3.1025   -4.8670   -0.3229 H   0  0  0  0  0  0  0  0  0  0  0  0
    3.6358   -2.7647    1.5522 H   0  0  0  0  0  0  0  0  0  0  0  0
    2.3950   -2.5379    0.2927 H   0  0  0  0  0  0  0  0  0  0  0  0
    2.6165   -3.8855   -2.9932 H   0  0  0  0  0  0  0  0  0  0  0  0
    3.1818   -2.2487   -3.1656 H   0  0  0  0  0  0  0  0  0  0  0  0
    2.0474   -2.6772   -1.9174 H   0  0  0  0  0  0  0  0  0  0  0  0
    4.9935   -4.6728   -2.9707 H   0  0  0  0  0  0  0  0  0  0  0  0
    6.2057   -3.9731   -1.9492 H   0  0  0  0  0  0  0  0  0  0  0  0
    5.5273   -2.9959   -3.1894 H   0  0  0  0  0  0  0  0  0  0  0  0
    4.6853  -10.1055    2.5898 H   0  0  0  0  0  0  0  0  0  0  0  0
  2  1  1  6
  1 27  1  0
  1 28  1  0
  1 29  1  0
  2 23  1  0
  2 24  1  0
  2  3  1  0
  3  4  1  0
  3 30  1  0
  3 31  1  0
  4  5  2  0
  4 32  1  0
  5  6  1  0
  5 22  1  0
  6 21  1  0
  6  7  2  0
  7  8  1  0
  8  9  1  0
  8 20  2  0
  9 10  1  0
  9 33  1  0
  9 34  1  0
 11 10  1  6
 10 35  1  0
 10 59  1  0
 11 17  1  0
 11 19  1  0
 11 12  1  0
 12 13  1  0
 12 36  1  0
 12 37  1  0
 13 18  1  0
 13 14  1  0
 13 38  1  1
 14 15  1  0
 14 39  1  0
 14 40  1  0
 15 16  1  0
 15 19  1  0
 15 41  1  6
 16 17  1  0
 16 42  1  0
 16 43  1  0
 17 18  1  0
 17 44  1  6
 18 45  1  0
 18 46  1  0
 19 47  1  0
 19 48  1  0
 20 21  1  0
 20 49  1  0
 22 23  1  0
 22 24  1  0
 22 50  1  6
 23 51  1  0
 23 52  1  0
 24 25  1  0
 24 26  1  0
 25 53  1  0
 25 54  1  0
 25 55  1  0
 26 56  1  0
 26 57  1  0
 26 58  1  0
M  CHG  1  10   1
M  END
>  <i_m_ct_stereo_status>  (289) 
1

>  <s_m_source_file>  (289) 
/var/tmp/pbs.5076255.sched01/tmpulc5pjk6/123bob0etdf.sdf

>  <i_m_source_file_index>  (289) 
7

>  <i_lp_mmshare_version>  (289) 
48012

>  <i_f3d_flags>  (289) 
0

>  <s_epik_input>  (289) 
W0NIM11bQ0BAXTEyW0NIMl1bQ0hdPUMoW0NAQEhdKFtDSDJdMSlDMihbQ0gzXSlbQ0gzXSljM25jKFtjSF1zMylbQ0gyXVtOSF1bQ0BdNDVbQ0BIXTZbQ0gyXVtDQEBIXShbQ0gyXTUpW0NIMl1bQ0BASF0oW0NIMl00KVtDSDJdNg==

>  <s_epik_cmdline>  (289) 
J2VwaWtfcHl0aG9uJywgJy1waHQnLCAnMi4wJywgJy1waCcsICc3LjAnLCAnLXRuJywgJzgnLCAnLW1hJywgJzIwMCcsICctaW1hZScsICc8aW5maWxlLm1hZT4nLCAnLW9tYWUnLCAnPG91dGZpbGUubWFlPic=

>  <r_lp_tautomer_probability>  (289) 
1

>  <r_epik_Ionization_Penalty>  (289) 
0.00100105

>  <r_epik_Ionization_Penalty_Charging>  (289) 
0.00100104

>  <r_epik_Ionization_Penalty_Neutral>  (289) 
5.54019e-09

>  <r_epik_State_Penalty>  (289) 
-0

>  <r_epik_Charging_Adjusted_Penalty>  (289) 
0.00100104

>  <i_epik_Tot_Q>  (289) 
1

>  <i_epik_Tot_abs_Q>  (289) 
1

>  <s_lp_Force_Field>  (289) 
OPLS3e

>  <r_lp_Energy>  (289) 
69.1683

>  <b_lp_Chiralities_Consistent>  (289) 
1

>  <s_lp_Variant>  (289) 
81:0-1

>  <s_i_glide_gridfile>  (289) 
pfpi4k_grid

>  <i_i_glide_lignum>  (289) 
7

>  <i_i_glide_rotatable_bonds>  (289) 
4

>  <r_i_docking_score>  (289) 
-3.34572

>  <r_i_glide_ligand_efficiency>  (289) 
-0.128682

>  <r_i_glide_ligand_efficiency_sa>  (289) 
-0.381219

>  <r_i_glide_ligand_efficiency_ln>  (289) 
-0.785731

>  <r_i_glide_gscore>  (289) 
-3.34572

>  <r_i_glide_lipo>  (289) 
-0.684357

>  <r_i_glide_hbond>  (289) 
-0.183335

>  <r_i_glide_metal>  (289) 
-0

>  <r_i_glide_rewards>  (289) 
-0.889176

>  <r_i_glide_evdw>  (289) 
-26.7731

>  <r_i_glide_ecoul>  (289) 
-4.841

>  <r_i_glide_erotb>  (289) 
0.564667

>  <r_i_glide_esite>  (289) 
-0.0887108

>  <r_i_glide_emodel>  (289) 
-37.9159

>  <r_i_glide_energy>  (289) 
-31.6141

>  <r_i_glide_einternal>  (289) 
4.58637

>  <r_i_glide_intrahb_reward>  (289) 
-0

>  <i_i_glide_confnum>  (289) 
1

>  <i_i_glide_posenum>  (289) 
22

>  <r_i_glide_eff_state_penalty>  (289) 
0

>  <ligand_id>  (289) 
81

>  <original_smiles>  (289) 
CC12CC=C(c3nc(CNC45CC6CC(CC4C6)C5)cs3)C(C1)C2(C)C

>  <smiles>  (289) 
[H]C1=C(c2nc(C([H])([H])[N+]([H])([H])C34C([H])([H])C5([H])C([H])([H])C([H])(C([H])([H])C3([H])C5([H])[H])C4([H])[H])c([H])s2)C2([H])C([H])([H])C(C([H])([H])[H])(C1([H])[H])C2(C([H])([H])[H])C([H])([H])[H]

$$$$
81:0:1
     RDKit          3D

 59 64  0  0  1  0  0  0  0  0999 V2000
   -2.1398    2.6954    6.1498 C   0  0  0  0  0  0  0  0  0  0  0  0
   -0.9716    1.8943    5.5666 C   0  0  1  0  0  0  0  0  0  0  0  0
    0.1933    1.8344    6.5930 C   0  0  0  0  0  0  0  0  0  0  0  0
    1.3458    1.0100    6.0128 C   0  0  0  0  0  0  0  0  0  0  0  0
    1.2239    0.4743    4.7742 C   0  0  0  0  0  0  0  0  0  0  0  0
    2.2896   -0.2742    4.1044 C   0  0  0  0  0  0  0  0  0  0  0  0
    2.0685   -0.9472    2.9695 N   0  0  0  0  0  0  0  0  0  0  0  0
    3.2055   -1.6094    2.5038 C   0  0  0  0  0  0  0  0  0  0  0  0
    3.1099   -2.4477    1.2686 C   0  0  0  0  0  0  0  0  0  0  0  0
    3.0285   -1.5951    0.0558 N   0  0  0  0  0  0  0  0  0  0  0  0
    3.5795   -2.1808   -1.1827 C   0  0  1  0  0  0  0  0  0  0  0  0
    2.8529   -3.4568   -1.6262 C   0  0  0  0  0  0  0  0  0  0  0  0
    3.1862   -3.4714   -3.1275 C   0  0  2  0  0  0  0  0  0  0  0  0
    4.7108   -3.6330   -3.3516 C   0  0  0  0  0  0  0  0  0  0  0  0
    5.4741   -2.5265   -2.5634 C   0  0  1  0  0  0  0  0  0  0  0  0
    4.9200   -1.1471   -2.9400 C   0  0  0  0  0  0  0  0  0  0  0  0
    3.4827   -1.2438   -2.4376 C   0  0  1  0  0  0  0  0  0  0  0  0
    2.7624   -2.0738   -3.4997 C   0  0  0  0  0  0  0  0  0  0  0  0
    5.0781   -2.5441   -1.0916 C   0  0  0  0  0  0  0  0  0  0  0  0
    4.3160   -1.4116    3.3058 C   0  0  0  0  0  0  0  0  0  0  0  0
    3.9551   -0.3746    4.6744 S   0  0  0  0  0  0  0  0  0  0  0  0
   -0.1027    0.7717    4.0561 C   0  0  1  0  0  0  0  0  0  0  0  0
   -1.2834    0.4847    4.9933 C   0  0  0  0  0  0  0  0  0  0  0  0
   -0.5178    2.2719    4.1040 C   0  0  0  0  0  0  0  0  0  0  0  0
   -1.6156    2.7294    3.1116 C   0  0  0  0  0  0  0  0  0  0  0  0
    0.5941    3.3435    3.9283 C   0  0  0  0  0  0  0  0  0  0  0  0
   -1.8556    3.7292    6.3499 H   0  0  0  0  0  0  0  0  0  0  0  0
   -2.5329    2.2531    7.0652 H   0  0  0  0  0  0  0  0  0  0  0  0
   -2.9803    2.7397    5.4571 H   0  0  0  0  0  0  0  0  0  0  0  0
    0.5684    2.8338    6.8099 H   0  0  0  0  0  0  0  0  0  0  0  0
   -0.1176    1.3973    7.5447 H   0  0  0  0  0  0  0  0  0  0  0  0
    2.2458    0.9202    6.6108 H   0  0  0  0  0  0  0  0  0  0  0  0
    3.9485   -3.1402    1.2454 H   0  0  0  0  0  0  0  0  0  0  0  0
    2.2151   -3.0713    1.3131 H   0  0  0  0  0  0  0  0  0  0  0  0
    2.0542   -1.3397   -0.1556 H   0  0  0  0  0  0  0  0  0  0  0  0
    3.2026   -4.3418   -1.0992 H   0  0  0  0  0  0  0  0  0  0  0  0
    1.7738   -3.3874   -1.4755 H   0  0  0  0  0  0  0  0  0  0  0  0
    2.6063   -4.2071   -3.6866 H   0  0  0  0  0  0  0  0  0  0  0  0
    5.0184   -4.6292   -3.0324 H   0  0  0  0  0  0  0  0  0  0  0  0
    4.9271   -3.5637   -4.4178 H   0  0  0  0  0  0  0  0  0  0  0  0
    6.5491   -2.6244   -2.7116 H   0  0  0  0  0  0  0  0  0  0  0  0
    5.4237   -0.3442   -2.4002 H   0  0  0  0  0  0  0  0  0  0  0  0
    4.9812   -0.9509   -4.0146 H   0  0  0  0  0  0  0  0  0  0  0  0
    3.0211   -0.2670   -2.3165 H   0  0  0  0  0  0  0  0  0  0  0  0
    2.9784   -1.7862   -4.5321 H   0  0  0  0  0  0  0  0  0  0  0  0
    1.6988   -2.0662   -3.3492 H   0  0  0  0  0  0  0  0  0  0  0  0
    5.6466   -1.7908   -0.5412 H   0  0  0  0  0  0  0  0  0  0  0  0
    5.2822   -3.5151   -0.6360 H   0  0  0  0  0  0  0  0  0  0  0  0
    5.3058   -1.8308    3.2112 H   0  0  0  0  0  0  0  0  0  0  0  0
   -0.1881    0.3372    3.0632 H   0  0  0  0  0  0  0  0  0  0  0  0
   -1.1152   -0.3470    5.6863 H   0  0  0  0  0  0  0  0  0  0  0  0
   -2.2451    0.3619    4.4942 H   0  0  0  0  0  0  0  0  0  0  0  0
   -1.2633    2.7530    2.0881 H   0  0  0  0  0  0  0  0  0  0  0  0
   -1.9728    3.7316    3.3500 H   0  0  0  0  0  0  0  0  0  0  0  0
   -2.5076    2.1047    3.1055 H   0  0  0  0  0  0  0  0  0  0  0  0
    0.9756    3.3818    2.9037 H   0  0  0  0  0  0  0  0  0  0  0  0
    1.4747    3.1848    4.5494 H   0  0  0  0  0  0  0  0  0  0  0  0
    0.2430    4.3447    4.1892 H   0  0  0  0  0  0  0  0  0  0  0  0
    3.5442   -0.7543    0.2531 H   0  0  0  0  0  0  0  0  0  0  0  0
  2  1  1  1
  1 27  1  0
  1 28  1  0
  1 29  1  0
  2 23  1  0
  2 24  1  0
  2  3  1  0
  3  4  1  0
  3 30  1  0
  3 31  1  0
  4  5  2  0
  4 32  1  0
  5  6  1  0
  5 22  1  0
  6 21  1  0
  6  7  2  0
  7  8  1  0
  8  9  1  0
  8 20  2  0
  9 10  1  0
  9 33  1  0
  9 34  1  0
 11 10  1  1
 10 35  1  0
 10 59  1  0
 11 17  1  0
 11 19  1  0
 11 12  1  0
 12 13  1  0
 12 36  1  0
 12 37  1  0
 13 18  1  0
 13 14  1  0
 13 38  1  6
 14 15  1  0
 14 39  1  0
 14 40  1  0
 15 16  1  0
 15 19  1  0
 15 41  1  1
 16 17  1  0
 16 42  1  0
 16 43  1  0
 17 18  1  0
 17 44  1  1
 18 45  1  0
 18 46  1  0
 19 47  1  0
 19 48  1  0
 20 21  1  0
 20 49  1  0
 22 23  1  0
 22 24  1  0
 22 50  1  6
 23 51  1  0
 23 52  1  0
 24 25  1  0
 24 26  1  0
 25 53  1  0
 25 54  1  0
 25 55  1  0
 26 56  1  0
 26 57  1  0
 26 58  1  0
M  CHG  1  10   1
M  END
>  <i_m_ct_stereo_status>  (290) 
1

>  <s_m_source_file>  (290) 
/var/tmp/pbs.5076255.sched01/tmpulc5pjk6/123bob0etdf.sdf

>  <i_m_source_file_index>  (290) 
7

>  <i_lp_mmshare_version>  (290) 
48012

>  <i_f3d_flags>  (290) 
0

>  <s_epik_input>  (290) 
W0NIM11bQ0BAXTEyW0NIMl1bQ0hdPUMoW0NAQEhdKFtDSDJdMSlDMihbQ0gzXSlbQ0gzXSljM25jKFtjSF1zMylbQ0gyXVtOSF1bQ0BdNDVbQ0BIXTZbQ0gyXVtDQEBIXShbQ0gyXTUpW0NIMl1bQ0BASF0oW0NIMl00KVtDSDJdNg==

>  <s_epik_cmdline>  (290) 
J2VwaWtfcHl0aG9uJywgJy1waHQnLCAnMi4wJywgJy1waCcsICc3LjAnLCAnLXRuJywgJzgnLCAnLW1hJywgJzIwMCcsICctaW1hZScsICc8aW5maWxlLm1hZT4nLCAnLW9tYWUnLCAnPG91dGZpbGUubWFlPic=

>  <r_lp_tautomer_probability>  (290) 
1

>  <r_epik_Ionization_Penalty>  (290) 
0.00100105

>  <r_epik_Ionization_Penalty_Charging>  (290) 
0.00100104

>  <r_epik_Ionization_Penalty_Neutral>  (290) 
5.54019e-09

>  <r_epik_State_Penalty>  (290) 
-0

>  <r_epik_Charging_Adjusted_Penalty>  (290) 
0.00100104

>  <i_epik_Tot_Q>  (290) 
1

>  <i_epik_Tot_abs_Q>  (290) 
1

>  <s_lp_Force_Field>  (290) 
OPLS3e

>  <r_lp_Energy>  (290) 
69.1683

>  <b_lp_Chiralities_Consistent>  (290) 
1

>  <s_lp_Variant>  (290) 
81:0-1

>  <s_i_glide_gridfile>  (290) 
pfpi4k_grid

>  <i_i_glide_lignum>  (290) 
7

>  <i_i_glide_rotatable_bonds>  (290) 
4

>  <r_i_docking_score>  (290) 
-3.3443

>  <r_i_glide_ligand_efficiency>  (290) 
-0.128627

>  <r_i_glide_ligand_efficiency_sa>  (290) 
-0.381056

>  <r_i_glide_ligand_efficiency_ln>  (290) 
-0.785397

>  <r_i_glide_gscore>  (290) 
-3.3443

>  <r_i_glide_lipo>  (290) 
-0.663364

>  <r_i_glide_hbond>  (290) 
-0.193086

>  <r_i_glide_metal>  (290) 
-0

>  <r_i_glide_rewards>  (290) 
-0.889176

>  <r_i_glide_evdw>  (290) 
-21.5186

>  <r_i_glide_ecoul>  (290) 
-6.59879

>  <r_i_glide_erotb>  (290) 
0.564667

>  <r_i_glide_esite>  (290) 
-0.0975889

>  <r_i_glide_emodel>  (290) 
-35.9394

>  <r_i_glide_energy>  (290) 
-28.1174

>  <r_i_glide_einternal>  (290) 
1.48961

>  <r_i_glide_intrahb_reward>  (290) 
-0

>  <i_i_glide_confnum>  (290) 
3

>  <i_i_glide_posenum>  (290) 
3

>  <r_i_glide_eff_state_penalty>  (290) 
0

>  <ligand_id>  (290) 
81

>  <original_smiles>  (290) 
CC12CC=C(c3nc(CNC45CC6CC(CC4C6)C5)cs3)C(C1)C2(C)C

>  <smiles>  (290) 
[H]C1=C(c2nc(C([H])([H])[N+]([H])([H])C34C([H])([H])C5([H])C([H])([H])C([H])(C([H])([H])C3([H])C5([H])[H])C4([H])[H])c([H])s2)C2([H])C([H])([H])C(C([H])([H])[H])(C1([H])[H])C2(C([H])([H])[H])C([H])([H])[H]

$$$$
81:0:2
     RDKit          3D

 59 64  0  0  1  0  0  0  0  0999 V2000
    4.3109   -0.7091   -1.0017 C   0  0  0  0  0  0  0  0  0  0  0  0
    4.5356   -2.1383   -0.5312 C   0  0  1  0  0  0  0  0  0  0  0  0
    5.9558   -2.2693    0.0892 C   0  0  0  0  0  0  0  0  0  0  0  0
    6.1562   -3.6989    0.5854 C   0  0  0  0  0  0  0  0  0  0  0  0
    5.1742   -4.6139    0.4244 C   0  0  0  0  0  0  0  0  0  0  0  0
    5.2985   -6.0100    0.8385 C   0  0  0  0  0  0  0  0  0  0  0  0
    4.3306   -6.9001    0.6198 N   0  0  0  0  0  0  0  0  0  0  0  0
    4.6421   -8.1775    1.1268 C   0  0  0  0  0  0  0  0  0  0  0  0
    3.6406   -9.2696    0.9951 C   0  0  0  0  0  0  0  0  0  0  0  0
    3.6304  -10.1522    2.1617 N   0  0  0  0  0  0  0  0  0  0  0  0
    2.7329   -9.7974    3.2706 C   0  0  1  0  0  0  0  0  0  0  0  0
    1.2695   -9.5534    2.8430 C   0  0  0  0  0  0  0  0  0  0  0  0
    0.5351   -9.8408    4.1443 C   0  0  2  0  0  0  0  0  0  0  0  0
    0.9531   -8.8121    5.2383 C   0  0  0  0  0  0  0  0  0  0  0  0
    2.5048   -8.7915    5.3995 C   0  0  1  0  0  0  0  0  0  0  0  0
    3.0140  -10.2073    5.6744 C   0  0  0  0  0  0  0  0  0  0  0  0
    2.6333  -10.9126    4.3617 C   0  0  1  0  0  0  0  0  0  0  0  0
    1.1274  -11.2127    4.4654 C   0  0  0  0  0  0  0  0  0  0  0  0
    3.1746   -8.5388    4.0481 C   0  0  0  0  0  0  0  0  0  0  0  0
    5.9042   -8.2343    1.6866 C   0  0  0  0  0  0  0  0  0  0  0  0
    6.7155   -6.6866    1.6500 S   0  0  0  0  0  0  0  0  0  0  0  0
    3.8902   -4.0833   -0.2525 C   0  0  1  0  0  0  0  0  0  0  0  0
    3.4615   -2.7628    0.3974 C   0  0  0  0  0  0  0  0  0  0  0  0
    4.1609   -3.2746   -1.5531 C   0  0  0  0  0  0  0  0  0  0  0  0
    2.9524   -3.0095   -2.4999 C   0  0  0  0  0  0  0  0  0  0  0  0
    5.2626   -3.7814   -2.5179 C   0  0  0  0  0  0  0  0  0  0  0  0
    4.9980   -0.4145   -1.7964 H   0  0  0  0  0  0  0  0  0  0  0  0
    4.3621    0.0184   -0.1903 H   0  0  0  0  0  0  0  0  0  0  0  0
    3.3076   -0.6525   -1.4234 H   0  0  0  0  0  0  0  0  0  0  0  0
    6.7200   -2.0522   -0.6538 H   0  0  0  0  0  0  0  0  0  0  0  0
    6.1047   -1.5754    0.9171 H   0  0  0  0  0  0  0  0  0  0  0  0
    7.1241   -3.9428    1.0092 H   0  0  0  0  0  0  0  0  0  0  0  0
    2.6463   -8.8540    0.8233 H   0  0  0  0  0  0  0  0  0  0  0  0
    3.8617   -9.8549    0.1013 H   0  0  0  0  0  0  0  0  0  0  0  0
    3.4029  -11.0792    1.7948 H   0  0  0  0  0  0  0  0  0  0  0  0
    1.0740   -8.5443    2.4785 H   0  0  0  0  0  0  0  0  0  0  0  0
    0.9520  -10.2552    2.0720 H   0  0  0  0  0  0  0  0  0  0  0  0
   -0.5474   -9.8657    4.0143 H   0  0  0  0  0  0  0  0  0  0  0  0
    0.5886   -7.8179    4.9776 H   0  0  0  0  0  0  0  0  0  0  0  0
    0.4828   -9.0773    6.1869 H   0  0  0  0  0  0  0  0  0  0  0  0
    2.8183   -8.0842    6.1683 H   0  0  0  0  0  0  0  0  0  0  0  0
    4.0956  -10.2046    5.8224 H   0  0  0  0  0  0  0  0  0  0  0  0
    2.5651  -10.6566    6.5633 H   0  0  0  0  0  0  0  0  0  0  0  0
    3.2263  -11.8109    4.1830 H   0  0  0  0  0  0  0  0  0  0  0  0
    0.8108  -11.5822    5.4422 H   0  0  0  0  0  0  0  0  0  0  0  0
    0.8226  -11.9508    3.7208 H   0  0  0  0  0  0  0  0  0  0  0  0
    4.2573   -8.4950    4.1756 H   0  0  0  0  0  0  0  0  0  0  0  0
    2.8602   -7.5997    3.5905 H   0  0  0  0  0  0  0  0  0  0  0  0
    6.4133   -9.0779    2.1308 H   0  0  0  0  0  0  0  0  0  0  0  0
    3.0971   -4.8194   -0.3584 H   0  0  0  0  0  0  0  0  0  0  0  0
    3.6706   -2.6871    1.4692 H   0  0  0  0  0  0  0  0  0  0  0  0
    2.4278   -2.4691    0.2101 H   0  0  0  0  0  0  0  0  0  0  0  0
    2.6074   -3.8884   -3.0384 H   0  0  0  0  0  0  0  0  0  0  0  0
    3.1996   -2.2652   -3.2568 H   0  0  0  0  0  0  0  0  0  0  0  0
    2.0670   -2.6433   -1.9888 H   0  0  0  0  0  0  0  0  0  0  0  0
    4.9763   -4.7076   -3.0175 H   0  0  0  0  0  0  0  0  0  0  0  0
    6.1994   -4.0044   -2.0141 H   0  0  0  0  0  0  0  0  0  0  0  0
    5.5327   -3.0434   -3.2737 H   0  0  0  0  0  0  0  0  0  0  0  0
    4.5825  -10.1987    2.5087 H   0  0  0  0  0  0  0  0  0  0  0  0
  2  1  1  6
  1 27  1  0
  1 28  1  0
  1 29  1  0
  2 23  1  0
  2 24  1  0
  2  3  1  0
  3  4  1  0
  3 30  1  0
  3 31  1  0
  4  5  2  0
  4 32  1  0
  5  6  1  0
  5 22  1  0
  6 21  1  0
  6  7  2  0
  7  8  1  0
  8  9  1  0
  8 20  2  0
  9 10  1  0
  9 33  1  0
  9 34  1  0
 11 10  1  6
 10 35  1  0
 10 59  1  0
 11 17  1  0
 11 19  1  0
 11 12  1  0
 12 13  1  0
 12 36  1  0
 12 37  1  0
 13 18  1  0
 13 14  1  0
 13 38  1  6
 14 15  1  0
 14 39  1  0
 14 40  1  0
 15 16  1  0
 15 19  1  0
 15 41  1  1
 16 17  1  0
 16 42  1  0
 16 43  1  0
 17 18  1  0
 17 44  1  6
 18 45  1  0
 18 46  1  0
 19 47  1  0
 19 48  1  0
 20 21  1  0
 20 49  1  0
 22 23  1  0
 22 24  1  0
 22 50  1  6
 23 51  1  0
 23 52  1  0
 24 25  1  0
 24 26  1  0
 25 53  1  0
 25 54  1  0
 25 55  1  0
 26 56  1  0
 26 57  1  0
 26 58  1  0
M  CHG  1  10   1
M  END
>  <i_m_ct_stereo_status>  (291) 
1

>  <s_m_source_file>  (291) 
/var/tmp/pbs.5076255.sched01/tmpulc5pjk6/123bob0etdf.sdf

>  <i_m_source_file_index>  (291) 
7

>  <i_lp_mmshare_version>  (291) 
48012

>  <i_f3d_flags>  (291) 
0

>  <s_epik_input>  (291) 
W0NIM11bQ0BAXTEyW0NIMl1bQ0hdPUMoW0NAQEhdKFtDSDJdMSlDMihbQ0gzXSlbQ0gzXSljM25jKFtjSF1zMylbQ0gyXVtOSF1bQ0BdNDVbQ0BIXTZbQ0gyXVtDQEBIXShbQ0gyXTUpW0NIMl1bQ0BASF0oW0NIMl00KVtDSDJdNg==

>  <s_epik_cmdline>  (291) 
J2VwaWtfcHl0aG9uJywgJy1waHQnLCAnMi4wJywgJy1waCcsICc3LjAnLCAnLXRuJywgJzgnLCAnLW1hJywgJzIwMCcsICctaW1hZScsICc8aW5maWxlLm1hZT4nLCAnLW9tYWUnLCAnPG91dGZpbGUubWFlPic=

>  <r_lp_tautomer_probability>  (291) 
1

>  <r_epik_Ionization_Penalty>  (291) 
0.00100105

>  <r_epik_Ionization_Penalty_Charging>  (291) 
0.00100104

>  <r_epik_Ionization_Penalty_Neutral>  (291) 
5.54019e-09

>  <r_epik_State_Penalty>  (291) 
-0

>  <r_epik_Charging_Adjusted_Penalty>  (291) 
0.00100104

>  <i_epik_Tot_Q>  (291) 
1

>  <i_epik_Tot_abs_Q>  (291) 
1

>  <s_lp_Force_Field>  (291) 
OPLS3e

>  <r_lp_Energy>  (291) 
69.1683

>  <b_lp_Chiralities_Consistent>  (291) 
1

>  <s_lp_Variant>  (291) 
81:0-1

>  <s_i_glide_gridfile>  (291) 
pfpi4k_grid

>  <i_i_glide_lignum>  (291) 
7

>  <i_i_glide_rotatable_bonds>  (291) 
4

>  <r_i_docking_score>  (291) 
-3.07959

>  <r_i_glide_ligand_efficiency>  (291) 
-0.118446

>  <r_i_glide_ligand_efficiency_sa>  (291) 
-0.350895

>  <r_i_glide_ligand_efficiency_ln>  (291) 
-0.723231

>  <r_i_glide_gscore>  (291) 
-3.07959

>  <r_i_glide_lipo>  (291) 
-0.639894

>  <r_i_glide_hbond>  (291) 
-0.133847

>  <r_i_glide_metal>  (291) 
-0

>  <r_i_glide_rewards>  (291) 
-0.889176

>  <r_i_glide_evdw>  (291) 
-26.3132

>  <r_i_glide_ecoul>  (291) 
-3.89439

>  <r_i_glide_erotb>  (291) 
0.564667

>  <r_i_glide_esite>  (291) 
-0.0815184

>  <r_i_glide_emodel>  (291) 
-36.6363

>  <r_i_glide_energy>  (291) 
-30.2076

>  <r_i_glide_einternal>  (291) 
2.80496

>  <r_i_glide_intrahb_reward>  (291) 
-0

>  <i_i_glide_confnum>  (291) 
1

>  <i_i_glide_posenum>  (291) 
1

>  <r_i_glide_eff_state_penalty>  (291) 
0

>  <ligand_id>  (291) 
81

>  <original_smiles>  (291) 
CC12CC=C(c3nc(CNC45CC6CC(CC4C6)C5)cs3)C(C1)C2(C)C

>  <smiles>  (291) 
[H]C1=C(c2nc(C([H])([H])[N+]([H])([H])C34C([H])([H])C5([H])C([H])([H])C([H])(C([H])([H])C3([H])C5([H])[H])C4([H])[H])c([H])s2)C2([H])C([H])([H])C(C([H])([H])[H])(C1([H])[H])C2(C([H])([H])[H])C([H])([H])[H]

$$$$
82:0:0
     RDKit          3D

 12 13  0  0  1  0  0  0  0  0999 V2000
   -8.0255   -4.2424   -5.3825 C   0  0  0  0  0  0  0  0  0  0  0  0
   -8.6249   -5.0553   -6.3612 C   0  0  0  0  0  0  0  0  0  0  0  0
   -8.1026   -6.2348   -6.7652 N   0  0  0  0  0  0  0  0  0  0  0  0
   -6.9562   -6.6722   -6.1973 C   0  0  0  0  0  0  0  0  0  0  0  0
   -6.3311   -7.8210   -6.4914 N   0  0  0  0  0  0  0  0  0  0  0  0
   -4.9675   -7.8605   -5.5066 S   0  0  0  0  0  0  0  0  0  0  0  0
   -5.1463   -6.3902   -4.7221 N   0  0  0  0  0  0  0  0  0  0  0  0
   -6.2906   -5.9102   -5.2149 C   0  0  0  0  0  0  0  0  0  0  0  0
   -6.8225   -4.6774   -4.7952 C   0  0  0  0  0  0  0  0  0  0  0  0
   -8.4736   -3.2988   -5.1017 H   0  0  0  0  0  0  0  0  0  0  0  0
   -9.5453   -4.7508   -6.8368 H   0  0  0  0  0  0  0  0  0  0  0  0
   -6.3235   -4.0772   -4.0488 H   0  0  0  0  0  0  0  0  0  0  0  0
  1  9  2  0
  1  2  1  0
  1 10  1  0
  2  3  2  0
  2 11  1  0
  3  4  1  0
  4  8  1  0
  4  5  2  0
  5  6  1  0
  6  7  1  0
  7  8  2  0
  8  9  1  0
  9 12  1  0
M  END
>  <i_m_ct_stereo_status>  (292) 
1

>  <s_m_source_file>  (292) 
/var/tmp/pbs.5076255.sched01/tmpulc5pjk6/123bob0etdf.sdf

>  <i_m_source_file_index>  (292) 
8

>  <i_lp_mmshare_version>  (292) 
48012

>  <i_f3d_flags>  (292) 
0

>  <s_epik_input>  (292) 
bjFbY0hdW2NIXVtjSF1jKGMxMiluc24y

>  <s_epik_cmdline>  (292) 
J2VwaWtfcHl0aG9uJywgJy1waHQnLCAnMi4wJywgJy1waCcsICc3LjAnLCAnLXRuJywgJzgnLCAnLW1hJywgJzIwMCcsICctaW1hZScsICc8aW5maWxlLm1hZT4nLCAnLW9tYWUnLCAnPG91dGZpbGUubWFlPic=

>  <r_lp_tautomer_probability>  (292) 
1

>  <r_epik_Ionization_Penalty>  (292) 
1.02883e-08

>  <r_epik_Ionization_Penalty_Charging>  (292) 
0

>  <r_epik_Ionization_Penalty_Neutral>  (292) 
1.02883e-08

>  <r_epik_State_Penalty>  (292) 
-0

>  <r_epik_Charging_Adjusted_Penalty>  (292) 
0

>  <i_epik_Tot_Q>  (292) 
0

>  <i_epik_Tot_abs_Q>  (292) 
0

>  <s_lp_Force_Field>  (292) 
OPLS3e

>  <r_lp_Energy>  (292) 
11.1044

>  <b_lp_Chiralities_Consistent>  (292) 
1

>  <s_lp_Variant>  (292) 
82:0-1

>  <s_i_glide_gridfile>  (292) 
pfpi4k_grid

>  <i_i_glide_lignum>  (292) 
8

>  <i_i_glide_rotatable_bonds>  (292) 
0

>  <r_i_docking_score>  (292) 
-6.90747

>  <r_i_glide_ligand_efficiency>  (292) 
-0.767497

>  <r_i_glide_ligand_efficiency_sa>  (292) 
-1.59646

>  <r_i_glide_ligand_efficiency_ln>  (292) 
-2.16046

>  <r_i_glide_gscore>  (292) 
-6.90747

>  <r_i_glide_lipo>  (292) 
-1.58649

>  <r_i_glide_hbond>  (292) 
-0.255829

>  <r_i_glide_metal>  (292) 
-0

>  <r_i_glide_rewards>  (292) 
-3.77101

>  <r_i_glide_evdw>  (292) 
-21.2329

>  <r_i_glide_ecoul>  (292) 
-1.55

>  <r_i_glide_erotb>  (292) 
0

>  <r_i_glide_esite>  (292) 
0

>  <r_i_glide_emodel>  (292) 
-32.4941

>  <r_i_glide_energy>  (292) 
-22.7829

>  <r_i_glide_einternal>  (292) 
0

>  <r_i_glide_intrahb_reward>  (292) 
-0

>  <i_i_glide_confnum>  (292) 
2

>  <i_i_glide_posenum>  (292) 
11

>  <r_i_glide_eff_state_penalty>  (292) 
0

>  <ligand_id>  (292) 
82

>  <original_smiles>  (292) 
c1cnc2nsnc2c1

>  <smiles>  (292) 
[H]c1nc2nsnc2c([H])c1[H]

$$$$
82:0:1
     RDKit          3D

 12 13  0  0  1  0  0  0  0  0999 V2000
   -0.4703   -9.3708    2.8792 C   0  0  0  0  0  0  0  0  0  0  0  0
   -1.1772   -8.1902    2.5849 C   0  0  0  0  0  0  0  0  0  0  0  0
   -0.5933   -7.0726    2.0934 N   0  0  0  0  0  0  0  0  0  0  0  0
    0.7378   -7.0935    1.8559 C   0  0  0  0  0  0  0  0  0  0  0  0
    1.4369   -6.0678    1.3561 N   0  0  0  0  0  0  0  0  0  0  0  0
    3.0307   -6.6063    1.2814 S   0  0  0  0  0  0  0  0  0  0  0  0
    2.8291   -8.1628    1.8732 N   0  0  0  0  0  0  0  0  0  0  0  0
    1.5202   -8.2332    2.1270 C   0  0  0  0  0  0  0  0  0  0  0  0
    0.9177   -9.3944    2.6490 C   0  0  0  0  0  0  0  0  0  0  0  0
   -0.9791  -10.2372    3.2804 H   0  0  0  0  0  0  0  0  0  0  0  0
   -2.2427   -8.1376    2.7551 H   0  0  0  0  0  0  0  0  0  0  0  0
    1.4983  -10.2800    2.8645 H   0  0  0  0  0  0  0  0  0  0  0  0
  1  9  2  0
  1  2  1  0
  1 10  1  0
  2  3  2  0
  2 11  1  0
  3  4  1  0
  4  8  1  0
  4  5  2  0
  5  6  1  0
  6  7  1  0
  7  8  2  0
  8  9  1  0
  9 12  1  0
M  END
>  <i_m_ct_stereo_status>  (293) 
1

>  <s_m_source_file>  (293) 
/var/tmp/pbs.5076255.sched01/tmpulc5pjk6/123bob0etdf.sdf

>  <i_m_source_file_index>  (293) 
8

>  <i_lp_mmshare_version>  (293) 
48012

>  <i_f3d_flags>  (293) 
0

>  <s_epik_input>  (293) 
bjFbY0hdW2NIXVtjSF1jKGMxMiluc24y

>  <s_epik_cmdline>  (293) 
J2VwaWtfcHl0aG9uJywgJy1waHQnLCAnMi4wJywgJy1waCcsICc3LjAnLCAnLXRuJywgJzgnLCAnLW1hJywgJzIwMCcsICctaW1hZScsICc8aW5maWxlLm1hZT4nLCAnLW9tYWUnLCAnPG91dGZpbGUubWFlPic=

>  <r_lp_tautomer_probability>  (293) 
1

>  <r_epik_Ionization_Penalty>  (293) 
1.02883e-08

>  <r_epik_Ionization_Penalty_Charging>  (293) 
0

>  <r_epik_Ionization_Penalty_Neutral>  (293) 
1.02883e-08

>  <r_epik_State_Penalty>  (293) 
-0

>  <r_epik_Charging_Adjusted_Penalty>  (293) 
0

>  <i_epik_Tot_Q>  (293) 
0

>  <i_epik_Tot_abs_Q>  (293) 
0

>  <s_lp_Force_Field>  (293) 
OPLS3e

>  <r_lp_Energy>  (293) 
11.1044

>  <b_lp_Chiralities_Consistent>  (293) 
1

>  <s_lp_Variant>  (293) 
82:0-1

>  <s_i_glide_gridfile>  (293) 
pfpi4k_grid

>  <i_i_glide_lignum>  (293) 
8

>  <i_i_glide_rotatable_bonds>  (293) 
0

>  <r_i_docking_score>  (293) 
-3.94127

>  <r_i_glide_ligand_efficiency>  (293) 
-0.437919

>  <r_i_glide_ligand_efficiency_sa>  (293) 
-0.910908

>  <r_i_glide_ligand_efficiency_ln>  (293) 
-1.23272

>  <r_i_glide_gscore>  (293) 
-3.94127

>  <r_i_glide_lipo>  (293) 
-0.064327

>  <r_i_glide_hbond>  (293) 
-0.234406

>  <r_i_glide_metal>  (293) 
-0

>  <r_i_glide_rewards>  (293) 
-2.25

>  <r_i_glide_evdw>  (293) 
-15.0993

>  <r_i_glide_ecoul>  (293) 
-3.81529

>  <r_i_glide_erotb>  (293) 
0

>  <r_i_glide_esite>  (293) 
-0.0652796

>  <r_i_glide_emodel>  (293) 
-24.4558

>  <r_i_glide_energy>  (293) 
-18.9146

>  <r_i_glide_einternal>  (293) 
0

>  <r_i_glide_intrahb_reward>  (293) 
-0

>  <i_i_glide_confnum>  (293) 
1

>  <i_i_glide_posenum>  (293) 
3

>  <r_i_glide_eff_state_penalty>  (293) 
0

>  <ligand_id>  (293) 
82

>  <original_smiles>  (293) 
c1cnc2nsnc2c1

>  <smiles>  (293) 
[H]c1nc2nsnc2c([H])c1[H]

$$$$
82:0:2
     RDKit          3D

 12 13  0  0  1  0  0  0  0  0999 V2000
    3.0648   -7.3239    1.6158 C   0  0  0  0  0  0  0  0  0  0  0  0
    2.2265   -6.2469    1.2704 C   0  0  0  0  0  0  0  0  0  0  0  0
    0.8846   -6.2641    1.4431 N   0  0  0  0  0  0  0  0  0  0  0  0
    0.3181   -7.3641    1.9875 C   0  0  0  0  0  0  0  0  0  0  0  0
   -0.9875   -7.4985    2.2429 N   0  0  0  0  0  0  0  0  0  0  0  0
   -1.1579   -9.0482    2.8794 S   0  0  0  0  0  0  0  0  0  0  0  0
    0.4456   -9.5342    2.8795 N   0  0  0  0  0  0  0  0  0  0  0  0
    1.0833   -8.4841    2.3565 C   0  0  0  0  0  0  0  0  0  0  0  0
    2.4778   -8.4791    2.1662 C   0  0  0  0  0  0  0  0  0  0  0  0
    4.1312   -7.2713    1.4481 H   0  0  0  0  0  0  0  0  0  0  0  0
    2.6409   -5.3475    0.8394 H   0  0  0  0  0  0  0  0  0  0  0  0
    3.0820   -9.3338    2.4381 H   0  0  0  0  0  0  0  0  0  0  0  0
  1  9  2  0
  1  2  1  0
  1 10  1  0
  2  3  2  0
  2 11  1  0
  3  4  1  0
  4  8  1  0
  4  5  2  0
  5  6  1  0
  6  7  1  0
  7  8  2  0
  8  9  1  0
  9 12  1  0
M  END
>  <i_m_ct_stereo_status>  (294) 
1

>  <s_m_source_file>  (294) 
/var/tmp/pbs.5076255.sched01/tmpulc5pjk6/123bob0etdf.sdf

>  <i_m_source_file_index>  (294) 
8

>  <i_lp_mmshare_version>  (294) 
48012

>  <i_f3d_flags>  (294) 
0

>  <s_epik_input>  (294) 
bjFbY0hdW2NIXVtjSF1jKGMxMiluc24y

>  <s_epik_cmdline>  (294) 
J2VwaWtfcHl0aG9uJywgJy1waHQnLCAnMi4wJywgJy1waCcsICc3LjAnLCAnLXRuJywgJzgnLCAnLW1hJywgJzIwMCcsICctaW1hZScsICc8aW5maWxlLm1hZT4nLCAnLW9tYWUnLCAnPG91dGZpbGUubWFlPic=

>  <r_lp_tautomer_probability>  (294) 
1

>  <r_epik_Ionization_Penalty>  (294) 
1.02883e-08

>  <r_epik_Ionization_Penalty_Charging>  (294) 
0

>  <r_epik_Ionization_Penalty_Neutral>  (294) 
1.02883e-08

>  <r_epik_State_Penalty>  (294) 
-0

>  <r_epik_Charging_Adjusted_Penalty>  (294) 
0

>  <i_epik_Tot_Q>  (294) 
0

>  <i_epik_Tot_abs_Q>  (294) 
0

>  <s_lp_Force_Field>  (294) 
OPLS3e

>  <r_lp_Energy>  (294) 
11.1044

>  <b_lp_Chiralities_Consistent>  (294) 
1

>  <s_lp_Variant>  (294) 
82:0-1

>  <s_i_glide_gridfile>  (294) 
pfpi4k_grid

>  <i_i_glide_lignum>  (294) 
8

>  <i_i_glide_rotatable_bonds>  (294) 
0

>  <r_i_docking_score>  (294) 
-3.87879

>  <r_i_glide_ligand_efficiency>  (294) 
-0.430976

>  <r_i_glide_ligand_efficiency_sa>  (294) 
-0.896467

>  <r_i_glide_ligand_efficiency_ln>  (294) 
-1.21317

>  <r_i_glide_gscore>  (294) 
-3.87879

>  <r_i_glide_lipo>  (294) 
-0.0500827

>  <r_i_glide_hbond>  (294) 
-0.187944

>  <r_i_glide_metal>  (294) 
-0

>  <r_i_glide_rewards>  (294) 
-2.25

>  <r_i_glide_evdw>  (294) 
-15.7889

>  <r_i_glide_ecoul>  (294) 
-3.56448

>  <r_i_glide_erotb>  (294) 
0

>  <r_i_glide_esite>  (294) 
-0.066641

>  <r_i_glide_emodel>  (294) 
-24.8062

>  <r_i_glide_energy>  (294) 
-19.3534

>  <r_i_glide_einternal>  (294) 
0

>  <r_i_glide_intrahb_reward>  (294) 
-0

>  <i_i_glide_confnum>  (294) 
1

>  <i_i_glide_posenum>  (294) 
2

>  <r_i_glide_eff_state_penalty>  (294) 
0

>  <ligand_id>  (294) 
82

>  <original_smiles>  (294) 
c1cnc2nsnc2c1

>  <smiles>  (294) 
[H]c1nc2nsnc2c([H])c1[H]

$$$$
83:0:0
     RDKit          3D

 59 65  0  0  1  0  0  0  0  0999 V2000
    0.0484   -7.5517    1.2927 C   0  0  0  0  0  0  0  0  0  0  0  0
    0.9075   -6.5557    0.7657 O   0  0  0  0  0  0  0  0  0  0  0  0
    1.8779   -6.0514    1.5938 C   0  0  0  0  0  0  0  0  0  0  0  0
    2.3320   -6.6741    2.7806 C   0  0  0  0  0  0  0  0  0  0  0  0
    3.3118   -6.0612    3.5844 C   0  0  0  0  0  0  0  0  0  0  0  0
    3.8504   -4.8015    3.2417 C   0  0  0  0  0  0  0  0  0  0  0  0
    3.3951   -4.2194    2.0239 C   0  0  0  0  0  0  0  0  0  0  0  0
    2.4526   -4.8279    1.2099 C   0  0  0  0  0  0  0  0  0  0  0  0
    2.2124   -4.1375    0.0463 O   0  0  0  0  0  0  0  0  0  0  0  0
    3.2631   -3.1926   -0.1664 C   0  0  1  0  0  0  0  0  0  0  0  0
    4.6263   -3.2879   -1.0455 C   0  0  2  0  0  0  0  0  0  0  0  0
    4.4467   -3.8246   -2.3726 O   0  0  0  0  0  0  0  0  0  0  0  0
    3.4265   -3.2595   -3.1939 C   0  0  0  0  0  0  0  0  0  0  0  0
    5.6141   -4.2902   -0.3468 C   0  0  0  0  0  0  0  0  0  0  0  0
    6.2803   -3.6959    0.9025 C   0  0  0  0  0  0  0  0  0  0  0  0
    6.9664   -4.3832    1.6525 O   0  0  0  0  0  0  0  0  0  0  0  0
    6.1493   -2.1701    1.0712 C   0  0  1  0  0  0  0  0  0  0  0  0
    6.6022   -1.7193   -0.3338 C   0  0  0  0  0  0  0  0  0  0  0  0
    5.4019   -1.9379   -1.2952 C   0  0  2  0  0  0  0  0  0  0  0  0
    4.4741   -0.7569   -1.1043 C   0  0  0  0  0  0  0  0  0  0  0  0
    4.3973   -0.4568    0.3985 C   0  0  0  0  0  0  0  0  0  0  0  0
    4.6808   -1.6810    1.3658 C   0  0  2  0  0  0  0  0  0  0  0  0
    4.0938   -1.2163    2.7189 C   0  0  1  0  0  0  0  0  0  0  0  0
    2.7731   -1.9000    2.2617 C   0  0  0  0  0  0  0  0  0  0  0  0
    3.5994   -2.8357    1.3483 C   0  0  2  0  0  0  0  0  0  0  0  0
    4.8105   -1.6159    3.9712 N   0  0  1  0  0  0  0  0  0  0  0  0
    5.0196   -0.4558    4.8762 C   0  0  0  0  0  0  0  0  0  0  0  0
    4.2918   -2.7787    4.7269 C   0  0  0  0  0  0  0  0  0  0  0  0
    4.8242   -4.0670    4.1335 C   0  0  0  0  0  0  0  0  0  0  0  0
   -0.6466   -7.8501    0.5118 H   0  0  0  0  0  0  0  0  0  0  0  0
   -0.5371   -7.1601    2.1238 H   0  0  0  0  0  0  0  0  0  0  0  0
    0.5796   -8.4475    1.6189 H   0  0  0  0  0  0  0  0  0  0  0  0
    1.9377   -7.6208    3.1112 H   0  0  0  0  0  0  0  0  0  0  0  0
    3.6416   -6.5565    4.4871 H   0  0  0  0  0  0  0  0  0  0  0  0
    3.4196   -4.1852   -0.5688 H   0  0  0  0  0  0  0  0  0  0  0  0
    3.3712   -3.8213   -4.1277 H   0  0  0  0  0  0  0  0  0  0  0  0
    3.6386   -2.2242   -3.4584 H   0  0  0  0  0  0  0  0  0  0  0  0
    2.4421   -3.3142   -2.7310 H   0  0  0  0  0  0  0  0  0  0  0  0
    5.1251   -5.2347   -0.0853 H   0  0  0  0  0  0  0  0  0  0  0  0
    6.3991   -4.5313   -1.0424 H   0  0  0  0  0  0  0  0  0  0  0  0
    6.8582   -1.8209    1.8205 H   0  0  0  0  0  0  0  0  0  0  0  0
    6.9097   -0.6778   -0.3013 H   0  0  0  0  0  0  0  0  0  0  0  0
    7.4812   -2.2688   -0.6895 H   0  0  0  0  0  0  0  0  0  0  0  0
    5.7848   -1.9204   -2.3167 H   0  0  0  0  0  0  0  0  0  0  0  0
    4.8391    0.1063   -1.6581 H   0  0  0  0  0  0  0  0  0  0  0  0
    3.4853   -0.9522   -1.5196 H   0  0  0  0  0  0  0  0  0  0  0  0
    5.0996    0.3475    0.6244 H   0  0  0  0  0  0  0  0  0  0  0  0
    3.4254    0.0103    0.5579 H   0  0  0  0  0  0  0  0  0  0  0  0
    3.9512   -0.1357    2.7364 H   0  0  0  0  0  0  0  0  0  0  0  0
    2.1591   -2.3551    3.0371 H   0  0  0  0  0  0  0  0  0  0  0  0
    2.1423   -1.2314    1.6804 H   0  0  0  0  0  0  0  0  0  0  0  0
    4.0682   -0.0998    5.2805 H   0  0  0  0  0  0  0  0  0  0  0  0
    5.5097    0.3664    4.3484 H   0  0  0  0  0  0  0  0  0  0  0  0
    5.6636   -0.7247    5.7190 H   0  0  0  0  0  0  0  0  0  0  0  0
    4.7095   -2.7275    5.7335 H   0  0  0  0  0  0  0  0  0  0  0  0
    3.2144   -2.7809    4.8812 H   0  0  0  0  0  0  0  0  0  0  0  0
    4.9992   -4.7289    4.9776 H   0  0  0  0  0  0  0  0  0  0  0  0
    5.8069   -3.9462    3.7017 H   0  0  0  0  0  0  0  0  0  0  0  0
    5.7437   -1.8888    3.6782 H   0  0  0  0  0  0  0  0  0  0  0  0
  1  2  1  0
  1 30  1  0
  1 31  1  0
  1 32  1  0
  2  3  1  0
  3  8  2  0
  3  4  1  0
  4  5  2  0
  4 33  1  0
  5  6  1  0
  5 34  1  0
  6 29  1  0
  6  7  2  0
  7 25  1  0
  7  8  1  0
  8  9  1  0
  9 10  1  0
 10 25  1  0
 10 11  1  0
 10 35  1  6
 11 19  1  0
 11 12  1  6
 11 14  1  0
 12 13  1  0
 13 36  1  0
 13 37  1  0
 13 38  1  0
 14 15  1  0
 14 39  1  0
 14 40  1  0
 15 16  2  0
 15 17  1  0
 17 22  1  0
 17 18  1  0
 17 41  1  1
 18 19  1  0
 18 42  1  0
 18 43  1  0
 19 20  1  0
 19 44  1  6
 20 21  1  0
 20 45  1  0
 20 46  1  0
 22 21  1  6
 21 47  1  0
 21 48  1  0
 22 25  1  0
 22 23  1  0
 23 24  1  0
 23 26  1  0
 23 49  1  6
 25 24  1  1
 24 50  1  0
 24 51  1  0
 26 27  1  0
 26 28  1  0
 26 59  1  6
 27 52  1  0
 27 53  1  0
 27 54  1  0
 28 29  1  0
 28 55  1  0
 28 56  1  0
 29 57  1  0
 29 58  1  0
M  CHG  1  26   1
M  END
>  <i_m_ct_stereo_status>  (295) 
1

>  <s_m_source_file>  (295) 
/var/tmp/pbs.5076255.sched01/tmpulc5pjk6/123bob0etdf.sdf

>  <i_m_source_file_index>  (295) 
9

>  <i_lp_mmshare_version>  (295) 
48012

>  <i_f3d_flags>  (295) 
0

>  <s_epik_input>  (295) 
W0NIMl0xW0NASF0yTihbQ0gzXSlbQ0gyXVtDSDJdYyhjM1tDQF0xNFtDQEBdMjU2KVtjSF1bY0hdYyhPW0NIM10pYzNPW0NASF00W0NAQF03KE9bQ0gzXSlbQ0BASF0oW0NIMl1bQ0gyXTYpW0NIMl1bQ0BASF01Qyg9TylbQ0gyXTc=

>  <s_epik_cmdline>  (295) 
J2VwaWtfcHl0aG9uJywgJy1waHQnLCAnMi4wJywgJy1waCcsICc3LjAnLCAnLXRuJywgJzgnLCAnLW1hJywgJzIwMCcsICctaW1hZScsICc8aW5maWxlLm1hZT4nLCAnLW9tYWUnLCAnPG91dGZpbGUubWFlPic=

>  <r_lp_tautomer_probability>  (295) 
1

>  <r_epik_Ionization_Penalty>  (295) 
0.020447

>  <r_epik_Ionization_Penalty_Charging>  (295) 
0.020447

>  <r_epik_Ionization_Penalty_Neutral>  (295) 
5.89513e-12

>  <r_epik_State_Penalty>  (295) 
0.016389

>  <r_epik_Charging_Adjusted_Penalty>  (295) 
0.036836

>  <i_epik_Tot_Q>  (295) 
1

>  <i_epik_Tot_abs_Q>  (295) 
1

>  <s_lp_Force_Field>  (295) 
OPLS3e

>  <r_lp_Energy>  (295) 
202.797

>  <b_lp_Chiralities_Consistent>  (295) 
1

>  <s_lp_Variant>  (295) 
83:0-1

>  <s_i_glide_gridfile>  (295) 
pfpi4k_grid

>  <i_i_glide_lignum>  (295) 
9

>  <i_i_glide_rotatable_bonds>  (295) 
2

>  <r_i_docking_score>  (295) 
-2.84192

>  <r_i_glide_ligand_efficiency>  (295) 
-0.0979971

>  <r_i_glide_ligand_efficiency_sa>  (295) 
-0.301078

>  <r_i_glide_ligand_efficiency_ln>  (295) 
-0.650727

>  <r_i_glide_gscore>  (295) 
-2.84192

>  <r_i_glide_lipo>  (295) 
-0.519415

>  <r_i_glide_hbond>  (295) 
-0.115147

>  <r_i_glide_metal>  (295) 
-0

>  <r_i_glide_rewards>  (295) 
-0.82474

>  <r_i_glide_evdw>  (295) 
-21.6569

>  <r_i_glide_ecoul>  (295) 
-1.99847

>  <r_i_glide_erotb>  (295) 
0

>  <r_i_glide_esite>  (295) 
0

>  <r_i_glide_emodel>  (295) 
-26.6611

>  <r_i_glide_energy>  (295) 
-23.6553

>  <r_i_glide_einternal>  (295) 
0.767246

>  <r_i_glide_intrahb_reward>  (295) 
-0

>  <i_i_glide_confnum>  (295) 
2

>  <i_i_glide_posenum>  (295) 
27

>  <r_i_glide_eff_state_penalty>  (295) 
0

>  <ligand_id>  (295) 
83

>  <original_smiles>  (295) 
COc1ccc2c3c1OC1C4(OC)CC(=O)C5CC4CCC54C(CC314)N(C)CC2

>  <smiles>  (295) 
[H]c1c([H])c2c3c(c1OC([H])([H])[H])OC1([H])C4(OC([H])([H])[H])C([H])([H])C(=O)C5([H])C([H])([H])C4([H])C([H])([H])C([H])([H])C54C31C([H])([H])C4([H])[N+]([H])(C([H])([H])[H])C([H])([H])C2([H])[H]

$$$$
83:0:1
     RDKit          3D

 59 65  0  0  1  0  0  0  0  0999 V2000
   -0.1894   -7.5788    1.1156 C   0  0  0  0  0  0  0  0  0  0  0  0
    0.6443   -6.6160    0.5036 O   0  0  0  0  0  0  0  0  0  0  0  0
    1.7313   -6.1908    1.2278 C   0  0  0  0  0  0  0  0  0  0  0  0
    2.3209   -6.8989    2.2830 C   0  0  0  0  0  0  0  0  0  0  0  0
    3.4032   -6.3470    3.0014 C   0  0  0  0  0  0  0  0  0  0  0  0
    3.9049   -5.0712    2.6869 C   0  0  0  0  0  0  0  0  0  0  0  0
    3.3141   -4.3984    1.5878 C   0  0  0  0  0  0  0  0  0  0  0  0
    2.2789   -4.9603    0.8379 C   0  0  0  0  0  0  0  0  0  0  0  0
    1.9072   -4.2071   -0.2464 O   0  0  0  0  0  0  0  0  0  0  0  0
    2.9100   -3.2025   -0.5013 C   0  0  1  0  0  0  0  0  0  0  0  0
    4.1751   -3.2374   -1.5242 C   0  0  2  0  0  0  0  0  0  0  0  0
    3.7333   -3.5203   -2.8739 O   0  0  0  0  0  0  0  0  0  0  0  0
    4.6422   -4.2281   -3.7445 C   0  0  0  0  0  0  0  0  0  0  0  0
    5.2388   -4.2816   -0.9775 C   0  0  0  0  0  0  0  0  0  0  0  0
    6.0453   -3.7660    0.2208 C   0  0  0  0  0  0  0  0  0  0  0  0
    6.8532   -4.4772    0.8264 O   0  0  0  0  0  0  0  0  0  0  0  0
    5.9259   -2.2638    0.4977 C   0  0  1  0  0  0  0  0  0  0  0  0
    6.1889   -1.7059   -0.9147 C   0  0  0  0  0  0  0  0  0  0  0  0
    4.8889   -1.8619   -1.7431 C   0  0  2  0  0  0  0  0  0  0  0  0
    3.9946   -0.7144   -1.3496 C   0  0  0  0  0  0  0  0  0  0  0  0
    4.1022   -0.5166    0.1760 C   0  0  0  0  0  0  0  0  0  0  0  0
    4.5075   -1.8070    0.9964 C   0  0  2  0  0  0  0  0  0  0  0  0
    4.0963   -1.4550    2.4458 C   0  0  1  0  0  0  0  0  0  0  0  0
    2.7269   -2.1137    2.0987 C   0  0  0  0  0  0  0  0  0  0  0  0
    3.4241   -2.9651    1.0011 C   0  0  2  0  0  0  0  0  0  0  0  0
    4.9818   -1.9460    3.5530 N   0  0  1  0  0  0  0  0  0  0  0  0
    5.3078   -0.8579    4.5210 C   0  0  0  0  0  0  0  0  0  0  0  0
    4.5532   -3.1716    4.2677 C   0  0  0  0  0  0  0  0  0  0  0  0
    4.9990   -4.4003    3.5038 C   0  0  0  0  0  0  0  0  0  0  0  0
   -0.9775   -7.8611    0.4180 H   0  0  0  0  0  0  0  0  0  0  0  0
   -0.6628   -7.1879    2.0148 H   0  0  0  0  0  0  0  0  0  0  0  0
    0.3558   -8.4864    1.3650 H   0  0  0  0  0  0  0  0  0  0  0  0
    1.9710   -7.8689    2.5831 H   0  0  0  0  0  0  0  0  0  0  0  0
    3.8453   -6.9206    3.7976 H   0  0  0  0  0  0  0  0  0  0  0  0
    3.0201   -4.1554   -0.9997 H   0  0  0  0  0  0  0  0  0  0  0  0
    4.1918   -4.4096   -4.7165 H   0  0  0  0  0  0  0  0  0  0  0  0
    4.9262   -5.1979   -3.3386 H   0  0  0  0  0  0  0  0  0  0  0  0
    5.5759   -3.6733   -3.8975 H   0  0  0  0  0  0  0  0  0  0  0  0
    4.7643   -5.2493   -0.7467 H   0  0  0  0  0  0  0  0  0  0  0  0
    6.0011   -4.4425   -1.7251 H   0  0  0  0  0  0  0  0  0  0  0  0
    6.7304   -1.9507    1.1686 H   0  0  0  0  0  0  0  0  0  0  0  0
    6.4516   -0.6624   -0.8112 H   0  0  0  0  0  0  0  0  0  0  0  0
    7.0123   -2.2058   -1.4383 H   0  0  0  0  0  0  0  0  0  0  0  0
    5.1180   -1.7151   -2.8017 H   0  0  0  0  0  0  0  0  0  0  0  0
    4.3264    0.1595   -1.9010 H   0  0  0  0  0  0  0  0  0  0  0  0
    2.9638   -0.8910   -1.6704 H   0  0  0  0  0  0  0  0  0  0  0  0
    4.8337    0.2697    0.3810 H   0  0  0  0  0  0  0  0  0  0  0  0
    3.1553   -0.0657    0.4913 H   0  0  0  0  0  0  0  0  0  0  0  0
    3.9615   -0.3805    2.5693 H   0  0  0  0  0  0  0  0  0  0  0  0
    2.2363   -2.6344    2.9198 H   0  0  0  0  0  0  0  0  0  0  0  0
    2.0244   -1.4000    1.6715 H   0  0  0  0  0  0  0  0  0  0  0  0
    4.4053   -0.5434    5.0586 H   0  0  0  0  0  0  0  0  0  0  0  0
    5.7405    0.0020    3.9889 H   0  0  0  0  0  0  0  0  0  0  0  0
    6.0424   -1.2000    5.2675 H   0  0  0  0  0  0  0  0  0  0  0  0
    5.1083   -3.2049    5.2056 H   0  0  0  0  0  0  0  0  0  0  0  0
    3.5069   -3.1946    4.5559 H   0  0  0  0  0  0  0  0  0  0  0  0
    5.2785   -5.1277    4.2611 H   0  0  0  0  0  0  0  0  0  0  0  0
    5.9167   -4.2434    2.9628 H   0  0  0  0  0  0  0  0  0  0  0  0
    5.8617   -2.1918    3.1071 H   0  0  0  0  0  0  0  0  0  0  0  0
  1  2  1  0
  1 30  1  0
  1 31  1  0
  1 32  1  0
  2  3  1  0
  3  8  2  0
  3  4  1  0
  4  5  2  0
  4 33  1  0
  5  6  1  0
  5 34  1  0
  6 29  1  0
  6  7  2  0
  7 25  1  0
  7  8  1  0
  8  9  1  0
  9 10  1  0
 10 25  1  0
 10 11  1  0
 10 35  1  6
 11 19  1  0
 11 12  1  6
 11 14  1  0
 12 13  1  0
 13 36  1  0
 13 37  1  0
 13 38  1  0
 14 15  1  0
 14 39  1  0
 14 40  1  0
 15 16  2  0
 15 17  1  0
 17 22  1  0
 17 18  1  0
 17 41  1  1
 18 19  1  0
 18 42  1  0
 18 43  1  0
 19 20  1  0
 19 44  1  6
 20 21  1  0
 20 45  1  0
 20 46  1  0
 22 21  1  6
 21 47  1  0
 21 48  1  0
 22 25  1  0
 22 23  1  0
 23 24  1  0
 23 26  1  0
 23 49  1  6
 25 24  1  1
 24 50  1  0
 24 51  1  0
 26 27  1  0
 26 28  1  0
 26 59  1  6
 27 52  1  0
 27 53  1  0
 27 54  1  0
 28 29  1  0
 28 55  1  0
 28 56  1  0
 29 57  1  0
 29 58  1  0
M  CHG  1  26   1
M  END
>  <i_m_ct_stereo_status>  (296) 
1

>  <s_m_source_file>  (296) 
/var/tmp/pbs.5076255.sched01/tmpulc5pjk6/123bob0etdf.sdf

>  <i_m_source_file_index>  (296) 
9

>  <i_lp_mmshare_version>  (296) 
48012

>  <i_f3d_flags>  (296) 
0

>  <s_epik_input>  (296) 
W0NIMl0xW0NASF0yTihbQ0gzXSlbQ0gyXVtDSDJdYyhjM1tDQF0xNFtDQEBdMjU2KVtjSF1bY0hdYyhPW0NIM10pYzNPW0NASF00W0NAQF03KE9bQ0gzXSlbQ0BASF0oW0NIMl1bQ0gyXTYpW0NIMl1bQ0BASF01Qyg9TylbQ0gyXTc=

>  <s_epik_cmdline>  (296) 
J2VwaWtfcHl0aG9uJywgJy1waHQnLCAnMi4wJywgJy1waCcsICc3LjAnLCAnLXRuJywgJzgnLCAnLW1hJywgJzIwMCcsICctaW1hZScsICc8aW5maWxlLm1hZT4nLCAnLW9tYWUnLCAnPG91dGZpbGUubWFlPic=

>  <r_lp_tautomer_probability>  (296) 
1

>  <r_epik_Ionization_Penalty>  (296) 
0.020447

>  <r_epik_Ionization_Penalty_Charging>  (296) 
0.020447

>  <r_epik_Ionization_Penalty_Neutral>  (296) 
5.89513e-12

>  <r_epik_State_Penalty>  (296) 
0.016389

>  <r_epik_Charging_Adjusted_Penalty>  (296) 
0.036836

>  <i_epik_Tot_Q>  (296) 
1

>  <i_epik_Tot_abs_Q>  (296) 
1

>  <s_lp_Force_Field>  (296) 
OPLS3e

>  <r_lp_Energy>  (296) 
202.797

>  <b_lp_Chiralities_Consistent>  (296) 
1

>  <s_lp_Variant>  (296) 
83:0-1

>  <s_i_glide_gridfile>  (296) 
pfpi4k_grid

>  <i_i_glide_lignum>  (296) 
9

>  <i_i_glide_rotatable_bonds>  (296) 
2

>  <r_i_docking_score>  (296) 
-2.56661

>  <r_i_glide_ligand_efficiency>  (296) 
-0.0885039

>  <r_i_glide_ligand_efficiency_sa>  (296) 
-0.271912

>  <r_i_glide_ligand_efficiency_ln>  (296) 
-0.587689

>  <r_i_glide_gscore>  (296) 
-2.56661

>  <r_i_glide_lipo>  (296) 
-0.224413

>  <r_i_glide_hbond>  (296) 
-0.206789

>  <r_i_glide_metal>  (296) 
-0

>  <r_i_glide_rewards>  (296) 
-0.809264

>  <r_i_glide_evdw>  (296) 
-18.6979

>  <r_i_glide_ecoul>  (296) 
-2.60834

>  <r_i_glide_erotb>  (296) 
0

>  <r_i_glide_esite>  (296) 
0

>  <r_i_glide_emodel>  (296) 
-19.6806

>  <r_i_glide_energy>  (296) 
-21.3062

>  <r_i_glide_einternal>  (296) 
7.75293

>  <r_i_glide_intrahb_reward>  (296) 
-0

>  <i_i_glide_confnum>  (296) 
1

>  <i_i_glide_posenum>  (296) 
30

>  <r_i_glide_eff_state_penalty>  (296) 
0

>  <ligand_id>  (296) 
83

>  <original_smiles>  (296) 
COc1ccc2c3c1OC1C4(OC)CC(=O)C5CC4CCC54C(CC314)N(C)CC2

>  <smiles>  (296) 
[H]c1c([H])c2c3c(c1OC([H])([H])[H])OC1([H])C4(OC([H])([H])[H])C([H])([H])C(=O)C5([H])C([H])([H])C4([H])C([H])([H])C([H])([H])C54C31C([H])([H])C4([H])[N+]([H])(C([H])([H])[H])C([H])([H])C2([H])[H]

$$$$
83:0:2
     RDKit          3D

 59 65  0  0  1  0  0  0  0  0999 V2000
    0.4582   -3.8899   -1.5530 C   0  0  0  0  0  0  0  0  0  0  0  0
    1.3949   -3.4368   -2.5078 O   0  0  0  0  0  0  0  0  0  0  0  0
    2.6605   -3.1482   -2.0919 C   0  0  0  0  0  0  0  0  0  0  0  0
    3.4121   -2.3482   -2.9621 C   0  0  0  0  0  0  0  0  0  0  0  0
    4.6704   -1.8963   -2.5539 C   0  0  0  0  0  0  0  0  0  0  0  0
    5.1984   -2.3013   -1.3063 C   0  0  0  0  0  0  0  0  0  0  0  0
    4.4142   -3.1503   -0.4931 C   0  0  0  0  0  0  0  0  0  0  0  0
    3.1841   -3.6075   -0.8780 C   0  0  0  0  0  0  0  0  0  0  0  0
    2.6121   -4.3955    0.0942 O   0  0  0  0  0  0  0  0  0  0  0  0
    3.1825   -4.0935    1.3637 C   0  0  1  0  0  0  0  0  0  0  0  0
    2.8083   -3.0123    2.5212 C   0  0  2  0  0  0  0  0  0  0  0  0
    1.4011   -3.0692    2.8856 O   0  0  0  0  0  0  0  0  0  0  0  0
    0.8009   -1.9406    3.5566 C   0  0  0  0  0  0  0  0  0  0  0  0
    3.1658   -1.5600    2.0146 C   0  0  0  0  0  0  0  0  0  0  0  0
    4.6734   -1.3137    1.9989 C   0  0  0  0  0  0  0  0  0  0  0  0
    5.1503   -0.2787    1.5449 O   0  0  0  0  0  0  0  0  0  0  0  0
    5.5292   -2.3491    2.7554 C   0  0  1  0  0  0  0  0  0  0  0  0
    4.7782   -2.4238    4.1090 C   0  0  0  0  0  0  0  0  0  0  0  0
    3.5376   -3.3210    3.8871 C   0  0  2  0  0  0  0  0  0  0  0  0
    4.0149   -4.7607    3.9532 C   0  0  0  0  0  0  0  0  0  0  0  0
    5.3471   -4.8529    3.2060 C   0  0  0  0  0  0  0  0  0  0  0  0
    5.5910   -3.7728    2.0770 C   0  0  2  0  0  0  0  0  0  0  0  0
    6.7299   -4.3752    1.2159 C   0  0  1  0  0  0  0  0  0  0  0  0
    5.6084   -5.0272    0.3673 C   0  0  0  0  0  0  0  0  0  0  0  0
    4.6561   -3.8998    0.8312 C   0  0  2  0  0  0  0  0  0  0  0  0
    7.7248   -3.4388    0.6269 N   0  0  1  0  0  0  0  0  0  0  0  0
    9.1057   -3.8825    0.8897 C   0  0  0  0  0  0  0  0  0  0  0  0
    7.5653   -3.0551   -0.7758 C   0  0  0  0  0  0  0  0  0  0  0  0
    6.5643   -1.9379   -0.8547 C   0  0  0  0  0  0  0  0  0  0  0  0
   -0.5236   -4.1564   -1.8928 H   0  0  0  0  0  0  0  0  0  0  0  0
    0.1244   -3.0138   -1.1162 H   0  0  0  0  0  0  0  0  0  0  0  0
    0.6660   -4.7279   -0.8893 H   0  0  0  0  0  0  0  0  0  0  0  0
    3.0100   -2.0841   -3.9288 H   0  0  0  0  0  0  0  0  0  0  0  0
    5.1963   -1.2291   -3.2250 H   0  0  0  0  0  0  0  0  0  0  0  0
    2.3399   -3.4699    1.0706 H   0  0  0  0  0  0  0  0  0  0  0  0
   -0.2410   -2.1325    3.8103 H   0  0  0  0  0  0  0  0  0  0  0  0
    0.7690   -1.0424    2.9396 H   0  0  0  0  0  0  0  0  0  0  0  0
    1.3172   -1.6837    4.4813 H   0  0  0  0  0  0  0  0  0  0  0  0
    2.7157   -1.3612    1.0332 H   0  0  0  0  0  0  0  0  0  0  0  0
    2.8312   -0.7795    2.6935 H   0  0  0  0  0  0  0  0  0  0  0  0
    6.5125   -1.9102    2.8764 H   0  0  0  0  0  0  0  0  0  0  0  0
    5.4094   -2.8195    4.9055 H   0  0  0  0  0  0  0  0  0  0  0  0
    4.4547   -1.4437    4.4635 H   0  0  0  0  0  0  0  0  0  0  0  0
    2.8603   -3.1992    4.7328 H   0  0  0  0  0  0  0  0  0  0  0  0
    4.1648   -5.0627    4.9874 H   0  0  0  0  0  0  0  0  0  0  0  0
    3.2642   -5.4524    3.5645 H   0  0  0  0  0  0  0  0  0  0  0  0
    6.1526   -4.7855    3.9356 H   0  0  0  0  0  0  0  0  0  0  0  0
    5.4187   -5.8779    2.8488 H   0  0  0  0  0  0  0  0  0  0  0  0
    7.2560   -5.1553    1.7699 H   0  0  0  0  0  0  0  0  0  0  0  0
    5.7796   -5.1408   -0.7045 H   0  0  0  0  0  0  0  0  0  0  0  0
    5.2895   -5.9929    0.7513 H   0  0  0  0  0  0  0  0  0  0  0  0
    9.3261   -4.8019    0.3382 H   0  0  0  0  0  0  0  0  0  0  0  0
    9.2650   -4.0775    1.9536 H   0  0  0  0  0  0  0  0  0  0  0  0
    9.8276   -3.1144    0.5935 H   0  0  0  0  0  0  0  0  0  0  0  0
    8.5123   -2.6301   -1.1282 H   0  0  0  0  0  0  0  0  0  0  0  0
    7.3600   -3.8607   -1.4739 H   0  0  0  0  0  0  0  0  0  0  0  0
    6.8540   -1.4688   -1.7844 H   0  0  0  0  0  0  0  0  0  0  0  0
    6.6279   -1.1951   -0.0549 H   0  0  0  0  0  0  0  0  0  0  0  0
    7.6293   -2.5766    1.1467 H   0  0  0  0  0  0  0  0  0  0  0  0
  1  2  1  0
  1 30  1  0
  1 31  1  0
  1 32  1  0
  2  3  1  0
  3  8  2  0
  3  4  1  0
  4  5  2  0
  4 33  1  0
  5  6  1  0
  5 34  1  0
  6 29  1  0
  6  7  2  0
  7 25  1  0
  7  8  1  0
  8  9  1  0
  9 10  1  0
 10 25  1  0
 10 11  1  0
 10 35  1  1
 11 19  1  0
 11 12  1  1
 11 14  1  0
 12 13  1  0
 13 36  1  0
 13 37  1  0
 13 38  1  0
 14 15  1  0
 14 39  1  0
 14 40  1  0
 15 16  2  0
 15 17  1  0
 17 22  1  0
 17 18  1  0
 17 41  1  1
 18 19  1  0
 18 42  1  0
 18 43  1  0
 19 20  1  0
 19 44  1  1
 20 21  1  0
 20 45  1  0
 20 46  1  0
 22 21  1  1
 21 47  1  0
 21 48  1  0
 22 25  1  0
 22 23  1  0
 23 24  1  0
 23 26  1  0
 23 49  1  1
 25 24  1  6
 24 50  1  0
 24 51  1  0
 26 27  1  0
 26 28  1  0
 26 59  1  1
 27 52  1  0
 27 53  1  0
 27 54  1  0
 28 29  1  0
 28 55  1  0
 28 56  1  0
 29 57  1  0
 29 58  1  0
M  CHG  1  26   1
M  END
>  <i_m_ct_stereo_status>  (297) 
1

>  <s_m_source_file>  (297) 
/var/tmp/pbs.5076255.sched01/tmpulc5pjk6/123bob0etdf.sdf

>  <i_m_source_file_index>  (297) 
9

>  <i_lp_mmshare_version>  (297) 
48012

>  <i_f3d_flags>  (297) 
0

>  <s_epik_input>  (297) 
W0NIMl0xW0NASF0yTihbQ0gzXSlbQ0gyXVtDSDJdYyhjM1tDQF0xNFtDQEBdMjU2KVtjSF1bY0hdYyhPW0NIM10pYzNPW0NASF00W0NAQF03KE9bQ0gzXSlbQ0BASF0oW0NIMl1bQ0gyXTYpW0NIMl1bQ0BASF01Qyg9TylbQ0gyXTc=

>  <s_epik_cmdline>  (297) 
J2VwaWtfcHl0aG9uJywgJy1waHQnLCAnMi4wJywgJy1waCcsICc3LjAnLCAnLXRuJywgJzgnLCAnLW1hJywgJzIwMCcsICctaW1hZScsICc8aW5maWxlLm1hZT4nLCAnLW9tYWUnLCAnPG91dGZpbGUubWFlPic=

>  <r_lp_tautomer_probability>  (297) 
1

>  <r_epik_Ionization_Penalty>  (297) 
0.020447

>  <r_epik_Ionization_Penalty_Charging>  (297) 
0.020447

>  <r_epik_Ionization_Penalty_Neutral>  (297) 
5.89513e-12

>  <r_epik_State_Penalty>  (297) 
0.016389

>  <r_epik_Charging_Adjusted_Penalty>  (297) 
0.036836

>  <i_epik_Tot_Q>  (297) 
1

>  <i_epik_Tot_abs_Q>  (297) 
1

>  <s_lp_Force_Field>  (297) 
OPLS3e

>  <r_lp_Energy>  (297) 
202.797

>  <b_lp_Chiralities_Consistent>  (297) 
1

>  <s_lp_Variant>  (297) 
83:0-1

>  <s_i_glide_gridfile>  (297) 
pfpi4k_grid

>  <i_i_glide_lignum>  (297) 
9

>  <i_i_glide_rotatable_bonds>  (297) 
2

>  <r_i_docking_score>  (297) 
-1.12631

>  <r_i_glide_ligand_efficiency>  (297) 
-0.0388383

>  <r_i_glide_ligand_efficiency_sa>  (297) 
-0.119324

>  <r_i_glide_ligand_efficiency_ln>  (297) 
-0.257897

>  <r_i_glide_gscore>  (297) 
-1.12631

>  <r_i_glide_lipo>  (297) 
-0.573179

>  <r_i_glide_hbond>  (297) 
-0.116882

>  <r_i_glide_metal>  (297) 
-0

>  <r_i_glide_rewards>  (297) 
-0.779489

>  <r_i_glide_evdw>  (297) 
-9.55538

>  <r_i_glide_ecoul>  (297) 
4.43794

>  <r_i_glide_erotb>  (297) 
0

>  <r_i_glide_esite>  (297) 
0

>  <r_i_glide_emodel>  (297) 
7.54018

>  <r_i_glide_energy>  (297) 
-5.11744

>  <r_i_glide_einternal>  (297) 
19.782

>  <r_i_glide_intrahb_reward>  (297) 
-0

>  <i_i_glide_confnum>  (297) 
1

>  <i_i_glide_posenum>  (297) 
8

>  <r_i_glide_eff_state_penalty>  (297) 
0

>  <ligand_id>  (297) 
83

>  <original_smiles>  (297) 
COc1ccc2c3c1OC1C4(OC)CC(=O)C5CC4CCC54C(CC314)N(C)CC2

>  <smiles>  (297) 
[H]c1c([H])c2c3c(c1OC([H])([H])[H])OC1([H])C4(OC([H])([H])[H])C([H])([H])C(=O)C5([H])C([H])([H])C4([H])C([H])([H])C([H])([H])C54C31C([H])([H])C4([H])[N+]([H])(C([H])([H])[H])C([H])([H])C2([H])[H]

$$$$
83:1:0
     RDKit          3D

 58 64  0  0  1  0  0  0  0  0999 V2000
    0.0512   -7.5605    1.3551 C   0  0  0  0  0  0  0  0  0  0  0  0
    0.9036   -6.5717    0.8128 O   0  0  0  0  0  0  0  0  0  0  0  0
    1.8796   -6.0572    1.6317 C   0  0  0  0  0  0  0  0  0  0  0  0
    2.3443   -6.6774    2.8159 C   0  0  0  0  0  0  0  0  0  0  0  0
    3.3310   -6.0541    3.6112 C   0  0  0  0  0  0  0  0  0  0  0  0
    3.8625   -4.7934    3.2554 C   0  0  0  0  0  0  0  0  0  0  0  0
    3.3956   -4.2242    2.0387 C   0  0  0  0  0  0  0  0  0  0  0  0
    2.4557   -4.8389    1.2347 C   0  0  0  0  0  0  0  0  0  0  0  0
    2.2095   -4.1620    0.0591 O   0  0  0  0  0  0  0  0  0  0  0  0
    3.2604   -3.2099   -0.1584 C   0  0  1  0  0  0  0  0  0  0  0  0
    4.6180   -3.2980   -1.0414 C   0  0  2  0  0  0  0  0  0  0  0  0
    4.4251   -3.8217   -2.3703 O   0  0  0  0  0  0  0  0  0  0  0  0
    3.3707   -3.2649   -3.1522 C   0  0  0  0  0  0  0  0  0  0  0  0
    5.6086   -4.3084   -0.3513 C   0  0  0  0  0  0  0  0  0  0  0  0
    6.2839   -3.7265    0.8988 C   0  0  0  0  0  0  0  0  0  0  0  0
    6.9710   -4.4209    1.6386 O   0  0  0  0  0  0  0  0  0  0  0  0
    6.1603   -2.2028    1.0682 C   0  0  1  0  0  0  0  0  0  0  0  0
    6.6104   -1.7467   -0.3348 C   0  0  0  0  0  0  0  0  0  0  0  0
    5.3986   -1.9438   -1.2866 C   0  0  2  0  0  0  0  0  0  0  0  0
    4.4804   -0.7503   -1.0755 C   0  0  0  0  0  0  0  0  0  0  0  0
    4.4328   -0.4538    0.4279 C   0  0  0  0  0  0  0  0  0  0  0  0
    4.6924   -1.7061    1.3629 C   0  0  2  0  0  0  0  0  0  0  0  0
    4.1371   -1.3181    2.7396 C   0  0  1  0  0  0  0  0  0  0  0  0
    2.7882   -1.8947    2.2360 C   0  0  0  0  0  0  0  0  0  0  0  0
    3.6024   -2.8496    1.3408 C   0  0  2  0  0  0  0  0  0  0  0  0
    4.8492   -1.6370    3.9910 N   0  0  0  0  0  0  0  0  0  0  0  0
    4.9752   -0.4743    4.8612 C   0  0  0  0  0  0  0  0  0  0  0  0
    4.3053   -2.7537    4.7384 C   0  0  0  0  0  0  0  0  0  0  0  0
    4.8344   -4.0437    4.1443 C   0  0  0  0  0  0  0  0  0  0  0  0
   -0.6590   -7.8566    0.5873 H   0  0  0  0  0  0  0  0  0  0  0  0
   -0.5168   -7.1643    2.1967 H   0  0  0  0  0  0  0  0  0  0  0  0
    0.5829   -8.4581    1.6728 H   0  0  0  0  0  0  0  0  0  0  0  0
    1.9552   -7.6201    3.1520 H   0  0  0  0  0  0  0  0  0  0  0  0
    3.6653   -6.5468    4.5103 H   0  0  0  0  0  0  0  0  0  0  0  0
    3.4272   -4.2062   -0.5457 H   0  0  0  0  0  0  0  0  0  0  0  0
    3.3000   -3.8202   -4.0875 H   0  0  0  0  0  0  0  0  0  0  0  0
    3.5557   -2.2220   -3.4064 H   0  0  0  0  0  0  0  0  0  0  0  0
    2.3998   -3.3451   -2.6635 H   0  0  0  0  0  0  0  0  0  0  0  0
    5.1220   -5.2541   -0.0900 H   0  0  0  0  0  0  0  0  0  0  0  0
    6.3904   -4.5396   -1.0513 H   0  0  0  0  0  0  0  0  0  0  0  0
    6.8589   -1.8564    1.8256 H   0  0  0  0  0  0  0  0  0  0  0  0
    6.9329   -0.7105   -0.2965 H   0  0  0  0  0  0  0  0  0  0  0  0
    7.4777   -2.3053   -0.6934 H   0  0  0  0  0  0  0  0  0  0  0  0
    5.7711   -1.9248   -2.3129 H   0  0  0  0  0  0  0  0  0  0  0  0
    4.8441    0.1047   -1.6393 H   0  0  0  0  0  0  0  0  0  0  0  0
    3.4842   -0.9458   -1.4686 H   0  0  0  0  0  0  0  0  0  0  0  0
    5.1719    0.3177    0.6562 H   0  0  0  0  0  0  0  0  0  0  0  0
    3.4871    0.0528    0.6122 H   0  0  0  0  0  0  0  0  0  0  0  0
    4.0118   -0.2367    2.7625 H   0  0  0  0  0  0  0  0  0  0  0  0
    2.1521   -2.3488    2.9994 H   0  0  0  0  0  0  0  0  0  0  0  0
    2.1813   -1.1984    1.6549 H   0  0  0  0  0  0  0  0  0  0  0  0
    5.6040   -0.7106    5.7215 H   0  0  0  0  0  0  0  0  0  0  0  0
    4.0036   -0.1432    5.2313 H   0  0  0  0  0  0  0  0  0  0  0  0
    5.4528    0.3542    4.3367 H   0  0  0  0  0  0  0  0  0  0  0  0
    4.6933   -2.6948    5.7554 H   0  0  0  0  0  0  0  0  0  0  0  0
    3.2223   -2.7424    4.8337 H   0  0  0  0  0  0  0  0  0  0  0  0
    5.0059   -4.6946    4.9942 H   0  0  0  0  0  0  0  0  0  0  0  0
    5.8205   -3.9322    3.7170 H   0  0  0  0  0  0  0  0  0  0  0  0
  1  2  1  0
  1 30  1  0
  1 31  1  0
  1 32  1  0
  2  3  1  0
  3  8  2  0
  3  4  1  0
  4  5  2  0
  4 33  1  0
  5  6  1  0
  5 34  1  0
  6 29  1  0
  6  7  2  0
  7 25  1  0
  7  8  1  0
  8  9  1  0
  9 10  1  0
 10 25  1  0
 10 11  1  0
 10 35  1  6
 11 19  1  0
 11 12  1  6
 11 14  1  0
 12 13  1  0
 13 36  1  0
 13 37  1  0
 13 38  1  0
 14 15  1  0
 14 39  1  0
 14 40  1  0
 15 16  2  0
 15 17  1  0
 17 22  1  0
 17 18  1  0
 17 41  1  1
 18 19  1  0
 18 42  1  0
 18 43  1  0
 19 20  1  0
 19 44  1  6
 20 21  1  0
 20 45  1  0
 20 46  1  0
 22 21  1  6
 21 47  1  0
 21 48  1  0
 22 25  1  0
 22 23  1  0
 23 24  1  0
 23 26  1  0
 23 49  1  6
 25 24  1  1
 24 50  1  0
 24 51  1  0
 26 27  1  0
 26 28  1  0
 27 52  1  0
 27 53  1  0
 27 54  1  0
 28 29  1  0
 28 55  1  0
 28 56  1  0
 29 57  1  0
 29 58  1  0
M  END
>  <i_m_ct_stereo_status>  (298) 
1

>  <s_m_source_file>  (298) 
/var/tmp/pbs.5076255.sched01/tmpulc5pjk6/123bob0etdf.sdf

>  <i_m_source_file_index>  (298) 
10

>  <i_lp_mmshare_version>  (298) 
48012

>  <i_f3d_flags>  (298) 
0

>  <s_epik_input>  (298) 
W0NIMl0xW0NASF0yTihbQ0gzXSlbQ0gyXVtDSDJdYyhjM1tDQF0xNFtDQEBdMjU2KVtjSF1bY0hdYyhPW0NIM10pYzNPW0NASF00W0NAQF03KE9bQ0gzXSlbQ0BASF0oW0NIMl1bQ0gyXTYpW0NIMl1bQ0BASF01Qyg9TylbQ0gyXTc=

>  <s_epik_cmdline>  (298) 
J2VwaWtfcHl0aG9uJywgJy1waHQnLCAnMi4wJywgJy1waCcsICc3LjAnLCAnLXRuJywgJzgnLCAnLW1hJywgJzIwMCcsICctaW1hZScsICc8aW5maWxlLm1hZT4nLCAnLW9tYWUnLCAnPG91dGZpbGUubWFlPic=

>  <r_lp_tautomer_probability>  (298) 
1

>  <r_epik_Ionization_Penalty>  (298) 
2.00479

>  <r_epik_Ionization_Penalty_Charging>  (298) 
0

>  <r_epik_Ionization_Penalty_Neutral>  (298) 
2.00479

>  <r_epik_State_Penalty>  (298) 
2.13384

>  <r_epik_Charging_Adjusted_Penalty>  (298) 
2.13384

>  <i_epik_Tot_Q>  (298) 
0

>  <i_epik_Tot_abs_Q>  (298) 
0

>  <s_lp_Force_Field>  (298) 
OPLS3e

>  <r_lp_Energy>  (298) 
194.896

>  <b_lp_Chiralities_Consistent>  (298) 
1

>  <s_lp_Variant>  (298) 
83:0-2

>  <s_i_glide_gridfile>  (298) 
pfpi4k_grid

>  <i_i_glide_lignum>  (298) 
10

>  <i_i_glide_rotatable_bonds>  (298) 
2

>  <r_i_docking_score>  (298) 
-2.71029

>  <r_i_glide_ligand_efficiency>  (298) 
-0.0934584

>  <r_i_glide_ligand_efficiency_sa>  (298) 
-0.287134

>  <r_i_glide_ligand_efficiency_ln>  (298) 
-0.620588

>  <r_i_glide_gscore>  (298) 
-2.71029

>  <r_i_glide_lipo>  (298) 
-0.499272

>  <r_i_glide_hbond>  (298) 
-0.109552

>  <r_i_glide_metal>  (298) 
-0

>  <r_i_glide_rewards>  (298) 
-0.832303

>  <r_i_glide_evdw>  (298) 
-22.0005

>  <r_i_glide_ecoul>  (298) 
-1.12761

>  <r_i_glide_erotb>  (298) 
0

>  <r_i_glide_esite>  (298) 
0

>  <r_i_glide_emodel>  (298) 
-25.9391

>  <r_i_glide_energy>  (298) 
-23.1281

>  <r_i_glide_einternal>  (298) 
0.83594

>  <r_i_glide_intrahb_reward>  (298) 
-0

>  <i_i_glide_confnum>  (298) 
2

>  <i_i_glide_posenum>  (298) 
37

>  <r_i_glide_eff_state_penalty>  (298) 
0

>  <ligand_id>  (298) 
83

>  <original_smiles>  (298) 
COc1ccc2c3c1OC1C4(OC)CC(=O)C5CC4CCC54C(CC314)N(C)CC2

>  <smiles>  (298) 
[H]c1c([H])c2c3c(c1OC([H])([H])[H])OC1([H])C4(OC([H])([H])[H])C([H])([H])C(=O)C5([H])C([H])([H])C4([H])C([H])([H])C([H])([H])C54C([H])(N(C([H])([H])[H])C([H])([H])C2([H])[H])C([H])([H])C314

$$$$
83:1:1
     RDKit          3D

 58 64  0  0  1  0  0  0  0  0999 V2000
   -0.0967   -7.6091    1.3114 C   0  0  0  0  0  0  0  0  0  0  0  0
    0.7797   -6.8264    0.5281 O   0  0  0  0  0  0  0  0  0  0  0  0
    1.8827   -6.3113    1.1603 C   0  0  0  0  0  0  0  0  0  0  0  0
    2.5916   -6.9608    2.1946 C   0  0  0  0  0  0  0  0  0  0  0  0
    3.6960   -6.3163    2.8066 C   0  0  0  0  0  0  0  0  0  0  0  0
    4.1011   -5.0234    2.4148 C   0  0  0  0  0  0  0  0  0  0  0  0
    3.3706   -4.4415    1.3294 C   0  0  0  0  0  0  0  0  0  0  0  0
    2.3283   -5.0635    0.6729 C   0  0  0  0  0  0  0  0  0  0  0  0
    1.8373   -4.3755   -0.3907 O   0  0  0  0  0  0  0  0  0  0  0  0
    2.7547   -3.3412   -0.7647 C   0  0  1  0  0  0  0  0  0  0  0  0
    3.9161   -3.3162   -1.8960 C   0  0  2  0  0  0  0  0  0  0  0  0
    3.5093   -3.7279   -3.2155 O   0  0  0  0  0  0  0  0  0  0  0  0
    2.3191   -3.1655   -3.7544 C   0  0  0  0  0  0  0  0  0  0  0  0
    5.0768   -4.2989   -1.4715 C   0  0  0  0  0  0  0  0  0  0  0  0
    5.9481   -3.7313   -0.3359 C   0  0  0  0  0  0  0  0  0  0  0  0
    6.8048   -4.4078    0.2379 O   0  0  0  0  0  0  0  0  0  0  0  0
    5.7850   -2.2332   -0.0724 C   0  0  1  0  0  0  0  0  0  0  0  0
    5.9083   -1.6975   -1.5134 C   0  0  0  0  0  0  0  0  0  0  0  0
    4.5617   -1.9314   -2.2180 C   0  0  2  0  0  0  0  0  0  0  0  0
    3.6659   -0.8005   -1.7723 C   0  0  0  0  0  0  0  0  0  0  0  0
    3.8850   -0.6046   -0.2594 C   0  0  0  0  0  0  0  0  0  0  0  0
    4.3847   -1.8470    0.5401 C   0  0  2  0  0  0  0  0  0  0  0  0
    4.0972   -1.5317    2.0140 C   0  0  1  0  0  0  0  0  0  0  0  0
    2.7052   -2.1679    1.7636 C   0  0  0  0  0  0  0  0  0  0  0  0
    3.3699   -3.0344    0.6702 C   0  0  2  0  0  0  0  0  0  0  0  0
    5.0592   -1.8339    3.0885 N   0  0  0  0  0  0  0  0  0  0  0  0
    5.2864   -0.6936    3.9626 C   0  0  0  0  0  0  0  0  0  0  0  0
    4.7313   -3.0115    3.8666 C   0  0  0  0  0  0  0  0  0  0  0  0
    5.1939   -4.2362    3.1071 C   0  0  0  0  0  0  0  0  0  0  0  0
   -0.9248   -7.9121    0.6726 H   0  0  0  0  0  0  0  0  0  0  0  0
   -0.5251   -7.0138    2.1139 H   0  0  0  0  0  0  0  0  0  0  0  0
    0.3606   -8.5068    1.7214 H   0  0  0  0  0  0  0  0  0  0  0  0
    2.3137   -7.9364    2.5320 H   0  0  0  0  0  0  0  0  0  0  0  0
    4.2334   -6.8349    3.5864 H   0  0  0  0  0  0  0  0  0  0  0  0
    2.8997   -4.2934   -1.2314 H   0  0  0  0  0  0  0  0  0  0  0  0
    2.0556   -3.7147   -4.6585 H   0  0  0  0  0  0  0  0  0  0  0  0
    2.4588   -2.1240   -4.0433 H   0  0  0  0  0  0  0  0  0  0  0  0
    1.4707   -3.2366   -3.0745 H   0  0  0  0  0  0  0  0  0  0  0  0
    4.6780   -5.2715   -1.1539 H   0  0  0  0  0  0  0  0  0  0  0  0
    5.7120   -4.4803   -2.3305 H   0  0  0  0  0  0  0  0  0  0  0  0
    6.6017   -1.8692    0.5553 H   0  0  0  0  0  0  0  0  0  0  0  0
    6.0759   -0.6353   -1.5248 H   0  0  0  0  0  0  0  0  0  0  0  0
    6.7270   -2.1720   -2.0660 H   0  0  0  0  0  0  0  0  0  0  0  0
    4.7397   -1.8327   -3.2975 H   0  0  0  0  0  0  0  0  0  0  0  0
    3.9270    0.1000   -2.3243 H   0  0  0  0  0  0  0  0  0  0  0  0
    2.6178   -1.0198   -1.9972 H   0  0  0  0  0  0  0  0  0  0  0  0
    4.6096    0.1945   -0.0994 H   0  0  0  0  0  0  0  0  0  0  0  0
    2.9545   -0.1970    0.1340 H   0  0  0  0  0  0  0  0  0  0  0  0
    3.9285   -0.4509    2.1034 H   0  0  0  0  0  0  0  0  0  0  0  0
    2.2587   -2.6829    2.6160 H   0  0  0  0  0  0  0  0  0  0  0  0
    1.9546   -1.4848    1.3580 H   0  0  0  0  0  0  0  0  0  0  0  0
    6.0712   -0.9081    4.6875 H   0  0  0  0  0  0  0  0  0  0  0  0
    4.3897   -0.4311    4.5233 H   0  0  0  0  0  0  0  0  0  0  0  0
    5.6166    0.1725    3.3898 H   0  0  0  0  0  0  0  0  0  0  0  0
    5.3152   -2.9659    4.7867 H   0  0  0  0  0  0  0  0  0  0  0  0
    3.6943   -3.0662    4.1764 H   0  0  0  0  0  0  0  0  0  0  0  0
    5.5689   -4.9114    3.8788 H   0  0  0  0  0  0  0  0  0  0  0  0
    6.0738   -4.0553    2.5052 H   0  0  0  0  0  0  0  0  0  0  0  0
  1  2  1  0
  1 30  1  0
  1 31  1  0
  1 32  1  0
  2  3  1  0
  3  8  2  0
  3  4  1  0
  4  5  2  0
  4 33  1  0
  5  6  1  0
  5 34  1  0
  6 29  1  0
  6  7  2  0
  7 25  1  0
  7  8  1  0
  8  9  1  0
  9 10  1  0
 10 25  1  0
 10 11  1  0
 10 35  1  6
 11 19  1  0
 11 12  1  6
 11 14  1  0
 12 13  1  0
 13 36  1  0
 13 37  1  0
 13 38  1  0
 14 15  1  0
 14 39  1  0
 14 40  1  0
 15 16  2  0
 15 17  1  0
 17 22  1  0
 17 18  1  0
 17 41  1  1
 18 19  1  0
 18 42  1  0
 18 43  1  0
 19 20  1  0
 19 44  1  6
 20 21  1  0
 20 45  1  0
 20 46  1  0
 22 21  1  6
 21 47  1  0
 21 48  1  0
 22 25  1  0
 22 23  1  0
 23 24  1  0
 23 26  1  0
 23 49  1  6
 25 24  1  1
 24 50  1  0
 24 51  1  0
 26 27  1  0
 26 28  1  0
 27 52  1  0
 27 53  1  0
 27 54  1  0
 28 29  1  0
 28 55  1  0
 28 56  1  0
 29 57  1  0
 29 58  1  0
M  END
>  <i_m_ct_stereo_status>  (299) 
1

>  <s_m_source_file>  (299) 
/var/tmp/pbs.5076255.sched01/tmpulc5pjk6/123bob0etdf.sdf

>  <i_m_source_file_index>  (299) 
10

>  <i_lp_mmshare_version>  (299) 
48012

>  <i_f3d_flags>  (299) 
0

>  <s_epik_input>  (299) 
W0NIMl0xW0NASF0yTihbQ0gzXSlbQ0gyXVtDSDJdYyhjM1tDQF0xNFtDQEBdMjU2KVtjSF1bY0hdYyhPW0NIM10pYzNPW0NASF00W0NAQF03KE9bQ0gzXSlbQ0BASF0oW0NIMl1bQ0gyXTYpW0NIMl1bQ0BASF01Qyg9TylbQ0gyXTc=

>  <s_epik_cmdline>  (299) 
J2VwaWtfcHl0aG9uJywgJy1waHQnLCAnMi4wJywgJy1waCcsICc3LjAnLCAnLXRuJywgJzgnLCAnLW1hJywgJzIwMCcsICctaW1hZScsICc8aW5maWxlLm1hZT4nLCAnLW9tYWUnLCAnPG91dGZpbGUubWFlPic=

>  <r_lp_tautomer_probability>  (299) 
1

>  <r_epik_Ionization_Penalty>  (299) 
2.00479

>  <r_epik_Ionization_Penalty_Charging>  (299) 
0

>  <r_epik_Ionization_Penalty_Neutral>  (299) 
2.00479

>  <r_epik_State_Penalty>  (299) 
2.13384

>  <r_epik_Charging_Adjusted_Penalty>  (299) 
2.13384

>  <i_epik_Tot_Q>  (299) 
0

>  <i_epik_Tot_abs_Q>  (299) 
0

>  <s_lp_Force_Field>  (299) 
OPLS3e

>  <r_lp_Energy>  (299) 
194.896

>  <b_lp_Chiralities_Consistent>  (299) 
1

>  <s_lp_Variant>  (299) 
83:0-2

>  <s_i_glide_gridfile>  (299) 
pfpi4k_grid

>  <i_i_glide_lignum>  (299) 
10

>  <i_i_glide_rotatable_bonds>  (299) 
2

>  <r_i_docking_score>  (299) 
-2.61235

>  <r_i_glide_ligand_efficiency>  (299) 
-0.090081

>  <r_i_glide_ligand_efficiency_sa>  (299) 
-0.276757

>  <r_i_glide_ligand_efficiency_ln>  (299) 
-0.598162

>  <r_i_glide_gscore>  (299) 
-2.61235

>  <r_i_glide_lipo>  (299) 
-0.335717

>  <r_i_glide_hbond>  (299) 
-0.0930474

>  <r_i_glide_metal>  (299) 
-0

>  <r_i_glide_rewards>  (299) 
-0.797867

>  <r_i_glide_evdw>  (299) 
-20.6545

>  <r_i_glide_ecoul>  (299) 
-2.35327

>  <r_i_glide_erotb>  (299) 
0

>  <r_i_glide_esite>  (299) 
0

>  <r_i_glide_emodel>  (299) 
-24.6236

>  <r_i_glide_energy>  (299) 
-23.0078

>  <r_i_glide_einternal>  (299) 
2.39842

>  <r_i_glide_intrahb_reward>  (299) 
-0

>  <i_i_glide_confnum>  (299) 
1

>  <i_i_glide_posenum>  (299) 
36

>  <r_i_glide_eff_state_penalty>  (299) 
0

>  <ligand_id>  (299) 
83

>  <original_smiles>  (299) 
COc1ccc2c3c1OC1C4(OC)CC(=O)C5CC4CCC54C(CC314)N(C)CC2

>  <smiles>  (299) 
[H]c1c([H])c2c3c(c1OC([H])([H])[H])OC1([H])C4(OC([H])([H])[H])C([H])([H])C(=O)C5([H])C([H])([H])C4([H])C([H])([H])C([H])([H])C54C([H])(N(C([H])([H])[H])C([H])([H])C2([H])[H])C([H])([H])C314

$$$$
83:1:2
     RDKit          3D

 58 64  0  0  1  0  0  0  0  0999 V2000
   -0.1694   -7.6905    1.3401 C   0  0  0  0  0  0  0  0  0  0  0  0
    0.8037   -6.8816    0.7160 O   0  0  0  0  0  0  0  0  0  0  0  0
    1.8817   -6.5176    1.4889 C   0  0  0  0  0  0  0  0  0  0  0  0
    2.4613   -7.3267    2.4803 C   0  0  0  0  0  0  0  0  0  0  0  0
    3.5470   -6.8383    3.2461 C   0  0  0  0  0  0  0  0  0  0  0  0
    4.0507   -5.5390    3.0412 C   0  0  0  0  0  0  0  0  0  0  0  0
    3.4762   -4.7789    1.9946 C   0  0  0  0  0  0  0  0  0  0  0  0
    2.4356   -5.2643    1.2033 C   0  0  0  0  0  0  0  0  0  0  0  0
    2.1037   -4.4405    0.1695 O   0  0  0  0  0  0  0  0  0  0  0  0
    3.1170   -3.4301    0.0018 C   0  0  1  0  0  0  0  0  0  0  0  0
    4.3791   -3.3490   -1.0188 C   0  0  2  0  0  0  0  0  0  0  0  0
    3.9241   -3.4823   -2.3944 O   0  0  0  0  0  0  0  0  0  0  0  0
    4.8534   -3.9615   -3.3750 C   0  0  0  0  0  0  0  0  0  0  0  0
    5.4276   -4.4692   -0.5696 C   0  0  0  0  0  0  0  0  0  0  0  0
    6.2285   -4.0660    0.6816 C   0  0  0  0  0  0  0  0  0  0  0  0
    7.0189   -4.8315    1.2286 O   0  0  0  0  0  0  0  0  0  0  0  0
    6.1263   -2.5929    1.0908 C   0  0  1  0  0  0  0  0  0  0  0  0
    6.4115   -1.8996   -0.2651 C   0  0  0  0  0  0  0  0  0  0  0  0
    5.0954   -1.9334   -1.0835 C   0  0  2  0  0  0  0  0  0  0  0  0
    4.2119   -0.8100   -0.5808 C   0  0  0  0  0  0  0  0  0  0  0  0
    4.3376   -0.7834    0.9385 C   0  0  0  0  0  0  0  0  0  0  0  0
    4.6990   -2.1790    1.6216 C   0  0  2  0  0  0  0  0  0  0  0  0
    4.3038   -2.0347    3.0963 C   0  0  1  0  0  0  0  0  0  0  0  0
    2.9079   -2.5434    2.6507 C   0  0  0  0  0  0  0  0  0  0  0  0
    3.6070   -3.3178    1.5111 C   0  0  2  0  0  0  0  0  0  0  0  0
    5.1448   -2.5475    4.1855 N   0  0  0  0  0  0  0  0  0  0  0  0
    5.3956   -1.5453    5.2126 C   0  0  0  0  0  0  0  0  0  0  0  0
    4.6988   -3.7843    4.7870 C   0  0  0  0  0  0  0  0  0  0  0  0
    5.1422   -4.9339    3.9103 C   0  0  0  0  0  0  0  0  0  0  0  0
   -0.9499   -7.8663    0.6085 H   0  0  0  0  0  0  0  0  0  0  0  0
   -0.6237   -7.1697    2.1812 H   0  0  0  0  0  0  0  0  0  0  0  0
    0.2094   -8.6595    1.6749 H   0  0  0  0  0  0  0  0  0  0  0  0
    2.0997   -8.3151    2.6659 H   0  0  0  0  0  0  0  0  0  0  0  0
    3.9877   -7.4978    3.9836 H   0  0  0  0  0  0  0  0  0  0  0  0
    3.2333   -4.3396   -0.5678 H   0  0  0  0  0  0  0  0  0  0  0  0
    4.3606   -4.0402   -4.3501 H   0  0  0  0  0  0  0  0  0  0  0  0
    5.1948   -4.9566   -3.0949 H   0  0  0  0  0  0  0  0  0  0  0  0
    5.7244   -3.3093   -3.4913 H   0  0  0  0  0  0  0  0  0  0  0  0
    4.9451   -5.4507   -0.4256 H   0  0  0  0  0  0  0  0  0  0  0  0
    6.2172   -4.5681   -1.2995 H   0  0  0  0  0  0  0  0  0  0  0  0
    6.9112   -2.3568    1.8049 H   0  0  0  0  0  0  0  0  0  0  0  0
    6.7371   -0.8706   -0.1329 H   0  0  0  0  0  0  0  0  0  0  0  0
    7.2074   -2.3978   -0.8224 H   0  0  0  0  0  0  0  0  0  0  0  0
    5.3194   -1.6744   -2.1214 H   0  0  0  0  0  0  0  0  0  0  0  0
    4.5568    0.1373   -0.9967 H   0  0  0  0  0  0  0  0  0  0  0  0
    3.1862   -0.9916   -0.8950 H   0  0  0  0  0  0  0  0  0  0  0  0
    5.1130   -0.0601    1.1964 H   0  0  0  0  0  0  0  0  0  0  0  0
    3.4245   -0.3286    1.3249 H   0  0  0  0  0  0  0  0  0  0  0  0
    4.2007   -0.9720    3.3042 H   0  0  0  0  0  0  0  0  0  0  0  0
    2.3723   -3.1373    3.3965 H   0  0  0  0  0  0  0  0  0  0  0  0
    2.2455   -1.7602    2.2851 H   0  0  0  0  0  0  0  0  0  0  0  0
    6.1253   -1.9116    5.9373 H   0  0  0  0  0  0  0  0  0  0  0  0
    4.4846   -1.2865    5.7536 H   0  0  0  0  0  0  0  0  0  0  0  0
    5.8131   -0.6366    4.7765 H   0  0  0  0  0  0  0  0  0  0  0  0
    5.2163   -3.8885    5.7402 H   0  0  0  0  0  0  0  0  0  0  0  0
    3.6380   -3.8041    5.0184 H   0  0  0  0  0  0  0  0  0  0  0  0
    5.4213   -5.7108    4.6105 H   0  0  0  0  0  0  0  0  0  0  0  0
    6.0766   -4.7293    3.4057 H   0  0  0  0  0  0  0  0  0  0  0  0
  1  2  1  0
  1 30  1  0
  1 31  1  0
  1 32  1  0
  2  3  1  0
  3  8  2  0
  3  4  1  0
  4  5  2  0
  4 33  1  0
  5  6  1  0
  5 34  1  0
  6 29  1  0
  6  7  2  0
  7 25  1  0
  7  8  1  0
  8  9  1  0
  9 10  1  0
 10 25  1  0
 10 11  1  0
 10 35  1  6
 11 19  1  0
 11 12  1  6
 11 14  1  0
 12 13  1  0
 13 36  1  0
 13 37  1  0
 13 38  1  0
 14 15  1  0
 14 39  1  0
 14 40  1  0
 15 16  2  0
 15 17  1  0
 17 22  1  0
 17 18  1  0
 17 41  1  1
 18 19  1  0
 18 42  1  0
 18 43  1  0
 19 20  1  0
 19 44  1  6
 20 21  1  0
 20 45  1  0
 20 46  1  0
 22 21  1  6
 21 47  1  0
 21 48  1  0
 22 25  1  0
 22 23  1  0
 23 24  1  0
 23 26  1  0
 23 49  1  1
 25 24  1  1
 24 50  1  0
 24 51  1  0
 26 27  1  0
 26 28  1  0
 27 52  1  0
 27 53  1  0
 27 54  1  0
 28 29  1  0
 28 55  1  0
 28 56  1  0
 29 57  1  0
 29 58  1  0
M  END
>  <i_m_ct_stereo_status>  (300) 
1

>  <s_m_source_file>  (300) 
/var/tmp/pbs.5076255.sched01/tmpulc5pjk6/123bob0etdf.sdf

>  <i_m_source_file_index>  (300) 
10

>  <i_lp_mmshare_version>  (300) 
48012

>  <i_f3d_flags>  (300) 
0

>  <s_epik_input>  (300) 
W0NIMl0xW0NASF0yTihbQ0gzXSlbQ0gyXVtDSDJdYyhjM1tDQF0xNFtDQEBdMjU2KVtjSF1bY0hdYyhPW0NIM10pYzNPW0NASF00W0NAQF03KE9bQ0gzXSlbQ0BASF0oW0NIMl1bQ0gyXTYpW0NIMl1bQ0BASF01Qyg9TylbQ0gyXTc=

>  <s_epik_cmdline>  (300) 
J2VwaWtfcHl0aG9uJywgJy1waHQnLCAnMi4wJywgJy1waCcsICc3LjAnLCAnLXRuJywgJzgnLCAnLW1hJywgJzIwMCcsICctaW1hZScsICc8aW5maWxlLm1hZT4nLCAnLW9tYWUnLCAnPG91dGZpbGUubWFlPic=

>  <r_lp_tautomer_probability>  (300) 
1

>  <r_epik_Ionization_Penalty>  (300) 
2.00479

>  <r_epik_Ionization_Penalty_Charging>  (300) 
0

>  <r_epik_Ionization_Penalty_Neutral>  (300) 
2.00479

>  <r_epik_State_Penalty>  (300) 
2.13384

>  <r_epik_Charging_Adjusted_Penalty>  (300) 
2.13384

>  <i_epik_Tot_Q>  (300) 
0

>  <i_epik_Tot_abs_Q>  (300) 
0

>  <s_lp_Force_Field>  (300) 
OPLS3e

>  <r_lp_Energy>  (300) 
194.896

>  <b_lp_Chiralities_Consistent>  (300) 
1

>  <s_lp_Variant>  (300) 
83:0-2

>  <s_i_glide_gridfile>  (300) 
pfpi4k_grid

>  <i_i_glide_lignum>  (300) 
10

>  <i_i_glide_rotatable_bonds>  (300) 
2

>  <r_i_docking_score>  (300) 
-2.33385

>  <r_i_glide_ligand_efficiency>  (300) 
-0.0804775

>  <r_i_glide_ligand_efficiency_sa>  (300) 
-0.247253

>  <r_i_glide_ligand_efficiency_ln>  (300) 
-0.534392

>  <r_i_glide_gscore>  (300) 
-2.33385

>  <r_i_glide_lipo>  (300) 
-0.321157

>  <r_i_glide_hbond>  (300) 
-0.0233579

>  <r_i_glide_metal>  (300) 
-0

>  <r_i_glide_rewards>  (300) 
-0.840628

>  <r_i_glide_evdw>  (300) 
-20.2589

>  <r_i_glide_ecoul>  (300) 
-0.905077

>  <r_i_glide_erotb>  (300) 
0

>  <r_i_glide_esite>  (300) 
0

>  <r_i_glide_emodel>  (300) 
-19.4617

>  <r_i_glide_energy>  (300) 
-21.164

>  <r_i_glide_einternal>  (300) 
7.53546

>  <r_i_glide_intrahb_reward>  (300) 
-0

>  <i_i_glide_confnum>  (300) 
2

>  <i_i_glide_posenum>  (300) 
18

>  <r_i_glide_eff_state_penalty>  (300) 
0

>  <ligand_id>  (300) 
83

>  <original_smiles>  (300) 
COc1ccc2c3c1OC1C4(OC)CC(=O)C5CC4CCC54C(CC314)N(C)CC2

>  <smiles>  (300) 
[H]c1c([H])c2c3c(c1OC([H])([H])[H])OC1([H])C4(OC([H])([H])[H])C([H])([H])C(=O)C5([H])C([H])([H])C4([H])C([H])([H])C([H])([H])C54C([H])(N(C([H])([H])[H])C([H])([H])C2([H])[H])C([H])([H])C314

$$$$
84:0:0
     RDKit          3D

 86 91  0  0  1  0  0  0  0  0999 V2000
    5.6895   -7.6718    2.7291 C   0  0  0  0  0  0  0  0  0  0  0  0
    5.4634   -7.2834    4.1976 C   0  0  2  0  0  0  0  0  0  0  0  0
    6.0086   -8.3599    5.1236 C   0  0  0  0  0  0  0  0  0  0  0  0
    7.0574   -8.2118    5.7502 O   0  0  0  0  0  0  0  0  0  0  0  0
    5.2218   -9.6581    5.1919 C   0  0  0  0  0  0  0  0  0  0  0  0
    3.7485   -9.4250    4.8961 C   0  0  0  0  0  0  0  0  0  0  0  0
    3.1431   -8.2578    4.5717 C   0  0  0  0  0  0  0  0  0  0  0  0
    3.9766   -7.0270    4.5036 C   0  0  0  0  0  0  0  0  0  0  0  0
    3.4120   -5.7860    4.7467 C   0  0  0  0  0  0  0  0  0  0  0  0
    4.1914   -4.4138    4.9268 C   0  0  1  0  0  0  0  0  0  0  0  0
    4.6588   -4.3690    6.4102 C   0  0  0  0  0  0  0  0  0  0  0  0
    5.5087   -4.1574    4.1888 C   0  0  0  0  0  0  0  0  0  0  0  0
    5.4297   -4.2255    2.6821 C   0  0  0  0  0  0  0  0  0  0  0  0
    6.4273   -4.6188    2.0783 O   0  0  0  0  0  0  0  0  0  0  0  0
    4.1201   -3.7550    2.0062 C   0  0  2  0  0  0  0  0  0  0  0  0
    4.3164   -3.3393    0.4696 C   0  0  0  0  0  0  0  0  0  0  0  0
    5.1613   -4.3524   -0.3717 C   0  0  0  0  0  0  0  0  0  0  0  0
    2.9627   -3.2974   -0.2908 C   0  0  0  0  0  0  0  0  0  0  0  0
    4.9610   -1.9307    0.4286 C   0  0  0  0  0  0  0  0  0  0  0  0
    5.8921   -1.6528   -0.3353 O   0  0  0  0  0  0  0  0  0  0  0  0
    4.3849   -0.8567    1.3519 C   0  0  0  0  0  0  0  0  0  0  0  0
    4.1731   -1.3511    2.8038 C   0  0  0  0  0  0  0  0  0  0  0  0
    3.3851   -2.6956    2.9523 C   0  0  1  0  0  0  0  0  0  0  0  0
    1.9494   -2.3908    2.4288 C   0  0  0  0  0  0  0  0  0  0  0  0
    3.3705   -3.1302    4.5234 C   0  0  1  0  0  0  0  0  0  0  0  0
    2.0618   -3.1665    5.3344 C   0  0  1  0  0  0  0  0  0  0  0  0
    1.3654   -1.9410    5.4319 O   0  0  0  0  0  0  0  0  0  0  0  0
    1.1905   -4.3394    4.9112 C   0  0  0  0  0  0  0  0  0  0  0  0
    1.8694   -5.7438    5.0346 C   0  0  2  0  0  0  0  0  0  0  0  0
    1.6501   -6.1503    6.5264 C   0  0  0  0  0  0  0  0  0  0  0  0
    1.1499   -6.7656    4.0462 C   0  0  2  0  0  0  0  0  0  0  0  0
    1.4884   -6.4402    2.5581 C   0  0  0  0  0  0  0  0  0  0  0  0
   -0.3743   -6.7392    4.1580 C   0  0  0  0  0  0  0  0  0  0  0  0
   -1.1564   -7.7566    3.7719 C   0  0  0  0  0  0  0  0  0  0  0  0
   -0.5658   -8.9830    3.2202 C   0  0  0  0  0  0  0  0  0  0  0  0
   -1.2190   -9.6925    2.4614 O   0  0  0  0  0  0  0  0  0  0  0  0
    0.8836   -9.3889    3.6136 C   0  0  0  0  0  0  0  0  0  0  0  0
    0.6867  -10.6662    4.4894 C   0  0  0  0  0  0  0  0  0  0  0  0
    1.6561   -9.8026    2.3424 C   0  0  0  0  0  0  0  0  0  0  0  0
    1.6137   -8.2101    4.3954 C   0  0  1  0  0  0  0  0  0  0  0  0
    5.2194   -6.9634    2.0528 H   0  0  0  0  0  0  0  0  0  0  0  0
    5.2754   -8.6513    2.4976 H   0  0  0  0  0  0  0  0  0  0  0  0
    6.7534   -7.6975    2.4930 H   0  0  0  0  0  0  0  0  0  0  0  0
    6.0778   -6.4492    4.4452 H   0  0  0  0  0  0  0  0  0  0  0  0
    5.6331  -10.3679    4.4746 H   0  0  0  0  0  0  0  0  0  0  0  0
    5.3299  -10.0991    6.1844 H   0  0  0  0  0  0  0  0  0  0  0  0
    3.1761  -10.3235    5.0152 H   0  0  0  0  0  0  0  0  0  0  0  0
    5.1218   -3.4149    6.6743 H   0  0  0  0  0  0  0  0  0  0  0  0
    5.4008   -5.1455    6.6041 H   0  0  0  0  0  0  0  0  0  0  0  0
    3.8653   -4.5478    7.1282 H   0  0  0  0  0  0  0  0  0  0  0  0
    5.8056   -3.1317    4.4075 H   0  0  0  0  0  0  0  0  0  0  0  0
    6.3756   -4.6822    4.5749 H   0  0  0  0  0  0  0  0  0  0  0  0
    3.5168   -4.6593    2.0017 H   0  0  0  0  0  0  0  0  0  0  0  0
    4.9174   -5.3823   -0.1115 H   0  0  0  0  0  0  0  0  0  0  0  0
    6.2356   -4.2189   -0.2523 H   0  0  0  0  0  0  0  0  0  0  0  0
    5.0072   -4.2497   -1.4449 H   0  0  0  0  0  0  0  0  0  0  0  0
    2.2479   -4.0119    0.1178 H   0  0  0  0  0  0  0  0  0  0  0  0
    3.0460   -3.5301   -1.3521 H   0  0  0  0  0  0  0  0  0  0  0  0
    2.5181   -2.3073   -0.2851 H   0  0  0  0  0  0  0  0  0  0  0  0
    5.0529    0.0018    1.3488 H   0  0  0  0  0  0  0  0  0  0  0  0
    3.4556   -0.4992    0.9124 H   0  0  0  0  0  0  0  0  0  0  0  0
    5.1621   -1.4296    3.2581 H   0  0  0  0  0  0  0  0  0  0  0  0
    3.6618   -0.5657    3.3649 H   0  0  0  0  0  0  0  0  0  0  0  0
    1.2981   -1.8711    3.1139 H   0  0  0  0  0  0  0  0  0  0  0  0
    1.4377   -3.2880    2.1047 H   0  0  0  0  0  0  0  0  0  0  0  0
    1.9301   -1.7118    1.5853 H   0  0  0  0  0  0  0  0  0  0  0  0
    3.9034   -2.3114    5.0140 H   0  0  0  0  0  0  0  0  0  0  0  0
    2.3081   -3.3144    6.3816 H   0  0  0  0  0  0  0  0  0  0  0  0
    1.1867   -1.6229    4.5602 H   0  0  0  0  0  0  0  0  0  0  0  0
    0.3010   -4.3171    5.5381 H   0  0  0  0  0  0  0  0  0  0  0  0
    0.8014   -4.1692    3.9188 H   0  0  0  0  0  0  0  0  0  0  0  0
    0.6228   -6.4617    6.7150 H   0  0  0  0  0  0  0  0  0  0  0  0
    1.8471   -5.3316    7.2153 H   0  0  0  0  0  0  0  0  0  0  0  0
    2.3036   -6.9658    6.8411 H   0  0  0  0  0  0  0  0  0  0  0  0
    2.5230   -6.6578    2.2961 H   0  0  0  0  0  0  0  0  0  0  0  0
    1.3049   -5.4073    2.3014 H   0  0  0  0  0  0  0  0  0  0  0  0
    0.8746   -7.0124    1.8635 H   0  0  0  0  0  0  0  0  0  0  0  0
   -0.8457   -5.8541    4.5493 H   0  0  0  0  0  0  0  0  0  0  0  0
   -2.2351   -7.7050    3.8272 H   0  0  0  0  0  0  0  0  0  0  0  0
    1.5331  -11.3509    4.4867 H   0  0  0  0  0  0  0  0  0  0  0  0
   -0.1480  -11.2823    4.1380 H   0  0  0  0  0  0  0  0  0  0  0  0
    0.4524  -10.4240    5.5275 H   0  0  0  0  0  0  0  0  0  0  0  0
    2.5892  -10.3211    2.5632 H   0  0  0  0  0  0  0  0  0  0  0  0
    1.8993   -8.9619    1.6989 H   0  0  0  0  0  0  0  0  0  0  0  0
    1.0545  -10.4783    1.7384 H   0  0  0  0  0  0  0  0  0  0  0  0
    1.2740   -8.3781    5.4146 H   0  0  0  0  0  0  0  0  0  0  0  0
  1  2  1  0
  1 41  1  0
  1 42  1  0
  1 43  1  0
  2  8  1  0
  2  3  1  0
  2 44  1  1
  3  4  2  0
  3  5  1  0
  5  6  1  0
  5 45  1  0
  5 46  1  0
  6  7  2  0
  6 47  1  0
  7 40  1  0
  7  8  1  0
  8  9  2  0
  9 29  1  0
  9 10  1  0
 10 25  1  0
 10 11  1  1
 10 12  1  0
 11 48  1  0
 11 49  1  0
 11 50  1  0
 12 13  1  0
 12 51  1  0
 12 52  1  0
 13 14  2  0
 13 15  1  0
 15 23  1  0
 15 16  1  0
 15 53  1  6
 16 17  1  0
 16 18  1  0
 16 19  1  0
 17 54  1  0
 17 55  1  0
 17 56  1  0
 18 57  1  0
 18 58  1  0
 18 59  1  0
 19 20  2  0
 19 21  1  0
 21 22  1  0
 21 60  1  0
 21 61  1  0
 22 23  1  0
 22 62  1  0
 22 63  1  0
 23 24  1  6
 23 25  1  0
 24 64  1  0
 24 65  1  0
 24 66  1  0
 25 26  1  0
 25 67  1  1
 26 27  1  0
 26 28  1  0
 26 68  1  1
 27 69  1  0
 28 29  1  0
 28 70  1  0
 28 71  1  0
 29 30  1  1
 29 31  1  0
 30 72  1  0
 30 73  1  0
 30 74  1  0
 31 40  1  0
 31 32  1  6
 31 33  1  0
 32 75  1  0
 32 76  1  0
 32 77  1  0
 33 34  2  0
 33 78  1  0
 34 35  1  0
 34 79  1  0
 35 36  2  0
 35 37  1  0
 37 38  1  0
 37 39  1  0
 37 40  1  0
 38 80  1  0
 38 81  1  0
 38 82  1  0
 39 83  1  0
 39 84  1  0
 39 85  1  0
 40 86  1  1
M  END
>  <i_m_ct_stereo_status>  (301) 
1

>  <s_m_source_file>  (301) 
/var/tmp/pbs.5076255.sched01/tmpulc5pjk6/123bob0etdf.sdf

>  <i_m_source_file_index>  (301) 
11

>  <i_lp_mmshare_version>  (301) 
48012

>  <i_f3d_flags>  (301) 
0

>  <s_epik_input>  (301) 
W0NIM11bQ0BASF0xQyg9TylbQ0gyXVtDSF09QyhDMT1DMltDQEBdMzRbQ0gzXSlbQ0BIXTVbQ0BAXShbQ0gzXSkoW0NIXT1bQ0hdQyg9TylDNShbQ0gzXSlbQ0gzXSlbQ0BdMihbQ0gzXSlbQ0gyXVtDQEhdKFtPSF0pW0NAQEhdNFtDQF02KFtDSDNdKVtDQEhdKEMoPU8pW0NIMl0zKUMoW0NIM10pKFtDSDNdKUMoPU8pW0NIMl1bQ0gyXTY=

>  <s_epik_cmdline>  (301) 
J2VwaWtfcHl0aG9uJywgJy1waHQnLCAnMi4wJywgJy1waCcsICc3LjAnLCAnLXRuJywgJzgnLCAnLW1hJywgJzIwMCcsICctaW1hZScsICc8aW5maWxlLm1hZT4nLCAnLW9tYWUnLCAnPG91dGZpbGUubWFlPic=

>  <r_lp_tautomer_probability>  (301) 
0.981436

>  <r_epik_Ionization_Penalty>  (301) 
1.16205e-07

>  <r_epik_Ionization_Penalty_Charging>  (301) 
0

>  <r_epik_Ionization_Penalty_Neutral>  (301) 
1.16205e-07

>  <r_epik_State_Penalty>  (301) 
0.00848496

>  <r_epik_Charging_Adjusted_Penalty>  (301) 
0.00848496

>  <i_epik_Tot_Q>  (301) 
0

>  <i_epik_Tot_abs_Q>  (301) 
0

>  <s_lp_Force_Field>  (301) 
OPLS3e

>  <r_lp_Energy>  (301) 
107.446

>  <b_lp_Chiralities_Consistent>  (301) 
1

>  <s_lp_Variant>  (301) 
84:0-1

>  <s_i_glide_gridfile>  (301) 
pfpi4k_grid

>  <i_i_glide_lignum>  (301) 
11

>  <i_i_glide_rotatable_bonds>  (301) 
1

>  <r_i_docking_score>  (301) 
-2.39206

>  <r_i_glide_ligand_efficiency>  (301) 
-0.0598015

>  <r_i_glide_ligand_efficiency_sa>  (301) 
-0.204518

>  <r_i_glide_ligand_efficiency_ln>  (301) 
-0.510156

>  <r_i_glide_gscore>  (301) 
-2.39206

>  <r_i_glide_lipo>  (301) 
-0.294573

>  <r_i_glide_hbond>  (301) 
0

>  <r_i_glide_metal>  (301) 
-0

>  <r_i_glide_rewards>  (301) 
-0.0681116

>  <r_i_glide_evdw>  (301) 
-32.4032

>  <r_i_glide_ecoul>  (301) 
-2.40521

>  <r_i_glide_erotb>  (301) 
0

>  <r_i_glide_esite>  (301) 
-0.0484327

>  <r_i_glide_emodel>  (301) 
-39.5107

>  <r_i_glide_energy>  (301) 
-34.8084

>  <r_i_glide_einternal>  (301) 
0.0535857

>  <r_i_glide_intrahb_reward>  (301) 
-0

>  <i_i_glide_confnum>  (301) 
2

>  <i_i_glide_posenum>  (301) 
8

>  <r_i_glide_eff_state_penalty>  (301) 
0

>  <ligand_id>  (301) 
84

>  <original_smiles>  (301) 
CC1C(=O)CC=C2C1=C1C3(C)CC(=O)C4C(C)(C)C(=O)CCC4(C)C3C(O)CC1(C)C1(C)C=CC(=O)C(C)(C)C21

>  <smiles>  (301) 
[H]OC1([H])C([H])([H])C2(C([H])([H])[H])C(=C3C(=C([H])C([H])([H])C(=O)C3([H])C([H])([H])[H])C3([H])C(C([H])([H])[H])(C([H])([H])[H])C(=O)C([H])=C([H])C32C([H])([H])[H])C2(C([H])([H])[H])C([H])([H])C(=O)C3([H])C(C([H])([H])[H])(C([H])([H])[H])C(=O)C([H])([H])C([H])([H])C3(C([H])([H])[H])C12[H]

$$$$
84:0:1
     RDKit          3D

 86 91  0  0  1  0  0  0  0  0999 V2000
    2.7969   -2.9107    4.8843 C   0  0  0  0  0  0  0  0  0  0  0  0
    4.2570   -3.3714    4.9523 C   0  0  2  0  0  0  0  0  0  0  0  0
    5.1345   -2.2438    5.4732 C   0  0  0  0  0  0  0  0  0  0  0  0
    5.6272   -2.2602    6.6014 O   0  0  0  0  0  0  0  0  0  0  0  0
    5.3531   -1.0721    4.5273 C   0  0  0  0  0  0  0  0  0  0  0  0
    5.3098   -1.5286    3.0723 C   0  0  0  0  0  0  0  0  0  0  0  0
    5.0291   -2.7691    2.6049 C   0  0  0  0  0  0  0  0  0  0  0  0
    4.7684   -3.8608    3.5851 C   0  0  0  0  0  0  0  0  0  0  0  0
    5.0200   -5.1834    3.2548 C   0  0  0  0  0  0  0  0  0  0  0  0
    5.0045   -6.4289    4.2515 C   0  0  1  0  0  0  0  0  0  0  0  0
    6.4033   -6.4488    4.9327 C   0  0  0  0  0  0  0  0  0  0  0  0
    4.0735   -6.4686    5.4859 C   0  0  0  0  0  0  0  0  0  0  0  0
    2.6040   -6.3674    5.1564 C   0  0  0  0  0  0  0  0  0  0  0  0
    1.8763   -5.8120    5.9826 O   0  0  0  0  0  0  0  0  0  0  0  0
    2.1140   -6.9907    3.8183 C   0  0  2  0  0  0  0  0  0  0  0  0
    0.5494   -7.3271    3.8101 C   0  0  0  0  0  0  0  0  0  0  0  0
   -0.3497   -6.1898    4.3806 C   0  0  0  0  0  0  0  0  0  0  0  0
   -0.0144   -7.5506    2.3747 C   0  0  0  0  0  0  0  0  0  0  0  0
    0.3334   -8.6065    4.6444 C   0  0  0  0  0  0  0  0  0  0  0  0
   -0.5498   -8.6611    5.5012 O   0  0  0  0  0  0  0  0  0  0  0  0
    1.2573   -9.7965    4.3884 C   0  0  0  0  0  0  0  0  0  0  0  0
    2.7506   -9.3915    4.3286 C   0  0  0  0  0  0  0  0  0  0  0  0
    3.0883   -8.1819    3.3908 C   0  0  1  0  0  0  0  0  0  0  0  0
    2.7590   -8.6765    1.9453 C   0  0  0  0  0  0  0  0  0  0  0  0
    4.6613   -7.8067    3.5643 C   0  0  1  0  0  0  0  0  0  0  0  0
    5.6511   -7.9959    2.3994 C   0  0  1  0  0  0  0  0  0  0  0  0
    5.7996   -9.3161    1.9160 O   0  0  0  0  0  0  0  0  0  0  0  0
    5.4154   -6.9537    1.3154 C   0  0  0  0  0  0  0  0  0  0  0  0
    5.5192   -5.4729    1.7890 C   0  0  2  0  0  0  0  0  0  0  0  0
    7.0481   -5.1726    1.7095 C   0  0  0  0  0  0  0  0  0  0  0  0
    4.7102   -4.5310    0.7920 C   0  0  2  0  0  0  0  0  0  0  0  0
    3.1775   -4.7524    0.9392 C   0  0  0  0  0  0  0  0  0  0  0  0
    5.0280   -4.7878   -0.6765 C   0  0  0  0  0  0  0  0  0  0  0  0
    4.8459   -3.8771   -1.6458 C   0  0  0  0  0  0  0  0  0  0  0  0
    4.2856   -2.5587   -1.3374 C   0  0  0  0  0  0  0  0  0  0  0  0
    3.7048   -1.9044   -2.2012 O   0  0  0  0  0  0  0  0  0  0  0  0
    4.4824   -1.9662    0.0863 C   0  0  0  0  0  0  0  0  0  0  0  0
    5.4558   -0.7802   -0.1618 C   0  0  0  0  0  0  0  0  0  0  0  0
    3.1497   -1.3860    0.6020 C   0  0  0  0  0  0  0  0  0  0  0  0
    5.0810   -3.0486    1.0896 C   0  0  1  0  0  0  0  0  0  0  0  0
    2.1617   -3.6616    4.4243 H   0  0  0  0  0  0  0  0  0  0  0  0
    2.6844   -1.9989    4.3029 H   0  0  0  0  0  0  0  0  0  0  0  0
    2.4099   -2.7158    5.8824 H   0  0  0  0  0  0  0  0  0  0  0  0
    4.3681   -4.1147    5.7071 H   0  0  0  0  0  0  0  0  0  0  0  0
    4.6012   -0.3038    4.7048 H   0  0  0  0  0  0  0  0  0  0  0  0
    6.3164   -0.6139    4.7426 H   0  0  0  0  0  0  0  0  0  0  0  0
    5.5691   -0.7365    2.3964 H   0  0  0  0  0  0  0  0  0  0  0  0
    6.5454   -7.3316    5.5631 H   0  0  0  0  0  0  0  0  0  0  0  0
    6.5298   -5.5750    5.5732 H   0  0  0  0  0  0  0  0  0  0  0  0
    7.2367   -6.4165    4.2362 H   0  0  0  0  0  0  0  0  0  0  0  0
    4.1936   -7.4429    5.9653 H   0  0  0  0  0  0  0  0  0  0  0  0
    4.3502   -5.8159    6.3068 H   0  0  0  0  0  0  0  0  0  0  0  0
    2.2517   -6.1883    3.0981 H   0  0  0  0  0  0  0  0  0  0  0  0
   -0.0081   -5.2143    4.0409 H   0  0  0  0  0  0  0  0  0  0  0  0
   -0.3986   -6.1649    5.4687 H   0  0  0  0  0  0  0  0  0  0  0  0
   -1.3903   -6.3004    4.0862 H   0  0  0  0  0  0  0  0  0  0  0  0
    0.5297   -6.9612    1.6355 H   0  0  0  0  0  0  0  0  0  0  0  0
   -1.0648   -7.2765    2.2738 H   0  0  0  0  0  0  0  0  0  0  0  0
   -0.0048   -8.5961    2.0734 H   0  0  0  0  0  0  0  0  0  0  0  0
    1.1055  -10.5361    5.1708 H   0  0  0  0  0  0  0  0  0  0  0  0
    0.9406  -10.2807    3.4686 H   0  0  0  0  0  0  0  0  0  0  0  0
    3.0580   -9.1805    5.3545 H   0  0  0  0  0  0  0  0  0  0  0  0
    3.3369  -10.2639    4.0280 H   0  0  0  0  0  0  0  0  0  0  0  0
    3.5053   -9.3132    1.4900 H   0  0  0  0  0  0  0  0  0  0  0  0
    2.5562   -7.8580    1.2636 H   0  0  0  0  0  0  0  0  0  0  0  0
    1.8947   -9.3289    1.8996 H   0  0  0  0  0  0  0  0  0  0  0  0
    5.0210   -8.5515    4.2792 H   0  0  0  0  0  0  0  0  0  0  0  0
    6.6566   -7.8384    2.7793 H   0  0  0  0  0  0  0  0  0  0  0  0
    4.9520   -9.6584    1.6583 H   0  0  0  0  0  0  0  0  0  0  0  0
    6.1759   -7.1053    0.5576 H   0  0  0  0  0  0  0  0  0  0  0  0
    4.4924   -7.1507    0.7932 H   0  0  0  0  0  0  0  0  0  0  0  0
    7.4018   -5.0482    0.6853 H   0  0  0  0  0  0  0  0  0  0  0  0
    7.6607   -5.9595    2.1527 H   0  0  0  0  0  0  0  0  0  0  0  0
    7.2855   -4.2569    2.2279 H   0  0  0  0  0  0  0  0  0  0  0  0
    2.7795   -4.3762    1.8802 H   0  0  0  0  0  0  0  0  0  0  0  0
    2.9012   -5.7942    0.8577 H   0  0  0  0  0  0  0  0  0  0  0  0
    2.6201   -4.2603    0.1430 H   0  0  0  0  0  0  0  0  0  0  0  0
    5.3965   -5.7624   -0.9483 H   0  0  0  0  0  0  0  0  0  0  0  0
    5.0476   -4.1165   -2.6814 H   0  0  0  0  0  0  0  0  0  0  0  0
    5.3459    0.0345    0.5515 H   0  0  0  0  0  0  0  0  0  0  0  0
    5.2724   -0.2935   -1.1228 H   0  0  0  0  0  0  0  0  0  0  0  0
    6.4999   -1.0973   -0.1763 H   0  0  0  0  0  0  0  0  0  0  0  0
    3.2696   -0.7639    1.4885 H   0  0  0  0  0  0  0  0  0  0  0  0
    2.4233   -2.1605    0.8360 H   0  0  0  0  0  0  0  0  0  0  0  0
    2.6941   -0.7393   -0.1461 H   0  0  0  0  0  0  0  0  0  0  0  0
    6.1463   -2.9762    0.8905 H   0  0  0  0  0  0  0  0  0  0  0  0
  1  2  1  0
  1 41  1  0
  1 42  1  0
  1 43  1  0
  2  8  1  0
  2  3  1  0
  2 44  1  1
  3  4  2  0
  3  5  1  0
  5  6  1  0
  5 45  1  0
  5 46  1  0
  6  7  2  0
  6 47  1  0
  7 40  1  0
  7  8  1  0
  8  9  2  0
  9 29  1  0
  9 10  1  0
 10 25  1  0
 10 11  1  1
 10 12  1  0
 11 48  1  0
 11 49  1  0
 11 50  1  0
 12 13  1  0
 12 51  1  0
 12 52  1  0
 13 14  2  0
 13 15  1  0
 15 23  1  0
 15 16  1  0
 15 53  1  6
 16 17  1  0
 16 18  1  0
 16 19  1  0
 17 54  1  0
 17 55  1  0
 17 56  1  0
 18 57  1  0
 18 58  1  0
 18 59  1  0
 19 20  2  0
 19 21  1  0
 21 22  1  0
 21 60  1  0
 21 61  1  0
 22 23  1  0
 22 62  1  0
 22 63  1  0
 23 24  1  6
 23 25  1  0
 24 64  1  0
 24 65  1  0
 24 66  1  0
 25 26  1  0
 25 67  1  1
 26 27  1  0
 26 28  1  0
 26 68  1  1
 27 69  1  0
 28 29  1  0
 28 70  1  0
 28 71  1  0
 29 30  1  1
 29 31  1  0
 30 72  1  0
 30 73  1  0
 30 74  1  0
 31 40  1  0
 31 32  1  6
 31 33  1  0
 32 75  1  0
 32 76  1  0
 32 77  1  0
 33 34  2  0
 33 78  1  0
 34 35  1  0
 34 79  1  0
 35 36  2  0
 35 37  1  0
 37 38  1  0
 37 39  1  0
 37 40  1  0
 38 80  1  0
 38 81  1  0
 38 82  1  0
 39 83  1  0
 39 84  1  0
 39 85  1  0
 40 86  1  6
M  END
>  <i_m_ct_stereo_status>  (302) 
1

>  <s_m_source_file>  (302) 
/var/tmp/pbs.5076255.sched01/tmpulc5pjk6/123bob0etdf.sdf

>  <i_m_source_file_index>  (302) 
11

>  <i_lp_mmshare_version>  (302) 
48012

>  <i_f3d_flags>  (302) 
0

>  <s_epik_input>  (302) 
W0NIM11bQ0BASF0xQyg9TylbQ0gyXVtDSF09QyhDMT1DMltDQEBdMzRbQ0gzXSlbQ0BIXTVbQ0BAXShbQ0gzXSkoW0NIXT1bQ0hdQyg9TylDNShbQ0gzXSlbQ0gzXSlbQ0BdMihbQ0gzXSlbQ0gyXVtDQEhdKFtPSF0pW0NAQEhdNFtDQF02KFtDSDNdKVtDQEhdKEMoPU8pW0NIMl0zKUMoW0NIM10pKFtDSDNdKUMoPU8pW0NIMl1bQ0gyXTY=

>  <s_epik_cmdline>  (302) 
J2VwaWtfcHl0aG9uJywgJy1waHQnLCAnMi4wJywgJy1waCcsICc3LjAnLCAnLXRuJywgJzgnLCAnLW1hJywgJzIwMCcsICctaW1hZScsICc8aW5maWxlLm1hZT4nLCAnLW9tYWUnLCAnPG91dGZpbGUubWFlPic=

>  <r_lp_tautomer_probability>  (302) 
0.981436

>  <r_epik_Ionization_Penalty>  (302) 
1.16205e-07

>  <r_epik_Ionization_Penalty_Charging>  (302) 
0

>  <r_epik_Ionization_Penalty_Neutral>  (302) 
1.16205e-07

>  <r_epik_State_Penalty>  (302) 
0.00848496

>  <r_epik_Charging_Adjusted_Penalty>  (302) 
0.00848496

>  <i_epik_Tot_Q>  (302) 
0

>  <i_epik_Tot_abs_Q>  (302) 
0

>  <s_lp_Force_Field>  (302) 
OPLS3e

>  <r_lp_Energy>  (302) 
107.446

>  <b_lp_Chiralities_Consistent>  (302) 
1

>  <s_lp_Variant>  (302) 
84:0-1

>  <s_i_glide_gridfile>  (302) 
pfpi4k_grid

>  <i_i_glide_lignum>  (302) 
11

>  <i_i_glide_rotatable_bonds>  (302) 
1

>  <r_i_docking_score>  (302) 
-2.35912

>  <r_i_glide_ligand_efficiency>  (302) 
-0.0589781

>  <r_i_glide_ligand_efficiency_sa>  (302) 
-0.201702

>  <r_i_glide_ligand_efficiency_ln>  (302) 
-0.503132

>  <r_i_glide_gscore>  (302) 
-2.35912

>  <r_i_glide_lipo>  (302) 
-0.50565

>  <r_i_glide_hbond>  (302) 
0

>  <r_i_glide_metal>  (302) 
-0

>  <r_i_glide_rewards>  (302) 
-0.03838

>  <r_i_glide_evdw>  (302) 
-30.9876

>  <r_i_glide_ecoul>  (302) 
-1.39118

>  <r_i_glide_erotb>  (302) 
0

>  <r_i_glide_esite>  (302) 
-0.0570384

>  <r_i_glide_emodel>  (302) 
-36.9593

>  <r_i_glide_energy>  (302) 
-32.3787

>  <r_i_glide_einternal>  (302) 
0.0797635

>  <r_i_glide_intrahb_reward>  (302) 
-0

>  <i_i_glide_confnum>  (302) 
2

>  <i_i_glide_posenum>  (302) 
29

>  <r_i_glide_eff_state_penalty>  (302) 
0

>  <ligand_id>  (302) 
84

>  <original_smiles>  (302) 
CC1C(=O)CC=C2C1=C1C3(C)CC(=O)C4C(C)(C)C(=O)CCC4(C)C3C(O)CC1(C)C1(C)C=CC(=O)C(C)(C)C21

>  <smiles>  (302) 
[H]OC1([H])C([H])([H])C2(C([H])([H])[H])C(=C3C(=C([H])C([H])([H])C(=O)C3([H])C([H])([H])[H])C3([H])C(C([H])([H])[H])(C([H])([H])[H])C(=O)C([H])=C([H])C32C([H])([H])[H])C2(C([H])([H])[H])C([H])([H])C(=O)C3([H])C(C([H])([H])[H])(C([H])([H])[H])C(=O)C([H])([H])C([H])([H])C3(C([H])([H])[H])C12[H]

$$$$
84:0:2
     RDKit          3D

 86 91  0  0  1  0  0  0  0  0999 V2000
    5.8319   -7.6151    1.3188 C   0  0  0  0  0  0  0  0  0  0  0  0
    5.9055   -7.1878    2.7889 C   0  0  2  0  0  0  0  0  0  0  0  0
    6.5838   -8.2556    3.6283 C   0  0  0  0  0  0  0  0  0  0  0  0
    7.7355   -8.1305    4.0446 O   0  0  0  0  0  0  0  0  0  0  0  0
    5.7722   -9.5077    3.8968 C   0  0  0  0  0  0  0  0  0  0  0  0
    4.2784   -9.2140    3.8851 C   0  0  0  0  0  0  0  0  0  0  0  0
    3.6697   -8.0305    3.6466 C   0  0  0  0  0  0  0  0  0  0  0  0
    4.5175   -6.8459    3.3652 C   0  0  0  0  0  0  0  0  0  0  0  0
    4.0587   -5.5748    3.6611 C   0  0  0  0  0  0  0  0  0  0  0  0
    4.9156   -4.2468    3.6217 C   0  0  1  0  0  0  0  0  0  0  0  0
    5.6628   -4.1758    4.9890 C   0  0  0  0  0  0  0  0  0  0  0  0
    6.0473   -4.1166    2.5958 C   0  0  0  0  0  0  0  0  0  0  0  0
    5.7013   -4.1842    1.1538 C   0  0  0  0  0  0  0  0  0  0  0  0
    6.5832   -4.5775    0.3869 O   0  0  0  0  0  0  0  0  0  0  0  0
    4.3127   -3.6456    0.7567 C   0  0  2  0  0  0  0  0  0  0  0  0
    4.2325   -3.2611   -0.7901 C   0  0  0  0  0  0  0  0  0  0  0  0
    4.9010   -4.2823   -1.7407 C   0  0  0  0  0  0  0  0  0  0  0  0
    2.7640   -3.2337   -1.2849 C   0  0  0  0  0  0  0  0  0  0  0  0
    4.9114   -1.8827   -0.9920 C   0  0  0  0  0  0  0  0  0  0  0  0
    5.7130   -1.6692   -1.9085 O   0  0  0  0  0  0  0  0  0  0  0  0
    4.5704   -0.7698   -0.0085 C   0  0  0  0  0  0  0  0  0  0  0  0
    4.6343   -1.2202    1.4695 C   0  0  0  0  0  0  0  0  0  0  0  0
    3.8441   -2.5291    1.8049 C   0  0  1  0  0  0  0  0  0  0  0  0
    2.3638   -2.1725    1.5615 C   0  0  0  0  0  0  0  0  0  0  0  0
    4.1028   -2.9287    3.3583 C   0  0  1  0  0  0  0  0  0  0  0  0
    2.9705   -2.8717    4.4061 C   0  0  1  0  0  0  0  0  0  0  0  0
    2.3657   -1.6100    4.5946 O   0  0  0  0  0  0  0  0  0  0  0  0
    1.9821   -4.0104    4.2005 C   0  0  0  0  0  0  0  0  0  0  0  0
    2.6075   -5.4436    4.2443 C   0  0  2  0  0  0  0  0  0  0  0  0
    2.6708   -5.7974    5.7634 C   0  0  0  0  0  0  0  0  0  0  0  0
    1.6770   -6.4575    3.4508 C   0  0  2  0  0  0  0  0  0  0  0  0
    1.7384   -6.1926    1.9122 C   0  0  0  0  0  0  0  0  0  0  0  0
    0.2079   -6.3553    3.8511 C   0  0  0  0  0  0  0  0  0  0  0  0
   -0.6721   -7.3482    3.6562 C   0  0  0  0  0  0  0  0  0  0  0  0
   -0.2461   -8.6176    3.0490 C   0  0  0  0  0  0  0  0  0  0  0  0
   -1.0645   -9.3341    2.4802 O   0  0  0  0  0  0  0  0  0  0  0  0
    1.2383   -9.0734    3.1837 C   0  0  0  0  0  0  0  0  0  0  0  0
    1.1455  -10.3140    4.1255 C   0  0  0  0  0  0  0  0  0  0  0  0
    1.7871   -9.5519    1.8259 C   0  0  0  0  0  0  0  0  0  0  0  0
    2.1414   -7.9096    3.7711 C   0  0  1  0  0  0  0  0  0  0  0  0
    5.2731   -6.8973    0.7201 H   0  0  0  0  0  0  0  0  0  0  0  0
    5.3438   -8.5791    1.2005 H   0  0  0  0  0  0  0  0  0  0  0  0
    6.8316   -7.6886    0.8941 H   0  0  0  0  0  0  0  0  0  0  0  0
    6.6127   -6.4018    2.8956 H   0  0  0  0  0  0  0  0  0  0  0  0
    6.0100  -10.2535    3.1364 H   0  0  0  0  0  0  0  0  0  0  0  0
    6.0544   -9.9237    4.8647 H   0  0  0  0  0  0  0  0  0  0  0  0
    3.7038  -10.0813    4.1359 H   0  0  0  0  0  0  0  0  0  0  0  0
    6.2000   -3.2319    5.1327 H   0  0  0  0  0  0  0  0  0  0  0  0
    6.4027   -4.9712    5.0712 H   0  0  0  0  0  0  0  0  0  0  0  0
    5.0190   -4.2932    5.8580 H   0  0  0  0  0  0  0  0  0  0  0  0
    6.4046   -3.0986    2.6673 H   0  0  0  0  0  0  0  0  0  0  0  0
    6.9632   -4.6517    2.8083 H   0  0  0  0  0  0  0  0  0  0  0  0
    3.6828   -4.5161    0.9000 H   0  0  0  0  0  0  0  0  0  0  0  0
    4.6809   -5.2879   -1.3885 H   0  0  0  0  0  0  0  0  0  0  0  0
    5.9809   -4.1886   -1.8302 H   0  0  0  0  0  0  0  0  0  0  0  0
    4.5361   -4.2138   -2.7632 H   0  0  0  0  0  0  0  0  0  0  0  0
    2.1169   -3.9042   -0.7147 H   0  0  0  0  0  0  0  0  0  0  0  0
    2.6413   -3.5018   -2.3372 H   0  0  0  0  0  0  0  0  0  0  0  0
    2.3527   -2.2405   -1.2385 H   0  0  0  0  0  0  0  0  0  0  0  0
    5.2607    0.0494   -0.1651 H   0  0  0  0  0  0  0  0  0  0  0  0
    3.5900   -0.3907   -0.2779 H   0  0  0  0  0  0  0  0  0  0  0  0
    5.6887   -1.3281    1.7256 H   0  0  0  0  0  0  0  0  0  0  0  0
    4.2627   -0.3983    2.0892 H   0  0  0  0  0  0  0  0  0  0  0  0
    1.8543   -1.6059    2.3308 H   0  0  0  0  0  0  0  0  0  0  0  0
    1.8038   -3.0705    1.3566 H   0  0  0  0  0  0  0  0  0  0  0  0
    2.2262   -1.5234    0.7084 H   0  0  0  0  0  0  0  0  0  0  0  0
    4.7576   -2.1252    3.7116 H   0  0  0  0  0  0  0  0  0  0  0  0
    3.4090   -3.0034    5.3907 H   0  0  0  0  0  0  0  0  0  0  0  0
    1.9879   -1.3280    3.7712 H   0  0  0  0  0  0  0  0  0  0  0  0
    1.2370   -3.9293    4.9879 H   0  0  0  0  0  0  0  0  0  0  0  0
    1.4153   -3.8512    3.2963 H   0  0  0  0  0  0  0  0  0  0  0  0
    1.6892   -6.0533    6.1556 H   0  0  0  0  0  0  0  0  0  0  0  0
    3.0316   -4.9678    6.3698 H   0  0  0  0  0  0  0  0  0  0  0  0
    3.3410   -6.6325    5.9748 H   0  0  0  0  0  0  0  0  0  0  0  0
    2.6932   -6.4628    1.4660 H   0  0  0  0  0  0  0  0  0  0  0  0
    1.5539   -5.1584    1.6615 H   0  0  0  0  0  0  0  0  0  0  0  0
    0.9799   -6.7515    1.3689 H   0  0  0  0  0  0  0  0  0  0  0  0
   -0.1412   -5.4362    4.2931 H   0  0  0  0  0  0  0  0  0  0  0  0
   -1.7155   -7.2433    3.9195 H   0  0  0  0  0  0  0  0  0  0  0  0
    1.9378  -11.0456    3.9690 H   0  0  0  0  0  0  0  0  0  0  0  0
    0.2332  -10.8955    3.9705 H   0  0  0  0  0  0  0  0  0  0  0  0
    1.1375  -10.0352    5.1800 H   0  0  0  0  0  0  0  0  0  0  0  0
    2.7373  -10.0854    1.8838 H   0  0  0  0  0  0  0  0  0  0  0  0
    1.8977   -8.7503    1.1007 H   0  0  0  0  0  0  0  0  0  0  0  0
    1.0867  -10.2585    1.4095 H   0  0  0  0  0  0  0  0  0  0  0  0
    1.9996   -8.0306    4.8407 H   0  0  0  0  0  0  0  0  0  0  0  0
  1  2  1  0
  1 41  1  0
  1 42  1  0
  1 43  1  0
  2  8  1  0
  2  3  1  0
  2 44  1  6
  3  4  2  0
  3  5  1  0
  5  6  1  0
  5 45  1  0
  5 46  1  0
  6  7  2  0
  6 47  1  0
  7 40  1  0
  7  8  1  0
  8  9  2  0
  9 29  1  0
  9 10  1  0
 10 25  1  0
 10 11  1  1
 10 12  1  0
 11 48  1  0
 11 49  1  0
 11 50  1  0
 12 13  1  0
 12 51  1  0
 12 52  1  0
 13 14  2  0
 13 15  1  0
 15 23  1  0
 15 16  1  0
 15 53  1  6
 16 17  1  0
 16 18  1  0
 16 19  1  0
 17 54  1  0
 17 55  1  0
 17 56  1  0
 18 57  1  0
 18 58  1  0
 18 59  1  0
 19 20  2  0
 19 21  1  0
 21 22  1  0
 21 60  1  0
 21 61  1  0
 22 23  1  0
 22 62  1  0
 22 63  1  0
 23 24  1  1
 23 25  1  0
 24 64  1  0
 24 65  1  0
 24 66  1  0
 25 26  1  0
 25 67  1  1
 26 27  1  0
 26 28  1  0
 26 68  1  1
 27 69  1  0
 28 29  1  0
 28 70  1  0
 28 71  1  0
 29 30  1  1
 29 31  1  0
 30 72  1  0
 30 73  1  0
 30 74  1  0
 31 40  1  0
 31 32  1  6
 31 33  1  0
 32 75  1  0
 32 76  1  0
 32 77  1  0
 33 34  2  0
 33 78  1  0
 34 35  1  0
 34 79  1  0
 35 36  2  0
 35 37  1  0
 37 38  1  0
 37 39  1  0
 37 40  1  0
 38 80  1  0
 38 81  1  0
 38 82  1  0
 39 83  1  0
 39 84  1  0
 39 85  1  0
 40 86  1  1
M  END
>  <i_m_ct_stereo_status>  (303) 
1

>  <s_m_source_file>  (303) 
/var/tmp/pbs.5076255.sched01/tmpulc5pjk6/123bob0etdf.sdf

>  <i_m_source_file_index>  (303) 
11

>  <i_lp_mmshare_version>  (303) 
48012

>  <i_f3d_flags>  (303) 
0

>  <s_epik_input>  (303) 
W0NIM11bQ0BASF0xQyg9TylbQ0gyXVtDSF09QyhDMT1DMltDQEBdMzRbQ0gzXSlbQ0BIXTVbQ0BAXShbQ0gzXSkoW0NIXT1bQ0hdQyg9TylDNShbQ0gzXSlbQ0gzXSlbQ0BdMihbQ0gzXSlbQ0gyXVtDQEhdKFtPSF0pW0NAQEhdNFtDQF02KFtDSDNdKVtDQEhdKEMoPU8pW0NIMl0zKUMoW0NIM10pKFtDSDNdKUMoPU8pW0NIMl1bQ0gyXTY=

>  <s_epik_cmdline>  (303) 
J2VwaWtfcHl0aG9uJywgJy1waHQnLCAnMi4wJywgJy1waCcsICc3LjAnLCAnLXRuJywgJzgnLCAnLW1hJywgJzIwMCcsICctaW1hZScsICc8aW5maWxlLm1hZT4nLCAnLW9tYWUnLCAnPG91dGZpbGUubWFlPic=

>  <r_lp_tautomer_probability>  (303) 
0.981436

>  <r_epik_Ionization_Penalty>  (303) 
1.16205e-07

>  <r_epik_Ionization_Penalty_Charging>  (303) 
0

>  <r_epik_Ionization_Penalty_Neutral>  (303) 
1.16205e-07

>  <r_epik_State_Penalty>  (303) 
0.00848496

>  <r_epik_Charging_Adjusted_Penalty>  (303) 
0.00848496

>  <i_epik_Tot_Q>  (303) 
0

>  <i_epik_Tot_abs_Q>  (303) 
0

>  <s_lp_Force_Field>  (303) 
OPLS3e

>  <r_lp_Energy>  (303) 
107.446

>  <b_lp_Chiralities_Consistent>  (303) 
1

>  <s_lp_Variant>  (303) 
84:0-1

>  <s_i_glide_gridfile>  (303) 
pfpi4k_grid

>  <i_i_glide_lignum>  (303) 
11

>  <i_i_glide_rotatable_bonds>  (303) 
1

>  <r_i_docking_score>  (303) 
-2.35405

>  <r_i_glide_ligand_efficiency>  (303) 
-0.0588512

>  <r_i_glide_ligand_efficiency_sa>  (303) 
-0.201268

>  <r_i_glide_ligand_efficiency_ln>  (303) 
-0.502049

>  <r_i_glide_gscore>  (303) 
-2.35405

>  <r_i_glide_lipo>  (303) 
-0.367452

>  <r_i_glide_hbond>  (303) 
-0.0327609

>  <r_i_glide_metal>  (303) 
-0

>  <r_i_glide_rewards>  (303) 
-0.101554

>  <r_i_glide_evdw>  (303) 
-26.112

>  <r_i_glide_ecoul>  (303) 
-3.19704

>  <r_i_glide_erotb>  (303) 
0

>  <r_i_glide_esite>  (303) 
-0.0671254

>  <r_i_glide_emodel>  (303) 
-33.8352

>  <r_i_glide_energy>  (303) 
-29.309

>  <r_i_glide_einternal>  (303) 
0.0225625

>  <r_i_glide_intrahb_reward>  (303) 
-0

>  <i_i_glide_confnum>  (303) 
2

>  <i_i_glide_posenum>  (303) 
19

>  <r_i_glide_eff_state_penalty>  (303) 
0

>  <ligand_id>  (303) 
84

>  <original_smiles>  (303) 
CC1C(=O)CC=C2C1=C1C3(C)CC(=O)C4C(C)(C)C(=O)CCC4(C)C3C(O)CC1(C)C1(C)C=CC(=O)C(C)(C)C21

>  <smiles>  (303) 
[H]OC1([H])C([H])([H])C2(C([H])([H])[H])C(=C3C(=C([H])C([H])([H])C(=O)C3([H])C([H])([H])[H])C3([H])C(C([H])([H])[H])(C([H])([H])[H])C(=O)C([H])=C([H])C32C([H])([H])[H])C2(C([H])([H])[H])C([H])([H])C(=O)C3([H])C(C([H])([H])[H])(C([H])([H])[H])C(=O)C([H])([H])C([H])([H])C3(C([H])([H])[H])C12[H]

$$$$
85:0:0
     RDKit          3D

 58 64  0  0  1  0  0  0  0  0999 V2000
    4.4004   -8.4412    3.8777 C   0  0  0  0  0  0  0  0  0  0  0  0
    5.0167   -7.1287    3.4092 C   0  0  0  0  0  0  0  0  0  0  0  0
    6.1301   -6.7985    3.8096 O   0  0  0  0  0  0  0  0  0  0  0  0
    4.2306   -6.3233    2.3430 C   0  0  2  0  0  0  0  0  0  0  0  0
    4.4972   -6.9538    0.9585 C   0  0  0  0  0  0  0  0  0  0  0  0
    4.9243   -5.8155    0.0442 C   0  0  0  0  0  0  0  0  0  0  0  0
    5.4617   -4.7293    0.9737 C   0  0  2  0  0  0  0  0  0  0  0  0
    6.7488   -5.1988    1.3507 O   0  0  0  0  0  0  0  0  0  0  0  0
    4.4570   -4.7492    2.2073 C   0  0  2  0  0  0  0  0  0  0  0  0
    5.1417   -4.0910    3.4484 C   0  0  0  0  0  0  0  0  0  0  0  0
    3.0313   -3.9950    2.0274 C   0  0  2  0  0  0  0  0  0  0  0  0
    2.2452   -4.7131    1.0912 O   0  0  0  0  0  0  0  0  0  0  0  0
    3.1882   -2.5453    1.4905 C   0  0  0  0  0  0  0  0  0  0  0  0
    2.8698   -1.4987    2.2587 C   0  0  0  0  0  0  0  0  0  0  0  0
    2.6072   -0.0622    2.4131 C   0  0  0  0  0  0  0  0  0  0  0  0
    2.3521   -1.1248    3.5631 C   0  0  1  0  0  0  0  0  0  0  0  0
    1.0264   -1.7919    3.7372 C   0  0  0  0  0  0  0  0  0  0  0  0
    0.0316   -1.1666    4.1077 O   0  0  0  0  0  0  0  0  0  0  0  0
    1.0098   -3.1225    3.4185 O   0  0  0  0  0  0  0  0  0  0  0  0
    2.1812   -3.9573    3.3940 C   0  0  1  0  0  0  0  0  0  0  0  0
    1.7261   -5.2637    4.0969 C   0  0  0  0  0  0  0  0  0  0  0  0
    0.8945   -6.0911    3.3013 O   0  0  0  0  0  0  0  0  0  0  0  0
    3.4716   -2.2915    0.0448 C   0  0  1  0  0  0  0  0  0  0  0  0
    4.6061   -1.3481   -0.3561 C   0  0  1  0  0  0  0  0  0  0  0  0
    5.7562   -0.9641    0.5635 C   0  0  0  0  0  0  0  0  0  0  0  0
    6.4513   -2.2674    0.8956 C   0  0  2  0  0  0  0  0  0  0  0  0
    7.0380   -3.0542   -0.1653 O   0  0  0  0  0  0  0  0  0  0  0  0
    5.7091   -3.3976    0.2507 C   0  0  1  0  0  0  0  0  0  0  0  0
    4.6800   -2.8198   -0.6471 C   0  0  1  0  0  0  0  0  0  0  0  0
    4.6518   -3.2292   -2.1132 C   0  0  0  0  0  0  0  0  0  0  0  0
    4.1028   -9.0533    3.0264 H   0  0  0  0  0  0  0  0  0  0  0  0
    3.5310   -8.2664    4.5102 H   0  0  0  0  0  0  0  0  0  0  0  0
    5.1364   -9.0032    4.4509 H   0  0  0  0  0  0  0  0  0  0  0  0
    3.1872   -6.5266    2.5409 H   0  0  0  0  0  0  0  0  0  0  0  0
    5.2851   -7.7068    0.9908 H   0  0  0  0  0  0  0  0  0  0  0  0
    3.6075   -7.4457    0.5682 H   0  0  0  0  0  0  0  0  0  0  0  0
    5.6397   -6.1150   -0.7131 H   0  0  0  0  0  0  0  0  0  0  0  0
    4.0399   -5.4764   -0.4894 H   0  0  0  0  0  0  0  0  0  0  0  0
    6.6533   -6.0385    1.7762 H   0  0  0  0  0  0  0  0  0  0  0  0
    5.0981   -3.0023    3.4227 H   0  0  0  0  0  0  0  0  0  0  0  0
    6.1954   -4.3439    3.5438 H   0  0  0  0  0  0  0  0  0  0  0  0
    4.6820   -4.4179    4.3800 H   0  0  0  0  0  0  0  0  0  0  0  0
    2.7092   -4.7497    0.2668 H   0  0  0  0  0  0  0  0  0  0  0  0
    3.4270    0.6343    2.5858 H   0  0  0  0  0  0  0  0  0  0  0  0
    1.7283    0.3909    1.9488 H   0  0  0  0  0  0  0  0  0  0  0  0
    2.9916   -1.0691    4.4393 H   0  0  0  0  0  0  0  0  0  0  0  0
    2.8311   -3.5034    4.1414 H   0  0  0  0  0  0  0  0  0  0  0  0
    2.5858   -5.8348    4.4417 H   0  0  0  0  0  0  0  0  0  0  0  0
    1.1779   -5.0191    5.0080 H   0  0  0  0  0  0  0  0  0  0  0  0
    0.8107   -6.9345    3.7273 H   0  0  0  0  0  0  0  0  0  0  0  0
    2.5765   -2.2545   -0.5615 H   0  0  0  0  0  0  0  0  0  0  0  0
    4.4305   -0.6686   -1.1888 H   0  0  0  0  0  0  0  0  0  0  0  0
    6.4442   -0.2580    0.0930 H   0  0  0  0  0  0  0  0  0  0  0  0
    5.3645   -0.4948    1.4671 H   0  0  0  0  0  0  0  0  0  0  0  0
    6.8936   -2.3840    1.8786 H   0  0  0  0  0  0  0  0  0  0  0  0
    5.6575   -3.1778   -2.5319 H   0  0  0  0  0  0  0  0  0  0  0  0
    4.0096   -2.5655   -2.6940 H   0  0  0  0  0  0  0  0  0  0  0  0
    4.2907   -4.2486   -2.2468 H   0  0  0  0  0  0  0  0  0  0  0  0
  1  2  1  0
  1 31  1  0
  1 32  1  0
  1 33  1  0
  2  3  2  0
  2  4  1  0
  4  9  1  0
  4  5  1  0
  4 34  1  1
  5  6  1  0
  5 35  1  0
  5 36  1  0
  6  7  1  0
  6 37  1  0
  6 38  1  0
  7 28  1  0
  7  8  1  1
  7  9  1  0
  8 39  1  0
  9 10  1  1
  9 11  1  0
 10 40  1  0
 10 41  1  0
 10 42  1  0
 11 20  1  0
 11 12  1  6
 11 13  1  0
 12 43  1  0
 13 14  2  0
 13 23  1  0
 14 16  1  0
 14 15  1  0
 15 16  1  0
 15 44  1  0
 15 45  1  0
 16 17  1  0
 16 46  1  1
 17 18  2  0
 17 19  1  0
 19 20  1  0
 20 21  1  0
 20 47  1  1
 21 22  1  0
 21 48  1  0
 21 49  1  0
 22 50  1  0
 23 29  1  0
 23 24  1  0
 23 51  1  6
 24 29  1  0
 24 25  1  0
 24 52  1  6
 25 26  1  0
 25 53  1  0
 25 54  1  0
 26 28  1  0
 26 27  1  0
 26 55  1  1
 28 27  1  6
 28 29  1  0
 29 30  1  6
 30 56  1  0
 30 57  1  0
 30 58  1  0
M  END
>  <i_m_ct_stereo_status>  (304) 
1

>  <s_m_source_file>  (304) 
/var/tmp/pbs.5076255.sched01/tmpulc5pjk6/123bob0etdf.sdf

>  <i_m_source_file_index>  (304) 
13

>  <i_lp_mmshare_version>  (304) 
48012

>  <i_f3d_flags>  (304) 
2

>  <s_epik_input>  (304) 
W0NIM11DKD1PKVtDQEhdKFtDSDJdW0NIMl0xKVtDQEBdKFtDSDNdKShbQ0BAXTEoW0NAXTIzNClbT0hdKVtDQF01KFtPSF0pQyhbQ0BIXTZbQ0BIXShbQ0gyXVtDQEhdMk8zKVtDQEBdNDZbQ0gzXSk9QzdbQ0hdKFtDSDJdNylDKD1PKU9bQ0BIXTVbQ0gyXVtPSF0=

>  <s_epik_cmdline>  (304) 
J2VwaWtfcHl0aG9uJywgJy1waHQnLCAnMi4wJywgJy1waCcsICc3LjAnLCAnLXRuJywgJzgnLCAnLW1hJywgJzIwMCcsICctaW1hZScsICc8aW5maWxlLm1hZT4nLCAnLW9tYWUnLCAnPG91dGZpbGUubWFlPic=

>  <r_lp_tautomer_probability>  (304) 
1

>  <r_epik_Ionization_Penalty>  (304) 
6.42827e-07

>  <r_epik_Ionization_Penalty_Charging>  (304) 
0

>  <r_epik_Ionization_Penalty_Neutral>  (304) 
6.42827e-07

>  <r_epik_State_Penalty>  (304) 
-0

>  <r_epik_Charging_Adjusted_Penalty>  (304) 
0

>  <i_epik_Tot_Q>  (304) 
0

>  <i_epik_Tot_abs_Q>  (304) 
0

>  <s_epik_Chemistry_Notes>  (304) 
This compound has an ester and may undergo hydrolysis at high or low pH.

>  <s_lp_Force_Field>  (304) 
OPLS3e

>  <r_lp_Energy>  (304) 
83.8888

>  <b_lp_Chiralities_Consistent>  (304) 
0

>  <s_lp_Variant>  (304) 
85:0-1

>  <s_i_glide_gridfile>  (304) 
pfpi4k_grid

>  <i_i_glide_lignum>  (304) 
13

>  <i_i_glide_rotatable_bonds>  (304) 
5

>  <r_i_docking_score>  (304) 
-2.77979

>  <r_i_glide_ligand_efficiency>  (304) 
-0.0926596

>  <r_i_glide_ligand_efficiency_sa>  (304) 
-0.287915

>  <r_i_glide_ligand_efficiency_ln>  (304) 
-0.631598

>  <r_i_glide_gscore>  (304) 
-2.77979

>  <r_i_glide_lipo>  (304) 
-0.553835

>  <r_i_glide_hbond>  (304) 
0

>  <r_i_glide_metal>  (304) 
-0

>  <r_i_glide_rewards>  (304) 
-1.08215

>  <r_i_glide_evdw>  (304) 
-19.9483

>  <r_i_glide_ecoul>  (304) 
-1.73531

>  <r_i_glide_erotb>  (304) 
0.113906

>  <r_i_glide_esite>  (304) 
0

>  <r_i_glide_emodel>  (304) 
-30.7061

>  <r_i_glide_energy>  (304) 
-21.6836

>  <r_i_glide_einternal>  (304) 
1.1586

>  <r_i_glide_intrahb_reward>  (304) 
-0.5

>  <i_i_glide_confnum>  (304) 
2

>  <i_i_glide_posenum>  (304) 
17

>  <r_i_glide_eff_state_penalty>  (304) 
0

>  <ligand_id>  (304) 
85

>  <original_smiles>  (304) 
CC(=O)C1CCC2(O)C1(C)C1(O)C(=C3CC3C(=O)OC1CO)C1C3CC4OC42C31C

>  <smiles>  (304) 
[H]OC([H])([H])C1([H])OC(=O)C2([H])C(=C3C4([H])C5([H])C([H])([H])C6([H])OC6(C6(O[H])C([H])([H])C([H])([H])C([H])(C(=O)C([H])([H])[H])C6(C([H])([H])[H])C31O[H])C45C([H])([H])[H])C2([H])[H]

$$$$
85:0:1
     RDKit          3D

 58 64  0  0  1  0  0  0  0  0999 V2000
    5.0969   -9.0330    3.5202 C   0  0  0  0  0  0  0  0  0  0  0  0
    5.4540   -7.5840    3.2145 C   0  0  0  0  0  0  0  0  0  0  0  0
    6.5316   -7.1326    3.5935 O   0  0  0  0  0  0  0  0  0  0  0  0
    4.4358   -6.7780    2.3621 C   0  0  2  0  0  0  0  0  0  0  0  0
    4.6323   -7.1408    0.8729 C   0  0  0  0  0  0  0  0  0  0  0  0
    4.7716   -5.8252    0.1163 C   0  0  0  0  0  0  0  0  0  0  0  0
    5.2306   -4.8151    1.1700 C   0  0  2  0  0  0  0  0  0  0  0  0
    6.6027   -5.1317    1.3464 O   0  0  0  0  0  0  0  0  0  0  0  0
    4.3901   -5.1875    2.4683 C   0  0  2  0  0  0  0  0  0  0  0  0
    5.1051   -4.6110    3.7373 C   0  0  0  0  0  0  0  0  0  0  0  0
    2.8512   -4.6699    2.5443 C   0  0  2  0  0  0  0  0  0  0  0  0
    2.0769   -5.3537    1.5709 O   0  0  0  0  0  0  0  0  0  0  0  0
    2.7235   -3.1519    2.2456 C   0  0  0  0  0  0  0  0  0  0  0  0
    2.3353   -2.3026    3.2016 C   0  0  0  0  0  0  0  0  0  0  0  0
    1.8736   -0.9742    3.6134 C   0  0  0  0  0  0  0  0  0  0  0  0
    1.9156   -2.2278    4.5879 C   0  0  1  0  0  0  0  0  0  0  0  0
    0.7280   -3.1219    4.7600 C   0  0  0  0  0  0  0  0  0  0  0  0
   -0.2976   -2.7245    5.3073 O   0  0  0  0  0  0  0  0  0  0  0  0
    0.8787   -4.3733    4.2230 O   0  0  0  0  0  0  0  0  0  0  0  0
    2.1604   -4.9842    3.9648 C   0  0  1  0  0  0  0  0  0  0  0  0
    2.0145   -6.4389    4.4856 C   0  0  0  0  0  0  0  0  0  0  0  0
    1.2592   -7.2734    3.6288 O   0  0  0  0  0  0  0  0  0  0  0  0
    2.7915   -2.6400    0.8431 C   0  0  1  0  0  0  0  0  0  0  0  0
    3.7152   -1.4677    0.5022 C   0  0  1  0  0  0  0  0  0  0  0  0
    4.8908   -1.0327    1.3659 C   0  0  0  0  0  0  0  0  0  0  0  0
    5.8130   -2.2310    1.4300 C   0  0  2  0  0  0  0  0  0  0  0  0
    6.4033   -2.7474    0.2139 O   0  0  0  0  0  0  0  0  0  0  0  0
    5.1906   -3.3671    0.6676 C   0  0  1  0  0  0  0  0  0  0  0  0
    3.9861   -2.8443   -0.0312 C   0  0  1  0  0  0  0  0  0  0  0  0
    3.8571   -3.0281   -1.5380 C   0  0  0  0  0  0  0  0  0  0  0  0
    4.7873   -9.5614    2.6190 H   0  0  0  0  0  0  0  0  0  0  0  0
    4.2939   -9.0871    4.2542 H   0  0  0  0  0  0  0  0  0  0  0  0
    5.9684   -9.5439    3.9264 H   0  0  0  0  0  0  0  0  0  0  0  0
    3.4683   -7.1860    2.6190 H   0  0  0  0  0  0  0  0  0  0  0  0
    5.5292   -7.7408    0.7238 H   0  0  0  0  0  0  0  0  0  0  0  0
    3.7993   -7.7224    0.4837 H   0  0  0  0  0  0  0  0  0  0  0  0
    5.4417   -5.8806   -0.7375 H   0  0  0  0  0  0  0  0  0  0  0  0
    3.7932   -5.5691   -0.2810 H   0  0  0  0  0  0  0  0  0  0  0  0
    6.9541   -4.5666    2.0161 H   0  0  0  0  0  0  0  0  0  0  0  0
    4.8903   -3.5539    3.8981 H   0  0  0  0  0  0  0  0  0  0  0  0
    6.1905   -4.6895    3.7089 H   0  0  0  0  0  0  0  0  0  0  0  0
    4.8092   -5.1476    4.6387 H   0  0  0  0  0  0  0  0  0  0  0  0
    2.5695   -5.3865    0.7660 H   0  0  0  0  0  0  0  0  0  0  0  0
    2.5932   -0.1838    3.8240 H   0  0  0  0  0  0  0  0  0  0  0  0
    0.8892   -0.6131    3.3095 H   0  0  0  0  0  0  0  0  0  0  0  0
    2.6335   -2.1955    5.4018 H   0  0  0  0  0  0  0  0  0  0  0  0
    2.8122   -4.5400    4.7150 H   0  0  0  0  0  0  0  0  0  0  0  0
    2.9878   -6.8907    4.6674 H   0  0  0  0  0  0  0  0  0  0  0  0
    1.5276   -6.4310    5.4621 H   0  0  0  0  0  0  0  0  0  0  0  0
    1.2349   -8.1465    3.9926 H   0  0  0  0  0  0  0  0  0  0  0  0
    1.8250   -2.6591    0.3468 H   0  0  0  0  0  0  0  0  0  0  0  0
    3.3449   -0.7152   -0.1938 H   0  0  0  0  0  0  0  0  0  0  0  0
    5.4039   -0.1614    0.9535 H   0  0  0  0  0  0  0  0  0  0  0  0
    4.5370   -0.7741    2.3624 H   0  0  0  0  0  0  0  0  0  0  0  0
    6.3816   -2.3995    2.3413 H   0  0  0  0  0  0  0  0  0  0  0  0
    4.7874   -2.7400   -2.0286 H   0  0  0  0  0  0  0  0  0  0  0  0
    3.0518   -2.4132   -1.9418 H   0  0  0  0  0  0  0  0  0  0  0  0
    3.6539   -4.0632   -1.8043 H   0  0  0  0  0  0  0  0  0  0  0  0
  1  2  1  0
  1 31  1  0
  1 32  1  0
  1 33  1  0
  2  3  2  0
  2  4  1  0
  4  9  1  0
  4  5  1  0
  4 34  1  1
  5  6  1  0
  5 35  1  0
  5 36  1  0
  6  7  1  0
  6 37  1  0
  6 38  1  0
  7 28  1  0
  7  8  1  1
  7  9  1  0
  8 39  1  0
  9 10  1  1
  9 11  1  0
 10 40  1  0
 10 41  1  0
 10 42  1  0
 11 20  1  0
 11 12  1  6
 11 13  1  0
 12 43  1  0
 13 14  2  0
 13 23  1  0
 14 16  1  0
 14 15  1  0
 15 16  1  0
 15 44  1  0
 15 45  1  0
 16 17  1  0
 16 46  1  1
 17 18  2  0
 17 19  1  0
 19 20  1  0
 20 21  1  0
 20 47  1  1
 21 22  1  0
 21 48  1  0
 21 49  1  0
 22 50  1  0
 23 29  1  0
 23 24  1  0
 23 51  1  6
 24 29  1  0
 24 25  1  0
 24 52  1  6
 25 26  1  0
 25 53  1  0
 25 54  1  0
 26 28  1  0
 26 27  1  0
 26 55  1  1
 28 27  1  6
 28 29  1  0
 29 30  1  6
 30 56  1  0
 30 57  1  0
 30 58  1  0
M  END
>  <i_m_ct_stereo_status>  (305) 
1

>  <s_m_source_file>  (305) 
/var/tmp/pbs.5076255.sched01/tmpulc5pjk6/123bob0etdf.sdf

>  <i_m_source_file_index>  (305) 
13

>  <i_lp_mmshare_version>  (305) 
48012

>  <i_f3d_flags>  (305) 
2

>  <s_epik_input>  (305) 
W0NIM11DKD1PKVtDQEhdKFtDSDJdW0NIMl0xKVtDQEBdKFtDSDNdKShbQ0BAXTEoW0NAXTIzNClbT0hdKVtDQF01KFtPSF0pQyhbQ0BIXTZbQ0BIXShbQ0gyXVtDQEhdMk8zKVtDQEBdNDZbQ0gzXSk9QzdbQ0hdKFtDSDJdNylDKD1PKU9bQ0BIXTVbQ0gyXVtPSF0=

>  <s_epik_cmdline>  (305) 
J2VwaWtfcHl0aG9uJywgJy1waHQnLCAnMi4wJywgJy1waCcsICc3LjAnLCAnLXRuJywgJzgnLCAnLW1hJywgJzIwMCcsICctaW1hZScsICc8aW5maWxlLm1hZT4nLCAnLW9tYWUnLCAnPG91dGZpbGUubWFlPic=

>  <r_lp_tautomer_probability>  (305) 
1

>  <r_epik_Ionization_Penalty>  (305) 
6.42827e-07

>  <r_epik_Ionization_Penalty_Charging>  (305) 
0

>  <r_epik_Ionization_Penalty_Neutral>  (305) 
6.42827e-07

>  <r_epik_State_Penalty>  (305) 
-0

>  <r_epik_Charging_Adjusted_Penalty>  (305) 
0

>  <i_epik_Tot_Q>  (305) 
0

>  <i_epik_Tot_abs_Q>  (305) 
0

>  <s_epik_Chemistry_Notes>  (305) 
This compound has an ester and may undergo hydrolysis at high or low pH.

>  <s_lp_Force_Field>  (305) 
OPLS3e

>  <r_lp_Energy>  (305) 
83.8888

>  <b_lp_Chiralities_Consistent>  (305) 
0

>  <s_lp_Variant>  (305) 
85:0-1

>  <s_i_glide_gridfile>  (305) 
pfpi4k_grid

>  <i_i_glide_lignum>  (305) 
13

>  <i_i_glide_rotatable_bonds>  (305) 
5

>  <r_i_docking_score>  (305) 
-2.33519

>  <r_i_glide_ligand_efficiency>  (305) 
-0.0778397

>  <r_i_glide_ligand_efficiency_sa>  (305) 
-0.241866

>  <r_i_glide_ligand_efficiency_ln>  (305) 
-0.530581

>  <r_i_glide_gscore>  (305) 
-2.33519

>  <r_i_glide_lipo>  (305) 
-0.460301

>  <r_i_glide_hbond>  (305) 
0

>  <r_i_glide_metal>  (305) 
-0

>  <r_i_glide_rewards>  (305) 
-0.588824

>  <r_i_glide_evdw>  (305) 
-19.5685

>  <r_i_glide_ecoul>  (305) 
-2.81032

>  <r_i_glide_erotb>  (305) 
0.113906

>  <r_i_glide_esite>  (305) 
0

>  <r_i_glide_emodel>  (305) 
-25.6611

>  <r_i_glide_energy>  (305) 
-22.3788

>  <r_i_glide_einternal>  (305) 
1.12771

>  <r_i_glide_intrahb_reward>  (305) 
-0

>  <i_i_glide_confnum>  (305) 
4

>  <i_i_glide_posenum>  (305) 
21

>  <r_i_glide_eff_state_penalty>  (305) 
0

>  <ligand_id>  (305) 
85

>  <original_smiles>  (305) 
CC(=O)C1CCC2(O)C1(C)C1(O)C(=C3CC3C(=O)OC1CO)C1C3CC4OC42C31C

>  <smiles>  (305) 
[H]OC([H])([H])C1([H])OC(=O)C2([H])C(=C3C4([H])C5([H])C([H])([H])C6([H])OC6(C6(O[H])C([H])([H])C([H])([H])C([H])(C(=O)C([H])([H])[H])C6(C([H])([H])[H])C31O[H])C45C([H])([H])[H])C2([H])[H]

$$$$
85:0:2
     RDKit          3D

 58 64  0  0  1  0  0  0  0  0999 V2000
    4.9641   -8.9624    3.6350 C   0  0  0  0  0  0  0  0  0  0  0  0
    5.3548   -7.5284    3.2996 C   0  0  0  0  0  0  0  0  0  0  0  0
    6.4258   -7.0902    3.7100 O   0  0  0  0  0  0  0  0  0  0  0  0
    4.3864   -6.7360    2.3861 C   0  0  2  0  0  0  0  0  0  0  0  0
    4.6112   -7.1646    0.9176 C   0  0  0  0  0  0  0  0  0  0  0  0
    4.7982   -5.8845    0.1123 C   0  0  0  0  0  0  0  0  0  0  0  0
    5.2511   -4.8382    1.1356 C   0  0  2  0  0  0  0  0  0  0  0  0
    6.6072   -5.1812    1.3533 O   0  0  0  0  0  0  0  0  0  0  0  0
    4.3668   -5.1418    2.4213 C   0  0  2  0  0  0  0  0  0  0  0  0
    5.0554   -4.5251    3.6830 C   0  0  0  0  0  0  0  0  0  0  0  0
    2.8346   -4.5920    2.4286 C   0  0  2  0  0  0  0  0  0  0  0  0
    2.0889   -5.3036    1.4578 O   0  0  0  0  0  0  0  0  0  0  0  0
    2.7574   -3.0840    2.0663 C   0  0  0  0  0  0  0  0  0  0  0  0
    2.3497   -2.1809    2.9771 C   0  0  0  0  0  0  0  0  0  0  0  0
    1.9134   -0.8302    3.3000 C   0  0  0  0  0  0  0  0  0  0  0  0
    1.8985   -2.0611    4.3450 C   0  0  1  0  0  0  0  0  0  0  0  0
    0.6856   -2.9014    4.5152 C   0  0  0  0  0  0  0  0  0  0  0  0
   -0.3424   -2.4616    5.0267 O   0  0  0  0  0  0  0  0  0  0  0  0
    0.8385   -4.1765    4.0437 O   0  0  0  0  0  0  0  0  0  0  0  0
    2.0994   -4.8305    3.8406 C   0  0  1  0  0  0  0  0  0  0  0  0
    1.9031   -6.2560    4.4166 C   0  0  0  0  0  0  0  0  0  0  0  0
    1.1585   -7.1171    3.5716 O   0  0  0  0  0  0  0  0  0  0  0  0
    2.8744   -2.6396    0.6486 C   0  0  1  0  0  0  0  0  0  0  0  0
    3.8354   -1.5044    0.2961 C   0  0  1  0  0  0  0  0  0  0  0  0
    4.9936   -1.0476    1.1634 C   0  0  0  0  0  0  0  0  0  0  0  0
    5.8781   -2.2569    1.2960 C   0  0  2  0  0  0  0  0  0  0  0  0
    6.5092   -2.8527    0.1118 O   0  0  0  0  0  0  0  0  0  0  0  0
    5.2443   -3.4256    0.5716 C   0  0  1  0  0  0  0  0  0  0  0  0
    4.0930   -2.9049   -0.1824 C   0  0  1  0  0  0  0  0  0  0  0  0
    3.9976   -3.1384   -1.6802 C   0  0  0  0  0  0  0  0  0  0  0  0
    4.6837   -9.5139    2.7370 H   0  0  0  0  0  0  0  0  0  0  0  0
    4.1341   -8.9828    4.3402 H   0  0  0  0  0  0  0  0  0  0  0  0
    5.8143   -9.4690    4.0889 H   0  0  0  0  0  0  0  0  0  0  0  0
    3.3989   -7.1089    2.6263 H   0  0  0  0  0  0  0  0  0  0  0  0
    5.5034   -7.7871    0.8199 H   0  0  0  0  0  0  0  0  0  0  0  0
    3.7792   -7.7451    0.5290 H   0  0  0  0  0  0  0  0  0  0  0  0
    5.4837   -5.9931   -0.7189 H   0  0  0  0  0  0  0  0  0  0  0  0
    3.8306   -5.6264   -0.3168 H   0  0  0  0  0  0  0  0  0  0  0  0
    7.0733   -5.0129    0.5612 H   0  0  0  0  0  0  0  0  0  0  0  0
    4.8628   -3.4600    3.7936 H   0  0  0  0  0  0  0  0  0  0  0  0
    6.1402   -4.6333    3.6786 H   0  0  0  0  0  0  0  0  0  0  0  0
    4.7270   -5.0185    4.5978 H   0  0  0  0  0  0  0  0  0  0  0  0
    2.5857   -5.3449    0.6716 H   0  0  0  0  0  0  0  0  0  0  0  0
    2.6375   -0.0481    3.5149 H   0  0  0  0  0  0  0  0  0  0  0  0
    0.9407   -0.4654    2.9700 H   0  0  0  0  0  0  0  0  0  0  0  0
    2.5885   -1.9798    5.1745 H   0  0  0  0  0  0  0  0  0  0  0  0
    2.7404   -4.3670    4.5923 H   0  0  0  0  0  0  0  0  0  0  0  0
    2.8635   -6.7198    4.6459 H   0  0  0  0  0  0  0  0  0  0  0  0
    1.3865   -6.1975    5.3735 H   0  0  0  0  0  0  0  0  0  0  0  0
    1.1329   -7.9719    3.9500 H   0  0  0  0  0  0  0  0  0  0  0  0
    1.9285   -2.6963    0.1189 H   0  0  0  0  0  0  0  0  0  0  0  0
    3.4958   -0.7688   -0.4502 H   0  0  0  0  0  0  0  0  0  0  0  0
    5.5358   -0.2095    0.7268 H   0  0  0  0  0  0  0  0  0  0  0  0
    4.6205   -0.7424    2.1368 H   0  0  0  0  0  0  0  0  0  0  0  0
    6.4344   -2.4159    2.2254 H   0  0  0  0  0  0  0  0  0  0  0  0
    4.9483   -2.8919   -2.1559 H   0  0  0  0  0  0  0  0  0  0  0  0
    3.2179   -2.5289   -2.1347 H   0  0  0  0  0  0  0  0  0  0  0  0
    3.7877   -4.1832   -1.9072 H   0  0  0  0  0  0  0  0  0  0  0  0
  1  2  1  0
  1 31  1  0
  1 32  1  0
  1 33  1  0
  2  3  2  0
  2  4  1  0
  4  9  1  0
  4  5  1  0
  4 34  1  1
  5  6  1  0
  5 35  1  0
  5 36  1  0
  6  7  1  0
  6 37  1  0
  6 38  1  0
  7 28  1  0
  7  8  1  1
  7  9  1  0
  8 39  1  0
  9 10  1  1
  9 11  1  0
 10 40  1  0
 10 41  1  0
 10 42  1  0
 11 20  1  0
 11 12  1  6
 11 13  1  0
 12 43  1  0
 13 14  2  0
 13 23  1  0
 14 16  1  0
 14 15  1  0
 15 16  1  0
 15 44  1  0
 15 45  1  0
 16 17  1  0
 16 46  1  1
 17 18  2  0
 17 19  1  0
 19 20  1  0
 20 21  1  0
 20 47  1  1
 21 22  1  0
 21 48  1  0
 21 49  1  0
 22 50  1  0
 23 29  1  0
 23 24  1  0
 23 51  1  6
 24 29  1  0
 24 25  1  0
 24 52  1  6
 25 26  1  0
 25 53  1  0
 25 54  1  0
 26 28  1  0
 26 27  1  0
 26 55  1  1
 28 27  1  6
 28 29  1  0
 29 30  1  6
 30 56  1  0
 30 57  1  0
 30 58  1  0
M  END
>  <i_m_ct_stereo_status>  (306) 
1

>  <s_m_source_file>  (306) 
/var/tmp/pbs.5076255.sched01/tmpulc5pjk6/123bob0etdf.sdf

>  <i_m_source_file_index>  (306) 
13

>  <i_lp_mmshare_version>  (306) 
48012

>  <i_f3d_flags>  (306) 
2

>  <s_epik_input>  (306) 
W0NIM11DKD1PKVtDQEhdKFtDSDJdW0NIMl0xKVtDQEBdKFtDSDNdKShbQ0BAXTEoW0NAXTIzNClbT0hdKVtDQF01KFtPSF0pQyhbQ0BIXTZbQ0BIXShbQ0gyXVtDQEhdMk8zKVtDQEBdNDZbQ0gzXSk9QzdbQ0hdKFtDSDJdNylDKD1PKU9bQ0BIXTVbQ0gyXVtPSF0=

>  <s_epik_cmdline>  (306) 
J2VwaWtfcHl0aG9uJywgJy1waHQnLCAnMi4wJywgJy1waCcsICc3LjAnLCAnLXRuJywgJzgnLCAnLW1hJywgJzIwMCcsICctaW1hZScsICc8aW5maWxlLm1hZT4nLCAnLW9tYWUnLCAnPG91dGZpbGUubWFlPic=

>  <r_lp_tautomer_probability>  (306) 
1

>  <r_epik_Ionization_Penalty>  (306) 
6.42827e-07

>  <r_epik_Ionization_Penalty_Charging>  (306) 
0

>  <r_epik_Ionization_Penalty_Neutral>  (306) 
6.42827e-07

>  <r_epik_State_Penalty>  (306) 
-0

>  <r_epik_Charging_Adjusted_Penalty>  (306) 
0

>  <i_epik_Tot_Q>  (306) 
0

>  <i_epik_Tot_abs_Q>  (306) 
0

>  <s_epik_Chemistry_Notes>  (306) 
This compound has an ester and may undergo hydrolysis at high or low pH.

>  <s_lp_Force_Field>  (306) 
OPLS3e

>  <r_lp_Energy>  (306) 
83.8888

>  <b_lp_Chiralities_Consistent>  (306) 
0

>  <s_lp_Variant>  (306) 
85:0-1

>  <s_i_glide_gridfile>  (306) 
pfpi4k_grid

>  <i_i_glide_lignum>  (306) 
13

>  <i_i_glide_rotatable_bonds>  (306) 
5

>  <r_i_docking_score>  (306) 
-2.33202

>  <r_i_glide_ligand_efficiency>  (306) 
-0.0777339

>  <r_i_glide_ligand_efficiency_sa>  (306) 
-0.241537

>  <r_i_glide_ligand_efficiency_ln>  (306) 
-0.529859

>  <r_i_glide_gscore>  (306) 
-2.33202

>  <r_i_glide_lipo>  (306) 
-0.478791

>  <r_i_glide_hbond>  (306) 
0

>  <r_i_glide_metal>  (306) 
-0

>  <r_i_glide_rewards>  (306) 
-0.60386

>  <r_i_glide_evdw>  (306) 
-19.4575

>  <r_i_glide_ecoul>  (306) 
-2.60263

>  <r_i_glide_erotb>  (306) 
0.113906

>  <r_i_glide_esite>  (306) 
0

>  <r_i_glide_emodel>  (306) 
-25.2551

>  <r_i_glide_energy>  (306) 
-22.0602

>  <r_i_glide_einternal>  (306) 
1.11011

>  <r_i_glide_intrahb_reward>  (306) 
-0

>  <i_i_glide_confnum>  (306) 
2

>  <i_i_glide_posenum>  (306) 
11

>  <r_i_glide_eff_state_penalty>  (306) 
0

>  <ligand_id>  (306) 
85

>  <original_smiles>  (306) 
CC(=O)C1CCC2(O)C1(C)C1(O)C(=C3CC3C(=O)OC1CO)C1C3CC4OC42C31C

>  <smiles>  (306) 
[H]OC([H])([H])C1([H])OC(=O)C2([H])C(=C3C4([H])C5([H])C([H])([H])C6([H])OC6(C6(O[H])C([H])([H])C([H])([H])C([H])(C(=O)C([H])([H])[H])C6(C([H])([H])[H])C31O[H])C45C([H])([H])[H])C2([H])[H]

$$$$
86:0:0
     RDKit          3D

 53 59  0  0  1  0  0  0  0  0999 V2000
   -0.8505    4.1726    3.7807 C   0  0  0  0  0  0  0  0  0  0  0  0
   -0.7152    3.3310    5.0604 C   0  0  2  0  0  0  0  0  0  0  0  0
    0.6477    3.1358    5.4514 O   0  0  0  0  0  0  0  0  0  0  0  0
    1.4256    2.0011    5.1390 C   0  0  1  0  0  0  0  0  0  0  0  0
    1.0236    0.8713    5.8826 O   0  0  0  0  0  0  0  0  0  0  0  0
    0.0235    0.0465    5.2550 C   0  0  2  0  0  0  0  0  0  0  0  0
    0.4533   -0.4542    3.8665 C   0  0  0  0  0  0  0  0  0  0  0  0
    1.7420   -0.7053    3.5991 C   0  0  0  0  0  0  0  0  0  0  0  0
    2.1566   -1.9746    3.0559 C   0  0  0  0  0  0  0  0  0  0  0  0
    2.8449   -1.9861    1.8845 C   0  0  0  0  0  0  0  0  0  0  0  0
    3.1797   -0.7590    1.2553 C   0  0  0  0  0  0  0  0  0  0  0  0
    3.8064   -1.1363    0.0244 C   0  0  0  0  0  0  0  0  0  0  0  0
    3.9042   -2.4199   -0.0633 N   0  0  0  0  0  0  0  0  0  0  0  0
    3.3448   -3.0003    1.0577 N   0  0  0  0  0  0  0  0  0  0  0  0
    3.3439   -4.4199    1.2557 C   0  0  0  0  0  0  0  0  0  0  0  0
    4.2119   -5.2403    0.4819 C   0  0  0  0  0  0  0  0  0  0  0  0
    4.2383   -6.6400    0.6803 C   0  0  0  0  0  0  0  0  0  0  0  0
    3.4191   -7.2416    1.6612 C   0  0  0  0  0  0  0  0  0  0  0  0
    2.5508   -6.4349    2.4232 C   0  0  0  0  0  0  0  0  0  0  0  0
    2.4912   -5.0486    2.1998 C   0  0  0  0  0  0  0  0  0  0  0  0
    3.0147    0.4563    1.8195 C   0  0  0  0  0  0  0  0  0  0  0  0
    2.5275    0.5568    3.2876 C   0  0  2  0  0  0  0  0  0  0  0  0
    3.8004    0.6157    4.1651 C   0  0  0  0  0  0  0  0  0  0  0  0
    1.4446    1.6547    3.6009 C   0  0  2  0  0  0  0  0  0  0  0  0
    1.7085    2.7972    2.8092 O   0  0  0  0  0  0  0  0  0  0  0  0
    0.1010    0.9456    3.3619 C   0  0  2  0  0  0  0  0  0  0  0  0
   -0.9958    0.8529    4.4460 C   0  0  2  0  0  0  0  0  0  0  0  0
   -1.6319    2.0892    5.0777 C   0  0  1  0  0  0  0  0  0  0  0  0
   -2.1679    1.7988    6.4934 C   0  0  0  0  0  0  0  0  0  0  0  0
   -1.8433    4.6161    3.7177 H   0  0  0  0  0  0  0  0  0  0  0  0
   -0.7181    3.5840    2.8779 H   0  0  0  0  0  0  0  0  0  0  0  0
   -0.1244    4.9866    3.7664 H   0  0  0  0  0  0  0  0  0  0  0  0
   -1.0859    4.0012    5.8361 H   0  0  0  0  0  0  0  0  0  0  0  0
    2.4069    2.2800    5.5047 H   0  0  0  0  0  0  0  0  0  0  0  0
   -0.4342   -0.6721    5.9402 H   0  0  0  0  0  0  0  0  0  0  0  0
    1.8808   -2.8342    3.6334 H   0  0  0  0  0  0  0  0  0  0  0  0
    4.1423   -0.3932   -0.7075 H   0  0  0  0  0  0  0  0  0  0  0  0
    4.8538   -4.8116   -0.2726 H   0  0  0  0  0  0  0  0  0  0  0  0
    4.8962   -7.2567    0.0717 H   0  0  0  0  0  0  0  0  0  0  0  0
    3.4281   -8.3073    1.8187 H   0  0  0  0  0  0  0  0  0  0  0  0
    1.9046   -6.8618    3.1721 H   0  0  0  0  0  0  0  0  0  0  0  0
    1.7493   -4.5232    2.7706 H   0  0  0  0  0  0  0  0  0  0  0  0
    3.3289    1.3489    1.3030 H   0  0  0  0  0  0  0  0  0  0  0  0
    4.5189   -0.1484    3.8609 H   0  0  0  0  0  0  0  0  0  0  0  0
    3.5984    0.4212    5.2203 H   0  0  0  0  0  0  0  0  0  0  0  0
    4.2988    1.5839    4.0785 H   0  0  0  0  0  0  0  0  0  0  0  0
    1.0472    2.8648    2.1331 H   0  0  0  0  0  0  0  0  0  0  0  0
   -0.2869    0.9839    2.3422 H   0  0  0  0  0  0  0  0  0  0  0  0
   -1.7958    0.1829    4.1081 H   0  0  0  0  0  0  0  0  0  0  0  0
   -2.5151    2.3505    4.4902 H   0  0  0  0  0  0  0  0  0  0  0  0
   -1.3583    1.5976    7.1960 H   0  0  0  0  0  0  0  0  0  0  0  0
   -2.8254    0.9296    6.4871 H   0  0  0  0  0  0  0  0  0  0  0  0
   -2.7436    2.6409    6.8827 H   0  0  0  0  0  0  0  0  0  0  0  0
  1  2  1  0
  1 30  1  0
  1 31  1  0
  1 32  1  0
  2 28  1  0
  2  3  1  0
  2 33  1  1
  3  4  1  0
  4 24  1  0
  4  5  1  0
  4 34  1  1
  5  6  1  0
  6 27  1  0
  6  7  1  0
  6 35  1  1
  7 26  1  0
  7  8  2  0
  8 22  1  0
  8  9  1  0
  9 10  2  0
  9 36  1  0
 10 14  1  0
 10 11  1  0
 11 12  1  0
 11 21  2  0
 12 13  2  0
 12 37  1  0
 13 14  1  0
 14 15  1  0
 15 20  1  0
 15 16  2  0
 16 17  1  0
 16 38  1  0
 17 18  2  0
 17 39  1  0
 18 19  1  0
 18 40  1  0
 19 20  2  0
 19 41  1  0
 20 42  1  0
 21 22  1  0
 21 43  1  0
 22 23  1  1
 22 24  1  0
 23 44  1  0
 23 45  1  0
 23 46  1  0
 24 25  1  6
 24 26  1  0
 25 47  1  0
 26 27  1  0
 26 48  1  6
 27 28  1  0
 27 49  1  6
 28 29  1  0
 28 50  1  6
 29 51  1  0
 29 52  1  0
 29 53  1  0
M  END
>  <i_m_ct_stereo_status>  (307) 
1

>  <s_m_source_file>  (307) 
/var/tmp/pbs.5076255.sched01/tmpulc5pjk6/123bob0etdf.sdf

>  <i_m_source_file_index>  (307) 
14

>  <i_lp_mmshare_version>  (307) 
48012

>  <i_f3d_flags>  (307) 
0

>  <s_epik_input>  (307) 
W0NIM11bQ0BIXTFbQ0BIXShbQ0gzXSlPW0NAQEhdKE8yKVtDQF0zKFtPSF0pW0NAQEhdNFtDQEhdMVtDQEhdMkM0PUMoW0NAXTM1W0NIM10pW0NIXT1jNmMoPVtDSF01KVtjSF1ubjYtYzdbY0hdW2NIXVtjSF1bY0hdW2NIXTc=

>  <s_epik_cmdline>  (307) 
J2VwaWtfcHl0aG9uJywgJy1waHQnLCAnMi4wJywgJy1waCcsICc3LjAnLCAnLXRuJywgJzgnLCAnLW1hJywgJzIwMCcsICctaW1hZScsICc8aW5maWxlLm1hZT4nLCAnLW9tYWUnLCAnPG91dGZpbGUubWFlPic=

>  <r_epik_Ionization_Penalty>  (307) 
0.00106501

>  <r_epik_Ionization_Penalty_Charging>  (307) 
0

>  <r_epik_Ionization_Penalty_Neutral>  (307) 
0.00106501

>  <r_epik_State_Penalty>  (307) 
0.00065393

>  <r_epik_Charging_Adjusted_Penalty>  (307) 
0.00065393

>  <i_epik_Tot_Q>  (307) 
0

>  <i_epik_Tot_abs_Q>  (307) 
0

>  <s_epik_Chemistry_Notes>  (307) 
This compound has an imine and may undergo hydrolysis. This compound contains an acetal/aminal-like group ( X-CH(R)-Y where X, Y are N, S, or O) that may be acid/base labile, releasing an aldehyde.

>  <s_lp_Force_Field>  (307) 
OPLS3e

>  <r_lp_Energy>  (307) 
102.389

>  <b_lp_Chiralities_Consistent>  (307) 
1

>  <s_lp_Variant>  (307) 
86:0-1

>  <s_i_glide_gridfile>  (307) 
pfpi4k_grid

>  <i_i_glide_lignum>  (307) 
14

>  <i_i_glide_rotatable_bonds>  (307) 
2

>  <r_i_docking_score>  (307) 
-2.50284

>  <r_i_glide_ligand_efficiency>  (307) 
-0.0863049

>  <r_i_glide_ligand_efficiency_sa>  (307) 
-0.265156

>  <r_i_glide_ligand_efficiency_ln>  (307) 
-0.573087

>  <r_i_glide_gscore>  (307) 
-2.50284

>  <r_i_glide_lipo>  (307) 
-0.324126

>  <r_i_glide_hbond>  (307) 
0

>  <r_i_glide_metal>  (307) 
-0

>  <r_i_glide_rewards>  (307) 
-0.760507

>  <r_i_glide_evdw>  (307) 
-29.246

>  <r_i_glide_ecoul>  (307) 
-0.497747

>  <r_i_glide_erotb>  (307) 
0.12912

>  <r_i_glide_esite>  (307) 
-0.0103658

>  <r_i_glide_emodel>  (307) 
-32.9682

>  <r_i_glide_energy>  (307) 
-29.7438

>  <r_i_glide_einternal>  (307) 
1.94361

>  <r_i_glide_intrahb_reward>  (307) 
-0

>  <i_i_glide_confnum>  (307) 
3

>  <i_i_glide_posenum>  (307) 
5

>  <r_i_glide_eff_state_penalty>  (307) 
0

>  <ligand_id>  (307) 
86

>  <original_smiles>  (307) 
CC1OC2OC3C4=C5C=c6c(cnn6-c6ccccc6)=CC5(C)C2(O)C4C3C1C

>  <smiles>  (307) 
[H]OC12C3([H])OC4([H])C(=C5C([H])=c6c(c([H])nn6-c6c([H])c([H])c([H])c([H])c6[H])=C([H])C51C([H])([H])[H])C2([H])C4([H])C([H])(C([H])([H])[H])C([H])(C([H])([H])[H])O3

$$$$
86:0:1
     RDKit          3D

 53 59  0  0  1  0  0  0  0  0999 V2000
    2.3247    3.2596    2.8208 C   0  0  0  0  0  0  0  0  0  0  0  0
    1.8668    2.8592    4.2302 C   0  0  2  0  0  0  0  0  0  0  0  0
    2.8383    2.0415    4.8953 O   0  0  0  0  0  0  0  0  0  0  0  0
    2.8011    0.6345    4.9743 C   0  0  1  0  0  0  0  0  0  0  0  0
    1.7688    0.1726    5.8198 O   0  0  0  0  0  0  0  0  0  0  0  0
    0.5102   -0.0870    5.1701 C   0  0  2  0  0  0  0  0  0  0  0  0
    0.6275   -1.1081    4.0239 C   0  0  0  0  0  0  0  0  0  0  0  0
    1.5254   -2.1017    4.0673 C   0  0  0  0  0  0  0  0  0  0  0  0
    1.1422   -3.4831    3.8241 C   0  0  0  0  0  0  0  0  0  0  0  0
    1.8114   -4.1741    2.8824 C   0  0  0  0  0  0  0  0  0  0  0  0
    2.8241   -3.5507    2.1118 C   0  0  0  0  0  0  0  0  0  0  0  0
    3.1389   -4.5087    1.0998 C   0  0  0  0  0  0  0  0  0  0  0  0
    2.4437   -5.5859    1.2376 N   0  0  0  0  0  0  0  0  0  0  0  0
    1.6272   -5.4457    2.3385 N   0  0  0  0  0  0  0  0  0  0  0  0
    0.8033   -6.4979    2.8170 C   0  0  0  0  0  0  0  0  0  0  0  0
    0.4780   -6.6070    4.1867 C   0  0  0  0  0  0  0  0  0  0  0  0
   -0.3516   -7.6483    4.6463 C   0  0  0  0  0  0  0  0  0  0  0  0
   -0.8449   -8.5995    3.7383 C   0  0  0  0  0  0  0  0  0  0  0  0
   -0.5173   -8.5117    2.3776 C   0  0  0  0  0  0  0  0  0  0  0  0
    0.3067   -7.4671    1.9135 C   0  0  0  0  0  0  0  0  0  0  0  0
    3.3605   -2.3459    2.3972 C   0  0  0  0  0  0  0  0  0  0  0  0
    2.9282   -1.6140    3.6890 C   0  0  2  0  0  0  0  0  0  0  0  0
    3.9519   -2.0353    4.7699 C   0  0  0  0  0  0  0  0  0  0  0  0
    2.6813   -0.0650    3.5734 C   0  0  2  0  0  0  0  0  0  0  0  0
    3.5824    0.4996    2.6492 O   0  0  0  0  0  0  0  0  0  0  0  0
    1.1992    0.0572    3.2026 C   0  0  2  0  0  0  0  0  0  0  0  0
    0.2117    0.8963    4.0367 C   0  0  2  0  0  0  0  0  0  0  0  0
    0.3967    2.3952    4.2876 C   0  0  1  0  0  0  0  0  0  0  0  0
   -0.2909    2.8458    5.5916 C   0  0  0  0  0  0  0  0  0  0  0  0
    1.7997    4.1534    2.4840 H   0  0  0  0  0  0  0  0  0  0  0  0
    2.1222    2.4924    2.0757 H   0  0  0  0  0  0  0  0  0  0  0  0
    3.3896    3.4997    2.8071 H   0  0  0  0  0  0  0  0  0  0  0  0
    1.9221    3.7991    4.7807 H   0  0  0  0  0  0  0  0  0  0  0  0
    3.7408    0.4079    5.4744 H   0  0  0  0  0  0  0  0  0  0  0  0
   -0.3155   -0.2035    5.8725 H   0  0  0  0  0  0  0  0  0  0  0  0
    0.3082   -3.9007    4.3584 H   0  0  0  0  0  0  0  0  0  0  0  0
    3.8851   -4.3050    0.3295 H   0  0  0  0  0  0  0  0  0  0  0  0
    0.8791   -5.9171    4.9113 H   0  0  0  0  0  0  0  0  0  0  0  0
   -0.5854   -7.7216    5.6978 H   0  0  0  0  0  0  0  0  0  0  0  0
   -1.4504   -9.4214    4.0822 H   0  0  0  0  0  0  0  0  0  0  0  0
   -0.8822   -9.2609    1.6868 H   0  0  0  0  0  0  0  0  0  0  0  0
    0.5569   -7.4266    0.8640 H   0  0  0  0  0  0  0  0  0  0  0  0
    4.1492   -1.9213    1.7894 H   0  0  0  0  0  0  0  0  0  0  0  0
    4.1032   -3.1178    4.7634 H   0  0  0  0  0  0  0  0  0  0  0  0
    3.6244   -1.7906    5.7812 H   0  0  0  0  0  0  0  0  0  0  0  0
    4.9248   -1.5720    4.5958 H   0  0  0  0  0  0  0  0  0  0  0  0
    3.4285    1.4337    2.6468 H   0  0  0  0  0  0  0  0  0  0  0  0
    0.9804    0.0475    2.1350 H   0  0  0  0  0  0  0  0  0  0  0  0
   -0.8061    0.7313    3.6751 H   0  0  0  0  0  0  0  0  0  0  0  0
   -0.1252    2.9389    3.4969 H   0  0  0  0  0  0  0  0  0  0  0  0
    0.2001    2.4240    6.4691 H   0  0  0  0  0  0  0  0  0  0  0  0
   -1.3358    2.5340    5.6107 H   0  0  0  0  0  0  0  0  0  0  0  0
   -0.2738    3.9320    5.6980 H   0  0  0  0  0  0  0  0  0  0  0  0
  1  2  1  0
  1 30  1  0
  1 31  1  0
  1 32  1  0
  2 28  1  0
  2  3  1  0
  2 33  1  1
  3  4  1  0
  4 24  1  0
  4  5  1  0
  4 34  1  1
  5  6  1  0
  6 27  1  0
  6  7  1  0
  6 35  1  1
  7 26  1  0
  7  8  2  0
  8 22  1  0
  8  9  1  0
  9 10  2  0
  9 36  1  0
 10 14  1  0
 10 11  1  0
 11 12  1  0
 11 21  2  0
 12 13  2  0
 12 37  1  0
 13 14  1  0
 14 15  1  0
 15 20  1  0
 15 16  2  0
 16 17  1  0
 16 38  1  0
 17 18  2  0
 17 39  1  0
 18 19  1  0
 18 40  1  0
 19 20  2  0
 19 41  1  0
 20 42  1  0
 21 22  1  0
 21 43  1  0
 22 23  1  1
 22 24  1  0
 23 44  1  0
 23 45  1  0
 23 46  1  0
 24 25  1  6
 24 26  1  0
 25 47  1  0
 26 27  1  0
 26 48  1  6
 27 28  1  0
 27 49  1  6
 28 29  1  0
 28 50  1  6
 29 51  1  0
 29 52  1  0
 29 53  1  0
M  END
>  <i_m_ct_stereo_status>  (308) 
1

>  <s_m_source_file>  (308) 
/var/tmp/pbs.5076255.sched01/tmpulc5pjk6/123bob0etdf.sdf

>  <i_m_source_file_index>  (308) 
14

>  <i_lp_mmshare_version>  (308) 
48012

>  <i_f3d_flags>  (308) 
0

>  <s_epik_input>  (308) 
W0NIM11bQ0BIXTFbQ0BIXShbQ0gzXSlPW0NAQEhdKE8yKVtDQF0zKFtPSF0pW0NAQEhdNFtDQEhdMVtDQEhdMkM0PUMoW0NAXTM1W0NIM10pW0NIXT1jNmMoPVtDSF01KVtjSF1ubjYtYzdbY0hdW2NIXVtjSF1bY0hdW2NIXTc=

>  <s_epik_cmdline>  (308) 
J2VwaWtfcHl0aG9uJywgJy1waHQnLCAnMi4wJywgJy1waCcsICc3LjAnLCAnLXRuJywgJzgnLCAnLW1hJywgJzIwMCcsICctaW1hZScsICc8aW5maWxlLm1hZT4nLCAnLW9tYWUnLCAnPG91dGZpbGUubWFlPic=

>  <r_epik_Ionization_Penalty>  (308) 
0.00106501

>  <r_epik_Ionization_Penalty_Charging>  (308) 
0

>  <r_epik_Ionization_Penalty_Neutral>  (308) 
0.00106501

>  <r_epik_State_Penalty>  (308) 
0.00065393

>  <r_epik_Charging_Adjusted_Penalty>  (308) 
0.00065393

>  <i_epik_Tot_Q>  (308) 
0

>  <i_epik_Tot_abs_Q>  (308) 
0

>  <s_epik_Chemistry_Notes>  (308) 
This compound has an imine and may undergo hydrolysis. This compound contains an acetal/aminal-like group ( X-CH(R)-Y where X, Y are N, S, or O) that may be acid/base labile, releasing an aldehyde.

>  <s_lp_Force_Field>  (308) 
OPLS3e

>  <r_lp_Energy>  (308) 
102.389

>  <b_lp_Chiralities_Consistent>  (308) 
1

>  <s_lp_Variant>  (308) 
86:0-1

>  <s_i_glide_gridfile>  (308) 
pfpi4k_grid

>  <i_i_glide_lignum>  (308) 
14

>  <i_i_glide_rotatable_bonds>  (308) 
2

>  <r_i_docking_score>  (308) 
-2.39023

>  <r_i_glide_ligand_efficiency>  (308) 
-0.0824217

>  <r_i_glide_ligand_efficiency_sa>  (308) 
-0.253226

>  <r_i_glide_ligand_efficiency_ln>  (308) 
-0.547302

>  <r_i_glide_gscore>  (308) 
-2.39023

>  <r_i_glide_lipo>  (308) 
-0.0422392

>  <r_i_glide_hbond>  (308) 
0

>  <r_i_glide_metal>  (308) 
-0

>  <r_i_glide_rewards>  (308) 
-0.760507

>  <r_i_glide_evdw>  (308) 
-25.1801

>  <r_i_glide_ecoul>  (308) 
-2.77046

>  <r_i_glide_erotb>  (308) 
0.12912

>  <r_i_glide_esite>  (308) 
-0.0420314

>  <r_i_glide_emodel>  (308) 
-32.3516

>  <r_i_glide_energy>  (308) 
-27.9505

>  <r_i_glide_einternal>  (308) 
0.0945149

>  <r_i_glide_intrahb_reward>  (308) 
-0

>  <i_i_glide_confnum>  (308) 
5

>  <i_i_glide_posenum>  (308) 
2

>  <r_i_glide_eff_state_penalty>  (308) 
0

>  <ligand_id>  (308) 
86

>  <original_smiles>  (308) 
CC1OC2OC3C4=C5C=c6c(cnn6-c6ccccc6)=CC5(C)C2(O)C4C3C1C

>  <smiles>  (308) 
[H]OC12C3([H])OC4([H])C(=C5C([H])=c6c(c([H])nn6-c6c([H])c([H])c([H])c([H])c6[H])=C([H])C51C([H])([H])[H])C2([H])C4([H])C([H])(C([H])([H])[H])C([H])(C([H])([H])[H])O3

$$$$
86:0:2
     RDKit          3D

 53 59  0  0  1  0  0  0  0  0999 V2000
    2.3069  -11.0276    3.6968 C   0  0  0  0  0  0  0  0  0  0  0  0
    3.4721  -10.1107    3.2814 C   0  0  2  0  0  0  0  0  0  0  0  0
    4.0686   -9.4552    4.4095 O   0  0  0  0  0  0  0  0  0  0  0  0
    3.7791   -8.1430    4.8376 C   0  0  1  0  0  0  0  0  0  0  0  0
    4.2860   -7.1636    3.9560 O   0  0  0  0  0  0  0  0  0  0  0  0
    3.3846   -6.7501    2.9095 C   0  0  2  0  0  0  0  0  0  0  0  0
    2.0508   -6.1989    3.4485 C   0  0  0  0  0  0  0  0  0  0  0  0
    1.9932   -5.5450    4.6164 C   0  0  0  0  0  0  0  0  0  0  0  0
    1.3345   -4.2519    4.7297 C   0  0  0  0  0  0  0  0  0  0  0  0
    0.3704   -4.1107    5.6554 C   0  0  0  0  0  0  0  0  0  0  0  0
   -0.0158   -5.2008    6.4733 C   0  0  0  0  0  0  0  0  0  0  0  0
   -1.1534   -4.7200    7.1877 C   0  0  0  0  0  0  0  0  0  0  0  0
   -1.4151   -3.4915    6.8855 N   0  0  0  0  0  0  0  0  0  0  0  0
   -0.4926   -3.0611    5.9608 N   0  0  0  0  0  0  0  0  0  0  0  0
   -0.4422   -1.7220    5.4976 C   0  0  0  0  0  0  0  0  0  0  0  0
    0.7854   -1.0842    5.2228 C   0  0  0  0  0  0  0  0  0  0  0  0
    0.8168    0.2468    4.7627 C   0  0  0  0  0  0  0  0  0  0  0  0
   -0.3868    0.9547    4.5872 C   0  0  0  0  0  0  0  0  0  0  0  0
   -1.6162    0.3341    4.8721 C   0  0  0  0  0  0  0  0  0  0  0  0
   -1.6442   -0.9965    5.3289 C   0  0  0  0  0  0  0  0  0  0  0  0
    0.6605   -6.3643    6.5612 C   0  0  0  0  0  0  0  0  0  0  0  0
    2.0020   -6.5148    5.8051 C   0  0  2  0  0  0  0  0  0  0  0  0
    3.1012   -6.1166    6.8199 C   0  0  0  0  0  0  0  0  0  0  0  0
    2.2469   -7.8868    5.0724 C   0  0  2  0  0  0  0  0  0  0  0  0
    1.6624   -8.9359    5.8102 O   0  0  0  0  0  0  0  0  0  0  0  0
    1.6689   -7.6706    3.6685 C   0  0  2  0  0  0  0  0  0  0  0  0
    2.5057   -7.8932    2.3940 C   0  0  2  0  0  0  0  0  0  0  0  0
    3.1605   -9.2340    2.0491 C   0  0  1  0  0  0  0  0  0  0  0  0
    4.4032   -9.0438    1.1562 C   0  0  0  0  0  0  0  0  0  0  0  0
    2.1287  -11.7841    2.9317 H   0  0  0  0  0  0  0  0  0  0  0  0
    1.3700  -10.4891    3.8237 H   0  0  0  0  0  0  0  0  0  0  0  0
    2.5369  -11.5621    4.6207 H   0  0  0  0  0  0  0  0  0  0  0  0
    4.2451  -10.8173    2.9746 H   0  0  0  0  0  0  0  0  0  0  0  0
    4.3596   -8.0680    5.7545 H   0  0  0  0  0  0  0  0  0  0  0  0
    3.8789   -6.1931    2.1127 H   0  0  0  0  0  0  0  0  0  0  0  0
    1.6024   -3.4495    4.0670 H   0  0  0  0  0  0  0  0  0  0  0  0
   -1.6978   -5.3561    7.8867 H   0  0  0  0  0  0  0  0  0  0  0  0
    1.7171   -1.6043    5.3772 H   0  0  0  0  0  0  0  0  0  0  0  0
    1.7652    0.7196    4.5514 H   0  0  0  0  0  0  0  0  0  0  0  0
   -0.3644    1.9729    4.2312 H   0  0  0  0  0  0  0  0  0  0  0  0
   -2.5417    0.8749    4.7226 H   0  0  0  0  0  0  0  0  0  0  0  0
   -2.5908   -1.4684    5.5330 H   0  0  0  0  0  0  0  0  0  0  0  0
    0.3402   -7.1629    7.2198 H   0  0  0  0  0  0  0  0  0  0  0  0
    2.8477   -5.1809    7.3225 H   0  0  0  0  0  0  0  0  0  0  0  0
    4.0698   -5.9437    6.3468 H   0  0  0  0  0  0  0  0  0  0  0  0
    3.2232   -6.8769    7.5939 H   0  0  0  0  0  0  0  0  0  0  0  0
    1.8751   -9.7448    5.3666 H   0  0  0  0  0  0  0  0  0  0  0  0
    0.6151   -7.9201    3.5535 H   0  0  0  0  0  0  0  0  0  0  0  0
    1.9455   -7.5520    1.5201 H   0  0  0  0  0  0  0  0  0  0  0  0
    2.4639   -9.8097    1.4354 H   0  0  0  0  0  0  0  0  0  0  0  0
    5.2114   -8.5427    1.6890 H   0  0  0  0  0  0  0  0  0  0  0  0
    4.1685   -8.4534    0.2701 H   0  0  0  0  0  0  0  0  0  0  0  0
    4.7973   -9.9980    0.8071 H   0  0  0  0  0  0  0  0  0  0  0  0
  1  2  1  0
  1 30  1  0
  1 31  1  0
  1 32  1  0
  2 28  1  0
  2  3  1  0
  2 33  1  6
  3  4  1  0
  4 24  1  0
  4  5  1  0
  4 34  1  1
  5  6  1  0
  6 27  1  0
  6  7  1  0
  6 35  1  6
  7 26  1  0
  7  8  2  0
  8 22  1  0
  8  9  1  0
  9 10  2  0
  9 36  1  0
 10 14  1  0
 10 11  1  0
 11 12  1  0
 11 21  2  0
 12 13  2  0
 12 37  1  0
 13 14  1  0
 14 15  1  0
 15 20  1  0
 15 16  2  0
 16 17  1  0
 16 38  1  0
 17 18  2  0
 17 39  1  0
 18 19  1  0
 18 40  1  0
 19 20  2  0
 19 41  1  0
 20 42  1  0
 21 22  1  0
 21 43  1  0
 22 23  1  1
 22 24  1  0
 23 44  1  0
 23 45  1  0
 23 46  1  0
 24 25  1  1
 24 26  1  0
 25 47  1  0
 26 27  1  0
 26 48  1  6
 27 28  1  0
 27 49  1  6
 28 29  1  0
 28 50  1  6
 29 51  1  0
 29 52  1  0
 29 53  1  0
M  END
>  <i_m_ct_stereo_status>  (309) 
1

>  <s_m_source_file>  (309) 
/var/tmp/pbs.5076255.sched01/tmpulc5pjk6/123bob0etdf.sdf

>  <i_m_source_file_index>  (309) 
14

>  <i_lp_mmshare_version>  (309) 
48012

>  <i_f3d_flags>  (309) 
0

>  <s_epik_input>  (309) 
W0NIM11bQ0BIXTFbQ0BIXShbQ0gzXSlPW0NAQEhdKE8yKVtDQF0zKFtPSF0pW0NAQEhdNFtDQEhdMVtDQEhdMkM0PUMoW0NAXTM1W0NIM10pW0NIXT1jNmMoPVtDSF01KVtjSF1ubjYtYzdbY0hdW2NIXVtjSF1bY0hdW2NIXTc=

>  <s_epik_cmdline>  (309) 
J2VwaWtfcHl0aG9uJywgJy1waHQnLCAnMi4wJywgJy1waCcsICc3LjAnLCAnLXRuJywgJzgnLCAnLW1hJywgJzIwMCcsICctaW1hZScsICc8aW5maWxlLm1hZT4nLCAnLW9tYWUnLCAnPG91dGZpbGUubWFlPic=

>  <r_epik_Ionization_Penalty>  (309) 
0.00106501

>  <r_epik_Ionization_Penalty_Charging>  (309) 
0

>  <r_epik_Ionization_Penalty_Neutral>  (309) 
0.00106501

>  <r_epik_State_Penalty>  (309) 
0.00065393

>  <r_epik_Charging_Adjusted_Penalty>  (309) 
0.00065393

>  <i_epik_Tot_Q>  (309) 
0

>  <i_epik_Tot_abs_Q>  (309) 
0

>  <s_epik_Chemistry_Notes>  (309) 
This compound has an imine and may undergo hydrolysis. This compound contains an acetal/aminal-like group ( X-CH(R)-Y where X, Y are N, S, or O) that may be acid/base labile, releasing an aldehyde.

>  <s_lp_Force_Field>  (309) 
OPLS3e

>  <r_lp_Energy>  (309) 
102.389

>  <b_lp_Chiralities_Consistent>  (309) 
1

>  <s_lp_Variant>  (309) 
86:0-1

>  <s_i_glide_gridfile>  (309) 
pfpi4k_grid

>  <i_i_glide_lignum>  (309) 
14

>  <i_i_glide_rotatable_bonds>  (309) 
2

>  <r_i_docking_score>  (309) 
-2.19707

>  <r_i_glide_ligand_efficiency>  (309) 
-0.0757611

>  <r_i_glide_ligand_efficiency_sa>  (309) 
-0.232762

>  <r_i_glide_ligand_efficiency_ln>  (309) 
-0.503074

>  <r_i_glide_gscore>  (309) 
-2.19707

>  <r_i_glide_lipo>  (309) 
-0.0489022

>  <r_i_glide_hbond>  (309) 
0

>  <r_i_glide_metal>  (309) 
-0

>  <r_i_glide_rewards>  (309) 
-0.760507

>  <r_i_glide_evdw>  (309) 
-25.2026

>  <r_i_glide_ecoul>  (309) 
-1.57073

>  <r_i_glide_erotb>  (309) 
0.12912

>  <r_i_glide_esite>  (309) 
-0.021043

>  <r_i_glide_emodel>  (309) 
-30.676

>  <r_i_glide_energy>  (309) 
-26.7733

>  <r_i_glide_einternal>  (309) 
0.361295

>  <r_i_glide_intrahb_reward>  (309) 
-0

>  <i_i_glide_confnum>  (309) 
1

>  <i_i_glide_posenum>  (309) 
16

>  <r_i_glide_eff_state_penalty>  (309) 
0

>  <ligand_id>  (309) 
86

>  <original_smiles>  (309) 
CC1OC2OC3C4=C5C=c6c(cnn6-c6ccccc6)=CC5(C)C2(O)C4C3C1C

>  <smiles>  (309) 
[H]OC12C3([H])OC4([H])C(=C5C([H])=c6c(c([H])nn6-c6c([H])c([H])c([H])c([H])c6[H])=C([H])C51C([H])([H])[H])C2([H])C4([H])C([H])(C([H])([H])[H])C([H])(C([H])([H])[H])O3

$$$$
87:0:0
     RDKit          3D

 37 40  0  0  1  0  0  0  0  0999 V2000
    6.4264   -2.1891    1.1655 C   0  0  0  0  0  0  0  0  0  0  0  0
    5.1457   -2.2297    0.3144 C   0  0  0  0  0  0  0  0  0  0  0  0
    5.3903   -1.6894   -1.1073 C   0  0  0  0  0  0  0  0  0  0  0  0
    4.0526   -1.5247    0.9947 N   0  0  0  0  0  0  0  0  0  0  0  0
    3.0660   -2.1865    1.6639 N   0  0  0  0  0  0  0  0  0  0  0  0
    2.3839   -1.2019    2.1966 C   0  0  0  0  0  0  0  0  0  0  0  0
    2.9521    0.0353    1.8519 C   0  0  0  0  0  0  0  0  0  0  0  0
    4.0222   -0.1682    1.1208 N   0  0  0  0  0  0  0  0  0  0  0  0
    2.4620    1.3847    2.3156 C   0  0  0  0  0  0  0  0  0  0  0  0
    1.2849    1.2127    3.1908 N   0  0  0  0  0  0  0  0  0  0  0  0
    0.5607    2.3626    3.6118 C   0  0  0  0  0  0  0  0  0  0  0  0
   -0.7116    2.1548    4.0148 N   0  0  0  0  0  0  0  0  0  0  0  0
   -1.4389    3.2090    4.3842 C   0  0  0  0  0  0  0  0  0  0  0  0
   -1.0854    4.4968    4.4555 N   0  0  0  0  0  0  0  0  0  0  0  0
    0.1792    4.7406    4.0883 C   0  0  0  0  0  0  0  0  0  0  0  0
    0.8123    6.0436    4.0944 C   0  0  0  0  0  0  0  0  0  0  0  0
    2.1109    5.9735    3.6745 C   0  0  0  0  0  0  0  0  0  0  0  0
    2.6397    4.3829    3.2564 S   0  0  0  0  0  0  0  0  0  0  0  0
    1.0655    3.6920    3.6668 C   0  0  0  0  0  0  0  0  0  0  0  0
    1.0975   -0.0379    3.9549 C   0  0  0  0  0  0  0  0  0  0  0  0
    1.1989   -1.3116    3.0860 C   0  0  0  0  0  0  0  0  0  0  0  0
    7.2300   -2.7651    0.7089 H   0  0  0  0  0  0  0  0  0  0  0  0
    6.2374   -2.6096    2.1518 H   0  0  0  0  0  0  0  0  0  0  0  0
    6.7817   -1.1679    1.2999 H   0  0  0  0  0  0  0  0  0  0  0  0
    4.8480   -3.2758    0.2162 H   0  0  0  0  0  0  0  0  0  0  0  0
    6.1431   -2.2804   -1.6247 H   0  0  0  0  0  0  0  0  0  0  0  0
    5.7292   -0.6559   -1.0899 H   0  0  0  0  0  0  0  0  0  0  0  0
    4.4803   -1.7328   -1.7018 H   0  0  0  0  0  0  0  0  0  0  0  0
    3.2659    1.8671    2.8618 H   0  0  0  0  0  0  0  0  0  0  0  0
    2.1991    2.0169    1.4652 H   0  0  0  0  0  0  0  0  0  0  0  0
   -2.4559    3.0086    4.6885 H   0  0  0  0  0  0  0  0  0  0  0  0
    0.3157    6.9675    4.3561 H   0  0  0  0  0  0  0  0  0  0  0  0
    2.7933    6.7976    3.5518 H   0  0  0  0  0  0  0  0  0  0  0  0
    1.9035   -0.0730    4.6834 H   0  0  0  0  0  0  0  0  0  0  0  0
    0.1748   -0.0567    4.5325 H   0  0  0  0  0  0  0  0  0  0  0  0
    0.3083   -1.3918    2.4705 H   0  0  0  0  0  0  0  0  0  0  0  0
    1.2493   -2.2151    3.7004 H   0  0  0  0  0  0  0  0  0  0  0  0
  1  2  1  0
  1 22  1  0
  1 23  1  0
  1 24  1  0
  2  3  1  0
  2  4  1  0
  2 25  1  0
  3 26  1  0
  3 27  1  0
  3 28  1  0
  4  8  1  0
  4  5  1  0
  5  6  2  0
  6 21  1  0
  6  7  1  0
  7  8  2  0
  7  9  1  0
  9 10  1  0
  9 29  1  0
  9 30  1  0
 10 11  1  0
 10 20  1  0
 11 19  1  0
 11 12  2  0
 12 13  1  0
 13 14  2  0
 13 31  1  0
 14 15  1  0
 15 19  2  0
 15 16  1  0
 16 17  2  0
 16 32  1  0
 17 18  1  0
 17 33  1  0
 18 19  1  0
 20 21  1  0
 20 34  1  0
 20 35  1  0
 21 36  1  0
 21 37  1  0
M  END
>  <i_m_ct_stereo_status>  (310) 
1

>  <s_m_source_file>  (310) 
/var/tmp/pbs.5076255.sched01/tmpulc5pjk6/123bob0etdf.sdf

>  <i_m_source_file_index>  (310) 
15

>  <i_lp_mmshare_version>  (310) 
48012

>  <i_f3d_flags>  (310) 
0

>  <s_epik_input>  (310) 
W0NIM11bQ0hdKFtDSDNdKW4objEpbmMoYzEyKVtDSDJdTihbQ0gyXVtDSDJdMiljKG5bY0hdbjMpYyhjMzQpc1tjSF1bY0hdNA==

>  <s_epik_cmdline>  (310) 
J2VwaWtfcHl0aG9uJywgJy1waHQnLCAnMi4wJywgJy1waCcsICc3LjAnLCAnLXRuJywgJzgnLCAnLW1hJywgJzIwMCcsICctaW1hZScsICc8aW5maWxlLm1hZT4nLCAnLW9tYWUnLCAnPG91dGZpbGUubWFlPic=

>  <r_lp_tautomer_probability>  (310) 
1

>  <r_epik_Ionization_Penalty>  (310) 
0.00628741

>  <r_epik_Ionization_Penalty_Charging>  (310) 
0

>  <r_epik_Ionization_Penalty_Neutral>  (310) 
0.00628741

>  <r_epik_State_Penalty>  (310) 
0.0045576

>  <r_epik_Charging_Adjusted_Penalty>  (310) 
0.0045576

>  <i_epik_Tot_Q>  (310) 
0

>  <i_epik_Tot_abs_Q>  (310) 
0

>  <s_lp_Force_Field>  (310) 
OPLS3e

>  <r_lp_Energy>  (310) 
13.5342

>  <b_lp_Chiralities_Consistent>  (310) 
1

>  <s_lp_Variant>  (310) 
87:0-1

>  <s_i_glide_gridfile>  (310) 
pfpi4k_grid

>  <i_i_glide_lignum>  (310) 
15

>  <i_i_glide_rotatable_bonds>  (310) 
2

>  <r_i_docking_score>  (310) 
-2.88275

>  <r_i_glide_ligand_efficiency>  (310) 
-0.137274

>  <r_i_glide_ligand_efficiency_sa>  (310) 
-0.378727

>  <r_i_glide_ligand_efficiency_ln>  (310) 
-0.712753

>  <r_i_glide_gscore>  (310) 
-2.88275

>  <r_i_glide_lipo>  (310) 
-0.138298

>  <r_i_glide_hbond>  (310) 
-0.0223061

>  <r_i_glide_metal>  (310) 
-0

>  <r_i_glide_rewards>  (310) 
-1.36102

>  <r_i_glide_evdw>  (310) 
-25.2111

>  <r_i_glide_ecoul>  (310) 
-1.57053

>  <r_i_glide_erotb>  (310) 
0.203711

>  <r_i_glide_esite>  (310) 
-0.0686921

>  <r_i_glide_emodel>  (310) 
-31.1502

>  <r_i_glide_energy>  (310) 
-26.7816

>  <r_i_glide_einternal>  (310) 
1.24151

>  <r_i_glide_intrahb_reward>  (310) 
-0

>  <i_i_glide_confnum>  (310) 
3

>  <i_i_glide_posenum>  (310) 
7

>  <r_i_glide_eff_state_penalty>  (310) 
0

>  <ligand_id>  (310) 
87

>  <original_smiles>  (310) 
CC(C)n1nc2c(n1)CN(c1ncnc3ccsc13)CC2

>  <smiles>  (310) 
[H]c1nc(N2C([H])([H])c3nn(C([H])(C([H])([H])[H])C([H])([H])[H])nc3C([H])([H])C2([H])[H])c2sc([H])c([H])c2n1

$$$$
87:0:1
     RDKit          3D

 37 40  0  0  1  0  0  0  0  0999 V2000
    5.7299   -3.2134   -2.7284 C   0  0  0  0  0  0  0  0  0  0  0  0
    6.0551   -2.2812   -1.5504 C   0  0  0  0  0  0  0  0  0  0  0  0
    7.4435   -2.5749   -0.9524 C   0  0  0  0  0  0  0  0  0  0  0  0
    5.0198   -2.3404   -0.5175 N   0  0  0  0  0  0  0  0  0  0  0  0
    4.7271   -3.4870    0.1525 N   0  0  0  0  0  0  0  0  0  0  0  0
    3.8211   -3.0829    1.0058 C   0  0  0  0  0  0  0  0  0  0  0  0
    3.5639   -1.7100    0.8448 C   0  0  0  0  0  0  0  0  0  0  0  0
    4.3311   -1.2370   -0.1076 N   0  0  0  0  0  0  0  0  0  0  0  0
    2.5791   -0.9060    1.6593 C   0  0  0  0  0  0  0  0  0  0  0  0
    1.9458   -1.7709    2.6809 N   0  0  0  0  0  0  0  0  0  0  0  0
    0.8851   -1.2454    3.4831 C   0  0  0  0  0  0  0  0  0  0  0  0
    0.4268   -2.0392    4.4768 N   0  0  0  0  0  0  0  0  0  0  0  0
   -0.5683   -1.6118    5.2460 C   0  0  0  0  0  0  0  0  0  0  0  0
   -1.2360   -0.4636    5.1871 N   0  0  0  0  0  0  0  0  0  0  0  0
   -0.8249    0.3644    4.2181 C   0  0  0  0  0  0  0  0  0  0  0  0
   -1.3841    1.6735    3.9507 C   0  0  0  0  0  0  0  0  0  0  0  0
   -0.7622    2.2800    2.8941 C   0  0  0  0  0  0  0  0  0  0  0  0
    0.5059    1.3463    2.1821 S   0  0  0  0  0  0  0  0  0  0  0  0
    0.2512    0.0210    3.3250 C   0  0  0  0  0  0  0  0  0  0  0  0
    2.6822   -2.9593    3.1797 C   0  0  0  0  0  0  0  0  0  0  0  0
    3.1639   -3.8974    2.0552 C   0  0  0  0  0  0  0  0  0  0  0  0
    6.4868   -3.1488   -3.5072 H   0  0  0  0  0  0  0  0  0  0  0  0
    4.7719   -2.9577   -3.1783 H   0  0  0  0  0  0  0  0  0  0  0  0
    5.6782   -4.2520   -2.4098 H   0  0  0  0  0  0  0  0  0  0  0  0
    6.0628   -1.2607   -1.9311 H   0  0  0  0  0  0  0  0  0  0  0  0
    8.2415   -2.4616   -1.6894 H   0  0  0  0  0  0  0  0  0  0  0  0
    7.4932   -3.5974   -0.5766 H   0  0  0  0  0  0  0  0  0  0  0  0
    7.6592   -1.9110   -0.1147 H   0  0  0  0  0  0  0  0  0  0  0  0
    3.0764   -0.0680    2.1459 H   0  0  0  0  0  0  0  0  0  0  0  0
    1.8269   -0.5109    0.9818 H   0  0  0  0  0  0  0  0  0  0  0  0
   -0.8920   -2.2827    6.0254 H   0  0  0  0  0  0  0  0  0  0  0  0
   -2.2010    2.0994    4.5114 H   0  0  0  0  0  0  0  0  0  0  0  0
   -0.9705    3.2521    2.4743 H   0  0  0  0  0  0  0  0  0  0  0  0
    3.5568   -2.5803    3.7055 H   0  0  0  0  0  0  0  0  0  0  0  0
    2.1388   -3.5615    3.9038 H   0  0  0  0  0  0  0  0  0  0  0  0
    2.3131   -4.4203    1.6206 H   0  0  0  0  0  0  0  0  0  0  0  0
    3.8478   -4.6555    2.4426 H   0  0  0  0  0  0  0  0  0  0  0  0
  1  2  1  0
  1 22  1  0
  1 23  1  0
  1 24  1  0
  2  3  1  0
  2  4  1  0
  2 25  1  0
  3 26  1  0
  3 27  1  0
  3 28  1  0
  4  8  1  0
  4  5  1  0
  5  6  2  0
  6 21  1  0
  6  7  1  0
  7  8  2  0
  7  9  1  0
  9 10  1  0
  9 29  1  0
  9 30  1  0
 10 11  1  0
 10 20  1  0
 11 19  1  0
 11 12  2  0
 12 13  1  0
 13 14  2  0
 13 31  1  0
 14 15  1  0
 15 19  2  0
 15 16  1  0
 16 17  2  0
 16 32  1  0
 17 18  1  0
 17 33  1  0
 18 19  1  0
 20 21  1  0
 20 34  1  0
 20 35  1  0
 21 36  1  0
 21 37  1  0
M  END
>  <i_m_ct_stereo_status>  (311) 
1

>  <s_m_source_file>  (311) 
/var/tmp/pbs.5076255.sched01/tmpulc5pjk6/123bob0etdf.sdf

>  <i_m_source_file_index>  (311) 
15

>  <i_lp_mmshare_version>  (311) 
48012

>  <i_f3d_flags>  (311) 
0

>  <s_epik_input>  (311) 
W0NIM11bQ0hdKFtDSDNdKW4objEpbmMoYzEyKVtDSDJdTihbQ0gyXVtDSDJdMiljKG5bY0hdbjMpYyhjMzQpc1tjSF1bY0hdNA==

>  <s_epik_cmdline>  (311) 
J2VwaWtfcHl0aG9uJywgJy1waHQnLCAnMi4wJywgJy1waCcsICc3LjAnLCAnLXRuJywgJzgnLCAnLW1hJywgJzIwMCcsICctaW1hZScsICc8aW5maWxlLm1hZT4nLCAnLW9tYWUnLCAnPG91dGZpbGUubWFlPic=

>  <r_lp_tautomer_probability>  (311) 
1

>  <r_epik_Ionization_Penalty>  (311) 
0.00628741

>  <r_epik_Ionization_Penalty_Charging>  (311) 
0

>  <r_epik_Ionization_Penalty_Neutral>  (311) 
0.00628741

>  <r_epik_State_Penalty>  (311) 
0.0045576

>  <r_epik_Charging_Adjusted_Penalty>  (311) 
0.0045576

>  <i_epik_Tot_Q>  (311) 
0

>  <i_epik_Tot_abs_Q>  (311) 
0

>  <s_lp_Force_Field>  (311) 
OPLS3e

>  <r_lp_Energy>  (311) 
13.5342

>  <b_lp_Chiralities_Consistent>  (311) 
1

>  <s_lp_Variant>  (311) 
87:0-1

>  <s_i_glide_gridfile>  (311) 
pfpi4k_grid

>  <i_i_glide_lignum>  (311) 
15

>  <i_i_glide_rotatable_bonds>  (311) 
2

>  <r_i_docking_score>  (311) 
-2.8096

>  <r_i_glide_ligand_efficiency>  (311) 
-0.13379

>  <r_i_glide_ligand_efficiency_sa>  (311) 
-0.369117

>  <r_i_glide_ligand_efficiency_ln>  (311) 
-0.694667

>  <r_i_glide_gscore>  (311) 
-2.8096

>  <r_i_glide_lipo>  (311) 
-0.23674

>  <r_i_glide_hbond>  (311) 
0

>  <r_i_glide_metal>  (311) 
-0

>  <r_i_glide_rewards>  (311) 
-1.36102

>  <r_i_glide_evdw>  (311) 
-26.711

>  <r_i_glide_ecoul>  (311) 
-0.19627

>  <r_i_glide_erotb>  (311) 
0.203711

>  <r_i_glide_esite>  (311) 
-0.0505515

>  <r_i_glide_emodel>  (311) 
-31.7105

>  <r_i_glide_energy>  (311) 
-26.9073

>  <r_i_glide_einternal>  (311) 
0.282645

>  <r_i_glide_intrahb_reward>  (311) 
-0

>  <i_i_glide_confnum>  (311) 
4

>  <i_i_glide_posenum>  (311) 
32

>  <r_i_glide_eff_state_penalty>  (311) 
0

>  <ligand_id>  (311) 
87

>  <original_smiles>  (311) 
CC(C)n1nc2c(n1)CN(c1ncnc3ccsc13)CC2

>  <smiles>  (311) 
[H]c1nc(N2C([H])([H])c3nn(C([H])(C([H])([H])[H])C([H])([H])[H])nc3C([H])([H])C2([H])[H])c2sc([H])c([H])c2n1

$$$$
87:0:2
     RDKit          3D

 37 40  0  0  1  0  0  0  0  0999 V2000
    6.3533   -1.0605    0.6960 C   0  0  0  0  0  0  0  0  0  0  0  0
    5.1339   -1.8610    0.2121 C   0  0  0  0  0  0  0  0  0  0  0  0
    4.9298   -1.7215   -1.3071 C   0  0  0  0  0  0  0  0  0  0  0  0
    3.9367   -1.4803    0.9703 N   0  0  0  0  0  0  0  0  0  0  0  0
    3.3581   -2.3143    1.8755 N   0  0  0  0  0  0  0  0  0  0  0  0
    2.4107   -1.5658    2.3799 C   0  0  0  0  0  0  0  0  0  0  0  0
    2.4018   -0.2952    1.7710 C   0  0  0  0  0  0  0  0  0  0  0  0
    3.3878   -0.2338    0.9056 N   0  0  0  0  0  0  0  0  0  0  0  0
    1.4320    0.8259    2.1046 C   0  0  0  0  0  0  0  0  0  0  0  0
    0.5417    0.3863    3.2075 N   0  0  0  0  0  0  0  0  0  0  0  0
   -0.4883    1.2878    3.5925 C   0  0  0  0  0  0  0  0  0  0  0  0
   -1.1413    1.8984    2.5895 N   0  0  0  0  0  0  0  0  0  0  0  0
   -2.0978    2.7724    2.8936 C   0  0  0  0  0  0  0  0  0  0  0  0
   -2.5473    3.1423    4.0999 N   0  0  0  0  0  0  0  0  0  0  0  0
   -1.9361    2.5405    5.1241 C   0  0  0  0  0  0  0  0  0  0  0  0
   -2.2460    2.7565    6.5264 C   0  0  0  0  0  0  0  0  0  0  0  0
   -1.4449    2.0071    7.3436 C   0  0  0  0  0  0  0  0  0  0  0  0
   -0.2939    1.0238    6.5029 S   0  0  0  0  0  0  0  0  0  0  0  0
   -0.8852    1.5798    4.9308 C   0  0  0  0  0  0  0  0  0  0  0  0
    0.9804   -0.6521    4.1504 C   0  0  0  0  0  0  0  0  0  0  0  0
    1.4743   -1.9377    3.4655 C   0  0  0  0  0  0  0  0  0  0  0  0
    7.2698   -1.3775    0.1990 H   0  0  0  0  0  0  0  0  0  0  0  0
    6.5005   -1.1960    1.7675 H   0  0  0  0  0  0  0  0  0  0  0  0
    6.2176    0.0044    0.5096 H   0  0  0  0  0  0  0  0  0  0  0  0
    5.3307   -2.9153    0.4161 H   0  0  0  0  0  0  0  0  0  0  0  0
    5.7961   -2.0883   -1.8540 H   0  0  0  0  0  0  0  0  0  0  0  0
    4.7694   -0.6845   -1.6015 H   0  0  0  0  0  0  0  0  0  0  0  0
    4.0715   -2.2996   -1.6435 H   0  0  0  0  0  0  0  0  0  0  0  0
    1.9761    1.7148    2.4152 H   0  0  0  0  0  0  0  0  0  0  0  0
    0.8649    1.1134    1.2168 H   0  0  0  0  0  0  0  0  0  0  0  0
   -2.6043    3.2451    2.0657 H   0  0  0  0  0  0  0  0  0  0  0  0
   -2.9999    3.4479    6.8744 H   0  0  0  0  0  0  0  0  0  0  0  0
   -1.4452    1.9966    8.4206 H   0  0  0  0  0  0  0  0  0  0  0  0
    1.8044   -0.2230    4.7208 H   0  0  0  0  0  0  0  0  0  0  0  0
    0.1929   -0.9292    4.8427 H   0  0  0  0  0  0  0  0  0  0  0  0
    0.6263   -2.4685    3.0374 H   0  0  0  0  0  0  0  0  0  0  0  0
    1.9506   -2.6035    4.1903 H   0  0  0  0  0  0  0  0  0  0  0  0
  1  2  1  0
  1 22  1  0
  1 23  1  0
  1 24  1  0
  2  3  1  0
  2  4  1  0
  2 25  1  0
  3 26  1  0
  3 27  1  0
  3 28  1  0
  4  8  1  0
  4  5  1  0
  5  6  2  0
  6 21  1  0
  6  7  1  0
  7  8  2  0
  7  9  1  0
  9 10  1  0
  9 29  1  0
  9 30  1  0
 10 11  1  0
 10 20  1  0
 11 19  1  0
 11 12  2  0
 12 13  1  0
 13 14  2  0
 13 31  1  0
 14 15  1  0
 15 19  2  0
 15 16  1  0
 16 17  2  0
 16 32  1  0
 17 18  1  0
 17 33  1  0
 18 19  1  0
 20 21  1  0
 20 34  1  0
 20 35  1  0
 21 36  1  0
 21 37  1  0
M  END
>  <i_m_ct_stereo_status>  (312) 
1

>  <s_m_source_file>  (312) 
/var/tmp/pbs.5076255.sched01/tmpulc5pjk6/123bob0etdf.sdf

>  <i_m_source_file_index>  (312) 
15

>  <i_lp_mmshare_version>  (312) 
48012

>  <i_f3d_flags>  (312) 
0

>  <s_epik_input>  (312) 
W0NIM11bQ0hdKFtDSDNdKW4objEpbmMoYzEyKVtDSDJdTihbQ0gyXVtDSDJdMiljKG5bY0hdbjMpYyhjMzQpc1tjSF1bY0hdNA==

>  <s_epik_cmdline>  (312) 
J2VwaWtfcHl0aG9uJywgJy1waHQnLCAnMi4wJywgJy1waCcsICc3LjAnLCAnLXRuJywgJzgnLCAnLW1hJywgJzIwMCcsICctaW1hZScsICc8aW5maWxlLm1hZT4nLCAnLW9tYWUnLCAnPG91dGZpbGUubWFlPic=

>  <r_lp_tautomer_probability>  (312) 
1

>  <r_epik_Ionization_Penalty>  (312) 
0.00628741

>  <r_epik_Ionization_Penalty_Charging>  (312) 
0

>  <r_epik_Ionization_Penalty_Neutral>  (312) 
0.00628741

>  <r_epik_State_Penalty>  (312) 
0.0045576

>  <r_epik_Charging_Adjusted_Penalty>  (312) 
0.0045576

>  <i_epik_Tot_Q>  (312) 
0

>  <i_epik_Tot_abs_Q>  (312) 
0

>  <s_lp_Force_Field>  (312) 
OPLS3e

>  <r_lp_Energy>  (312) 
13.5342

>  <b_lp_Chiralities_Consistent>  (312) 
1

>  <s_lp_Variant>  (312) 
87:0-1

>  <s_i_glide_gridfile>  (312) 
pfpi4k_grid

>  <i_i_glide_lignum>  (312) 
15

>  <i_i_glide_rotatable_bonds>  (312) 
2

>  <r_i_docking_score>  (312) 
-2.76855

>  <r_i_glide_ligand_efficiency>  (312) 
-0.131836

>  <r_i_glide_ligand_efficiency_sa>  (312) 
-0.363725

>  <r_i_glide_ligand_efficiency_ln>  (312) 
-0.684519

>  <r_i_glide_gscore>  (312) 
-2.76855

>  <r_i_glide_lipo>  (312) 
-0.23105

>  <r_i_glide_hbond>  (312) 
0

>  <r_i_glide_metal>  (312) 
-0

>  <r_i_glide_rewards>  (312) 
-1.36102

>  <r_i_glide_evdw>  (312) 
-25.9959

>  <r_i_glide_ecoul>  (312) 
0.0360827

>  <r_i_glide_erotb>  (312) 
0.203711

>  <r_i_glide_esite>  (312) 
-0.0858069

>  <r_i_glide_emodel>  (312) 
-29.9373

>  <r_i_glide_energy>  (312) 
-25.9598

>  <r_i_glide_einternal>  (312) 
1.49486

>  <r_i_glide_intrahb_reward>  (312) 
-0

>  <i_i_glide_confnum>  (312) 
6

>  <i_i_glide_posenum>  (312) 
10

>  <r_i_glide_eff_state_penalty>  (312) 
0

>  <ligand_id>  (312) 
87

>  <original_smiles>  (312) 
CC(C)n1nc2c(n1)CN(c1ncnc3ccsc13)CC2

>  <smiles>  (312) 
[H]c1nc(N2C([H])([H])c3nn(C([H])(C([H])([H])[H])C([H])([H])[H])nc3C([H])([H])C2([H])[H])c2sc([H])c([H])c2n1

$$$$
88:0:0
     RDKit          3D

 66 70  0  0  1  0  0  0  0  0999 V2000
    4.7430   -0.8462   -1.9404 C   0  0  0  0  0  0  0  0  0  0  0  0
    5.7571   -0.7895   -0.9537 O   0  0  0  0  0  0  0  0  0  0  0  0
    5.7581   -1.8003    0.0431 C   0  0  2  0  0  0  0  0  0  0  0  0
    6.0500   -3.1722   -0.5785 C   0  0  0  0  0  0  0  0  0  0  0  0
    5.9414   -4.2304    0.4925 C   0  0  0  0  0  0  0  0  0  0  0  0
    4.5494   -4.2773    1.1686 C   0  0  1  0  0  0  0  0  0  0  0  0
    4.2859   -2.8717    1.7900 C   0  0  0  0  0  0  0  0  0  0  0  0
    4.4064   -1.7476    0.7779 C   0  0  0  0  0  0  0  0  0  0  0  0
    3.4099   -4.6523    0.1676 C   0  0  0  0  0  0  0  0  0  0  0  0
    2.5768   -5.6681    0.8923 C   0  0  0  0  0  0  0  0  0  0  0  0
    1.3585   -6.2148    0.4793 C   0  0  0  0  0  0  0  0  0  0  0  0
    0.7356   -7.1593    1.3185 C   0  0  0  0  0  0  0  0  0  0  0  0
    1.3242   -7.5523    2.5467 C   0  0  0  0  0  0  0  0  0  0  0  0
    0.6497   -8.5813    3.4256 C   0  0  0  0  0  0  0  0  0  0  0  0
    1.2483   -9.9877    3.2655 C   0  0  0  0  0  0  0  0  0  0  0  0
    1.1654  -10.8283    4.5242 C   0  0  0  0  0  0  0  0  0  0  0  0
    2.0947  -12.0195    4.6651 C   0  0  0  0  0  0  0  0  0  0  0  0
    0.6170  -12.2406    4.4432 C   0  0  0  0  0  0  0  0  0  0  0  0
    2.5538   -6.9916    2.9448 C   0  0  0  0  0  0  0  0  0  0  0  0
    3.1638   -6.0544    2.0914 C   0  0  0  0  0  0  0  0  0  0  0  0
    4.4874   -5.3476    2.3020 C   0  0  2  0  0  0  0  0  0  0  0  0
    4.6836   -4.6749    3.5872 N   0  0  0  0  0  0  0  0  0  0  0  0
    5.7569   -5.2644    4.2119 C   0  0  0  0  0  0  0  0  0  0  0  0
    6.1498   -4.8625    5.4343 N   0  0  0  0  0  0  0  0  0  0  0  0
    6.3345   -6.2577    3.4917 N   0  0  0  0  0  0  0  0  0  0  0  0
    7.5825   -7.0147    3.8284 C   0  0  0  0  0  0  0  0  0  0  0  0
    8.7914   -6.5040    3.0242 C   0  0  0  0  0  0  0  0  0  0  0  0
    7.3590   -8.5199    3.7009 C   0  0  0  0  0  0  0  0  0  0  0  0
    5.6225   -6.3778    2.2728 C   0  0  0  0  0  0  0  0  0  0  0  0
    5.8634   -7.1699    1.3395 O   0  0  0  0  0  0  0  0  0  0  0  0
    4.9436   -0.0807   -2.6863 H   0  0  0  0  0  0  0  0  0  0  0  0
    3.7764   -0.6336   -1.4899 H   0  0  0  0  0  0  0  0  0  0  0  0
    4.6991   -1.8142   -2.4414 H   0  0  0  0  0  0  0  0  0  0  0  0
    6.5660   -1.5787    0.7492 H   0  0  0  0  0  0  0  0  0  0  0  0
    5.3452   -3.4180   -1.3661 H   0  0  0  0  0  0  0  0  0  0  0  0
    7.0467   -3.2075   -1.0247 H   0  0  0  0  0  0  0  0  0  0  0  0
    6.1368   -5.1789    0.0143 H   0  0  0  0  0  0  0  0  0  0  0  0
    6.7270   -4.0582    1.2316 H   0  0  0  0  0  0  0  0  0  0  0  0
    3.2884   -2.8302    2.2394 H   0  0  0  0  0  0  0  0  0  0  0  0
    4.9994   -2.6634    2.6019 H   0  0  0  0  0  0  0  0  0  0  0  0
    4.2847   -0.7748    1.2625 H   0  0  0  0  0  0  0  0  0  0  0  0
    3.5806   -1.8520    0.0771 H   0  0  0  0  0  0  0  0  0  0  0  0
    2.7908   -3.8120   -0.1423 H   0  0  0  0  0  0  0  0  0  0  0  0
    3.8240   -5.1073   -0.7246 H   0  0  0  0  0  0  0  0  0  0  0  0
    0.9109   -5.9176   -0.4515 H   0  0  0  0  0  0  0  0  0  0  0  0
   -0.1975   -7.5961    1.0180 H   0  0  0  0  0  0  0  0  0  0  0  0
    0.7184   -8.2434    4.4590 H   0  0  0  0  0  0  0  0  0  0  0  0
   -0.4117   -8.6093    3.1871 H   0  0  0  0  0  0  0  0  0  0  0  0
    0.7446  -10.5033    2.4446 H   0  0  0  0  0  0  0  0  0  0  0  0
    2.2987   -9.9210    2.9777 H   0  0  0  0  0  0  0  0  0  0  0  0
    0.9615  -10.2815    5.4474 H   0  0  0  0  0  0  0  0  0  0  0  0
    2.7613  -12.2353    3.8360 H   0  0  0  0  0  0  0  0  0  0  0  0
    2.4897  -12.2427    5.6540 H   0  0  0  0  0  0  0  0  0  0  0  0
    0.0240  -12.5963    5.2780 H   0  0  0  0  0  0  0  0  0  0  0  0
    0.2994  -12.5915    3.4631 H   0  0  0  0  0  0  0  0  0  0  0  0
    3.0379   -7.2829    3.8645 H   0  0  0  0  0  0  0  0  0  0  0  0
    5.6872   -4.1140    5.9334 H   0  0  0  0  0  0  0  0  0  0  0  0
    4.2491   -3.7386    3.6907 H   0  0  0  0  0  0  0  0  0  0  0  0
    7.7673   -6.7892    4.8733 H   0  0  0  0  0  0  0  0  0  0  0  0
    9.6895   -7.0031    3.3733 H   0  0  0  0  0  0  0  0  0  0  0  0
    8.9484   -5.4315    3.1472 H   0  0  0  0  0  0  0  0  0  0  0  0
    8.6957   -6.7146    1.9601 H   0  0  0  0  0  0  0  0  0  0  0  0
    8.2281   -9.0428    4.0613 H   0  0  0  0  0  0  0  0  0  0  0  0
    7.2023   -8.8305    2.6733 H   0  0  0  0  0  0  0  0  0  0  0  0
    6.5028   -8.8449    4.2864 H   0  0  0  0  0  0  0  0  0  0  0  0
    6.8971   -5.3958    5.9093 H   0  0  0  0  0  0  0  0  0  0  0  0
  1  2  1  0
  1 31  1  0
  1 32  1  0
  1 33  1  0
  2  3  1  0
  3  8  1  0
  3  4  1  0
  3 34  1  1
  4  5  1  0
  4 35  1  0
  4 36  1  0
  6  5  1  6
  5 37  1  0
  5 38  1  0
  6  7  1  0
  6  9  1  0
  6 21  1  0
  7  8  1  0
  7 39  1  0
  7 40  1  0
  8 41  1  0
  8 42  1  0
  9 10  1  0
  9 43  1  0
  9 44  1  0
 10 20  2  0
 10 11  1  0
 11 12  2  0
 11 45  1  0
 12 13  1  0
 12 46  1  0
 13 14  1  0
 13 19  2  0
 14 15  1  0
 14 47  1  0
 14 48  1  0
 15 16  1  0
 15 49  1  0
 15 50  1  0
 16 18  1  0
 16 17  1  0
 16 51  1  0
 17 18  1  0
 17 52  1  0
 17 53  1  0
 18 54  1  0
 18 55  1  0
 19 20  1  0
 19 56  1  0
 20 21  1  0
 21 22  1  0
 21 29  1  6
 22 23  2  0
 22 58  1  0
 23 25  1  0
 23 24  1  0
 24 57  1  0
 24 66  1  0
 25 29  1  0
 25 26  1  0
 26 27  1  0
 26 28  1  0
 26 59  1  0
 27 60  1  0
 27 61  1  0
 27 62  1  0
 28 63  1  0
 28 64  1  0
 28 65  1  0
 29 30  2  0
M  CHG  1  22   1
M  END
>  <i_m_ct_stereo_status>  (313) 
1

>  <s_m_source_file>  (313) 
/var/tmp/pbs.5076255.sched01/tmpulc5pjk6/123bob0etdf.sdf

>  <i_m_source_file_index>  (313) 
16

>  <i_lp_mmshare_version>  (313) 
48012

>  <i_f3d_flags>  (313) 
0

>  <s_epik_input>  (313) 
W0NIM11PW0NAQEhdKFtDSDJdW0NIMl0xKVtDSDJdW0NIMl1bQ0BAXTEyW0NAQF0zKE49QyhbTkgyXSlOKEMzPU8pW0NIXShbQ0gzXSlbQ0gzXSljNGMoW0NIMl0yKVtjSF1bY0hdYyhbY0hdNClbQ0gyXVtDSDJdW0NIXTVbQ0gyXVtDSDJdNQ==

>  <s_epik_cmdline>  (313) 
J2VwaWtfcHl0aG9uJywgJy1waHQnLCAnMi4wJywgJy1waCcsICc3LjAnLCAnLXRuJywgJzgnLCAnLW1hJywgJzIwMCcsICctaW1hZScsICc8aW5maWxlLm1hZT4nLCAnLW9tYWUnLCAnPG91dGZpbGUubWFlPic=

>  <r_lp_tautomer_probability>  (313) 
1

>  <r_epik_Ionization_Penalty>  (313) 
0.252075

>  <r_epik_Ionization_Penalty_Charging>  (313) 
0.252075

>  <r_epik_Ionization_Penalty_Neutral>  (313) 
3.29919e-11

>  <r_epik_State_Penalty>  (313) 
0.00350323

>  <r_epik_Charging_Adjusted_Penalty>  (313) 
0.255578

>  <i_epik_Tot_Q>  (313) 
1

>  <i_epik_Tot_abs_Q>  (313) 
1

>  <s_epik_Chemistry_Notes>  (313) 
This compound has an imine and may undergo hydrolysis.

>  <s_lp_Force_Field>  (313) 
OPLS3e

>  <r_lp_Energy>  (313) 
32.079

>  <b_lp_Chiralities_Consistent>  (313) 
1

>  <s_lp_Variant>  (313) 
88:0-1

>  <s_i_glide_gridfile>  (313) 
pfpi4k_grid

>  <i_i_glide_lignum>  (313) 
16

>  <i_i_glide_rotatable_bonds>  (313) 
5

>  <r_i_docking_score>  (313) 
-2.19206

>  <r_i_glide_ligand_efficiency>  (313) 
-0.0730685

>  <r_i_glide_ligand_efficiency_sa>  (313) 
-0.227041

>  <r_i_glide_ligand_efficiency_ln>  (313) 
-0.498059

>  <r_i_glide_gscore>  (313) 
-2.19206

>  <r_i_glide_lipo>  (313) 
-0.28557

>  <r_i_glide_hbond>  (313) 
-0.037396

>  <r_i_glide_metal>  (313) 
-0

>  <r_i_glide_rewards>  (313) 
-0.634755

>  <r_i_glide_evdw>  (313) 
-24.6581

>  <r_i_glide_ecoul>  (313) 
-2.34701

>  <r_i_glide_erotb>  (313) 
0.350623

>  <r_i_glide_esite>  (313) 
0

>  <r_i_glide_emodel>  (313) 
-24.3043

>  <r_i_glide_energy>  (313) 
-27.0051

>  <r_i_glide_einternal>  (313) 
8.60569

>  <r_i_glide_intrahb_reward>  (313) 
-0

>  <i_i_glide_confnum>  (313) 
5

>  <i_i_glide_posenum>  (313) 
19

>  <r_i_glide_eff_state_penalty>  (313) 
0

>  <ligand_id>  (313) 
88

>  <original_smiles>  (313) 
COC1CCC2(CC1)Cc1ccc(CCC3CC3)cc1C21N=C(N)N(C(C)C)C1=O

>  <smiles>  (313) 
[H]c1c([H])c2c(c([H])c1C([H])([H])C([H])([H])C1([H])C([H])([H])C1([H])[H])C1(C(=O)N(C([H])(C([H])([H])[H])C([H])([H])[H])C(N([H])[H])=[N+]1[H])C1(C2([H])[H])C([H])([H])C([H])([H])C([H])(OC([H])([H])[H])C([H])([H])C1([H])[H]

$$$$
88:0:1
     RDKit          3D

 66 70  0  0  1  0  0  0  0  0999 V2000
    4.7199   -1.0663   -2.1148 C   0  0  0  0  0  0  0  0  0  0  0  0
    5.8017   -1.0313   -1.1644 O   0  0  0  0  0  0  0  0  0  0  0  0
    5.7423   -1.9761   -0.1196 C   0  0  2  0  0  0  0  0  0  0  0  0
    5.9981   -3.3865   -0.6683 C   0  0  0  0  0  0  0  0  0  0  0  0
    5.8633   -4.3857    0.4519 C   0  0  0  0  0  0  0  0  0  0  0  0
    4.4746   -4.3693    1.1285 C   0  0  1  0  0  0  0  0  0  0  0  0
    4.2416   -2.9238    1.6833 C   0  0  0  0  0  0  0  0  0  0  0  0
    4.3909   -1.8584    0.6169 C   0  0  0  0  0  0  0  0  0  0  0  0
    3.3331   -4.7677    0.1357 C   0  0  0  0  0  0  0  0  0  0  0  0
    2.4703   -5.7166    0.9202 C   0  0  0  0  0  0  0  0  0  0  0  0
    1.2296   -6.2420    0.5432 C   0  0  0  0  0  0  0  0  0  0  0  0
    0.5980   -7.1431    1.4174 C   0  0  0  0  0  0  0  0  0  0  0  0
    1.1791   -7.4985    2.6592 C   0  0  0  0  0  0  0  0  0  0  0  0
    0.4820   -8.4771    3.5821 C   0  0  0  0  0  0  0  0  0  0  0  0
    0.3096   -7.9272    5.0068 C   0  0  0  0  0  0  0  0  0  0  0  0
   -0.4163   -8.8914    5.9304 C   0  0  0  0  0  0  0  0  0  0  0  0
   -0.0595   -8.9111    7.3980 C   0  0  0  0  0  0  0  0  0  0  0  0
    0.3274  -10.0660    6.5022 C   0  0  0  0  0  0  0  0  0  0  0  0
    2.4210   -6.9478    3.0302 C   0  0  0  0  0  0  0  0  0  0  0  0
    3.0422   -6.0683    2.1360 C   0  0  0  0  0  0  0  0  0  0  0  0
    4.3791   -5.3844    2.3121 C   0  0  2  0  0  0  0  0  0  0  0  0
    4.5944   -4.6689    3.5690 N   0  0  0  0  0  0  0  0  0  0  0  0
    5.6514   -5.2347    4.2165 C   0  0  0  0  0  0  0  0  0  0  0  0
    6.0660   -4.7857    5.4182 N   0  0  0  0  0  0  0  0  0  0  0  0
    6.2205   -6.2792    3.5469 N   0  0  0  0  0  0  0  0  0  0  0  0
    7.4449   -7.0399    3.9174 C   0  0  0  0  0  0  0  0  0  0  0  0
    8.6510   -6.6354    3.0557 C   0  0  0  0  0  0  0  0  0  0  0  0
    7.1693   -8.5402    3.9147 C   0  0  0  0  0  0  0  0  0  0  0  0
    5.5015   -6.4402    2.3285 C   0  0  0  0  0  0  0  0  0  0  0  0
    5.7202   -7.2736    1.4537 O   0  0  0  0  0  0  0  0  0  0  0  0
    4.9377   -0.3513   -2.8965 H   0  0  0  0  0  0  0  0  0  0  0  0
    3.7880   -0.7686   -1.6486 H   0  0  0  0  0  0  0  0  0  0  0  0
    4.6100   -2.0509   -2.5590 H   0  0  0  0  0  0  0  0  0  0  0  0
    6.5568   -1.7444    0.5857 H   0  0  0  0  0  0  0  0  0  0  0  0
    5.2867   -3.6481   -1.4454 H   0  0  0  0  0  0  0  0  0  0  0  0
    6.9912   -3.4620   -1.1128 H   0  0  0  0  0  0  0  0  0  0  0  0
    6.0366   -5.3587    0.0155 H   0  0  0  0  0  0  0  0  0  0  0  0
    6.6528   -4.1960    1.1805 H   0  0  0  0  0  0  0  0  0  0  0  0
    3.2449   -2.8410    2.1274 H   0  0  0  0  0  0  0  0  0  0  0  0
    4.9654   -2.6829    2.4741 H   0  0  0  0  0  0  0  0  0  0  0  0
    4.2883   -0.8580    1.0553 H   0  0  0  0  0  0  0  0  0  0  0  0
    3.5581   -1.9842   -0.0757 H   0  0  0  0  0  0  0  0  0  0  0  0
    2.7241   -3.9274   -0.2057 H   0  0  0  0  0  0  0  0  0  0  0  0
    3.7302   -5.2703   -0.7215 H   0  0  0  0  0  0  0  0  0  0  0  0
    0.7928   -5.9973   -0.4082 H   0  0  0  0  0  0  0  0  0  0  0  0
   -0.3511   -7.5791    1.1361 H   0  0  0  0  0  0  0  0  0  0  0  0
   -0.4905   -8.7362    3.1642 H   0  0  0  0  0  0  0  0  0  0  0  0
    1.0574   -9.4036    3.6036 H   0  0  0  0  0  0  0  0  0  0  0  0
    1.2922   -7.7186    5.4390 H   0  0  0  0  0  0  0  0  0  0  0  0
   -0.2319   -6.9821    4.9879 H   0  0  0  0  0  0  0  0  0  0  0  0
   -1.4516   -9.0855    5.6699 H   0  0  0  0  0  0  0  0  0  0  0  0
    0.7351   -8.2455    7.7321 H   0  0  0  0  0  0  0  0  0  0  0  0
   -0.8612   -9.0746    8.1119 H   0  0  0  0  0  0  0  0  0  0  0  0
   -0.2197  -11.0003    6.6217 H   0  0  0  0  0  0  0  0  0  0  0  0
    1.3777  -10.1782    6.2378 H   0  0  0  0  0  0  0  0  0  0  0  0
    2.9078   -7.2044    3.9590 H   0  0  0  0  0  0  0  0  0  0  0  0
    5.6134   -3.9946    5.8863 H   0  0  0  0  0  0  0  0  0  0  0  0
    4.1952   -3.7068    3.6230 H   0  0  0  0  0  0  0  0  0  0  0  0
    7.6574   -6.7418    4.9378 H   0  0  0  0  0  0  0  0  0  0  0  0
    9.5388   -7.1338    3.4268 H   0  0  0  0  0  0  0  0  0  0  0  0
    8.8434   -5.5616    3.0887 H   0  0  0  0  0  0  0  0  0  0  0  0
    8.5311   -6.9285    2.0143 H   0  0  0  0  0  0  0  0  0  0  0  0
    8.0267   -9.0649    4.2985 H   0  0  0  0  0  0  0  0  0  0  0  0
    6.9792   -8.9287    2.9189 H   0  0  0  0  0  0  0  0  0  0  0  0
    6.3174   -8.7951    4.5413 H   0  0  0  0  0  0  0  0  0  0  0  0
    6.7924   -5.3107    5.9145 H   0  0  0  0  0  0  0  0  0  0  0  0
  1  2  1  0
  1 31  1  0
  1 32  1  0
  1 33  1  0
  2  3  1  0
  3  8  1  0
  3  4  1  0
  3 34  1  1
  4  5  1  0
  4 35  1  0
  4 36  1  0
  6  5  1  6
  5 37  1  0
  5 38  1  0
  6  7  1  0
  6  9  1  0
  6 21  1  0
  7  8  1  0
  7 39  1  0
  7 40  1  0
  8 41  1  0
  8 42  1  0
  9 10  1  0
  9 43  1  0
  9 44  1  0
 10 20  2  0
 10 11  1  0
 11 12  2  0
 11 45  1  0
 12 13  1  0
 12 46  1  0
 13 14  1  0
 13 19  2  0
 14 15  1  0
 14 47  1  0
 14 48  1  0
 15 16  1  0
 15 49  1  0
 15 50  1  0
 16 18  1  0
 16 17  1  0
 16 51  1  0
 17 18  1  0
 17 52  1  0
 17 53  1  0
 18 54  1  0
 18 55  1  0
 19 20  1  0
 19 56  1  0
 20 21  1  0
 21 22  1  0
 21 29  1  6
 22 23  2  0
 22 58  1  0
 23 25  1  0
 23 24  1  0
 24 57  1  0
 24 66  1  0
 25 29  1  0
 25 26  1  0
 26 27  1  0
 26 28  1  0
 26 59  1  0
 27 60  1  0
 27 61  1  0
 27 62  1  0
 28 63  1  0
 28 64  1  0
 28 65  1  0
 29 30  2  0
M  CHG  1  22   1
M  END
>  <i_m_ct_stereo_status>  (314) 
1

>  <s_m_source_file>  (314) 
/var/tmp/pbs.5076255.sched01/tmpulc5pjk6/123bob0etdf.sdf

>  <i_m_source_file_index>  (314) 
16

>  <i_lp_mmshare_version>  (314) 
48012

>  <i_f3d_flags>  (314) 
0

>  <s_epik_input>  (314) 
W0NIM11PW0NAQEhdKFtDSDJdW0NIMl0xKVtDSDJdW0NIMl1bQ0BAXTEyW0NAQF0zKE49QyhbTkgyXSlOKEMzPU8pW0NIXShbQ0gzXSlbQ0gzXSljNGMoW0NIMl0yKVtjSF1bY0hdYyhbY0hdNClbQ0gyXVtDSDJdW0NIXTVbQ0gyXVtDSDJdNQ==

>  <s_epik_cmdline>  (314) 
J2VwaWtfcHl0aG9uJywgJy1waHQnLCAnMi4wJywgJy1waCcsICc3LjAnLCAnLXRuJywgJzgnLCAnLW1hJywgJzIwMCcsICctaW1hZScsICc8aW5maWxlLm1hZT4nLCAnLW9tYWUnLCAnPG91dGZpbGUubWFlPic=

>  <r_lp_tautomer_probability>  (314) 
1

>  <r_epik_Ionization_Penalty>  (314) 
0.252075

>  <r_epik_Ionization_Penalty_Charging>  (314) 
0.252075

>  <r_epik_Ionization_Penalty_Neutral>  (314) 
3.29919e-11

>  <r_epik_State_Penalty>  (314) 
0.00350323

>  <r_epik_Charging_Adjusted_Penalty>  (314) 
0.255578

>  <i_epik_Tot_Q>  (314) 
1

>  <i_epik_Tot_abs_Q>  (314) 
1

>  <s_epik_Chemistry_Notes>  (314) 
This compound has an imine and may undergo hydrolysis.

>  <s_lp_Force_Field>  (314) 
OPLS3e

>  <r_lp_Energy>  (314) 
32.079

>  <b_lp_Chiralities_Consistent>  (314) 
1

>  <s_lp_Variant>  (314) 
88:0-1

>  <s_i_glide_gridfile>  (314) 
pfpi4k_grid

>  <i_i_glide_lignum>  (314) 
16

>  <i_i_glide_rotatable_bonds>  (314) 
5

>  <r_i_docking_score>  (314) 
-2.14986

>  <r_i_glide_ligand_efficiency>  (314) 
-0.0716619

>  <r_i_glide_ligand_efficiency_sa>  (314) 
-0.22267

>  <r_i_glide_ligand_efficiency_ln>  (314) 
-0.488471

>  <r_i_glide_gscore>  (314) 
-2.14986

>  <r_i_glide_lipo>  (314) 
-0.23261

>  <r_i_glide_hbond>  (314) 
-0.0636746

>  <r_i_glide_metal>  (314) 
-0

>  <r_i_glide_rewards>  (314) 
-0.62547

>  <r_i_glide_evdw>  (314) 
-23.1464

>  <r_i_glide_ecoul>  (314) 
-2.80935

>  <r_i_glide_erotb>  (314) 
0.350623

>  <r_i_glide_esite>  (314) 
0

>  <r_i_glide_emodel>  (314) 
-24.8523

>  <r_i_glide_energy>  (314) 
-25.9558

>  <r_i_glide_einternal>  (314) 
5.17411

>  <r_i_glide_intrahb_reward>  (314) 
-0

>  <i_i_glide_confnum>  (314) 
5

>  <i_i_glide_posenum>  (314) 
1

>  <r_i_glide_eff_state_penalty>  (314) 
0

>  <ligand_id>  (314) 
88

>  <original_smiles>  (314) 
COC1CCC2(CC1)Cc1ccc(CCC3CC3)cc1C21N=C(N)N(C(C)C)C1=O

>  <smiles>  (314) 
[H]c1c([H])c2c(c([H])c1C([H])([H])C([H])([H])C1([H])C([H])([H])C1([H])[H])C1(C(=O)N(C([H])(C([H])([H])[H])C([H])([H])[H])C(N([H])[H])=[N+]1[H])C1(C2([H])[H])C([H])([H])C([H])([H])C([H])(OC([H])([H])[H])C([H])([H])C1([H])[H]

$$$$
88:0:2
     RDKit          3D

 66 70  0  0  1  0  0  0  0  0999 V2000
    8.7687   -2.5222   -0.5381 C   0  0  0  0  0  0  0  0  0  0  0  0
    7.4742   -2.3377   -0.0029 O   0  0  0  0  0  0  0  0  0  0  0  0
    7.0603   -3.3711    0.8610 C   0  0  2  0  0  0  0  0  0  0  0  0
    6.8998   -4.6748    0.0912 C   0  0  0  0  0  0  0  0  0  0  0  0
    6.3734   -5.7350    1.0089 C   0  0  0  0  0  0  0  0  0  0  0  0
    4.9964   -5.4029    1.6009 C   0  0  1  0  0  0  0  0  0  0  0  0
    5.1451   -4.0536    2.3658 C   0  0  0  0  0  0  0  0  0  0  0  0
    5.7248   -2.9421    1.4998 C   0  0  0  0  0  0  0  0  0  0  0  0
    3.8919   -5.2792    0.5087 C   0  0  0  0  0  0  0  0  0  0  0  0
    2.7189   -6.0335    1.0668 C   0  0  0  0  0  0  0  0  0  0  0  0
    1.4229   -6.1037    0.5372 C   0  0  0  0  0  0  0  0  0  0  0  0
    0.4692   -6.8778    1.2294 C   0  0  0  0  0  0  0  0  0  0  0  0
    0.8016   -7.5570    2.4217 C   0  0  0  0  0  0  0  0  0  0  0  0
   -0.2369   -8.4016    3.1298 C   0  0  0  0  0  0  0  0  0  0  0  0
    0.0336   -9.9140    3.0436 C   0  0  0  0  0  0  0  0  0  0  0  0
    1.2743  -10.3738    3.7889 C   0  0  0  0  0  0  0  0  0  0  0  0
    1.3648  -11.7883    4.2926 C   0  0  0  0  0  0  0  0  0  0  0  0
    1.1931  -10.6477    5.2693 C   0  0  0  0  0  0  0  0  0  0  0  0
    2.1049   -7.4556    2.9473 C   0  0  0  0  0  0  0  0  0  0  0  0
    3.0443   -6.7010    2.2346 C   0  0  0  0  0  0  0  0  0  0  0  0
    4.4910   -6.4931    2.5851 C   0  0  2  0  0  0  0  0  0  0  0  0
    4.7842   -6.0751    3.9526 N   0  0  0  0  0  0  0  0  0  0  0  0
    5.5697   -7.0260    4.5522 C   0  0  0  0  0  0  0  0  0  0  0  0
    5.9731   -6.9243    5.8289 N   0  0  0  0  0  0  0  0  0  0  0  0
    5.8585   -8.0779    3.7400 N   0  0  0  0  0  0  0  0  0  0  0  0
    6.7616   -9.2422    4.0221 C   0  0  0  0  0  0  0  0  0  0  0  0
    6.2300  -10.0972    5.1677 C   0  0  0  0  0  0  0  0  0  0  0  0
    8.2212   -8.8072    4.2033 C   0  0  0  0  0  0  0  0  0  0  0  0
    5.2503   -7.8481    2.4794 C   0  0  0  0  0  0  0  0  0  0  0  0
    5.3056   -8.5589    1.4939 O   0  0  0  0  0  0  0  0  0  0  0  0
    8.9594   -1.6340   -1.1245 H   0  0  0  0  0  0  0  0  0  0  0  0
    8.8340   -3.3709   -1.2190 H   0  0  0  0  0  0  0  0  0  0  0  0
    9.5243   -2.6315    0.2436 H   0  0  0  0  0  0  0  0  0  0  0  0
    7.8129   -3.5170    1.6392 H   0  0  0  0  0  0  0  0  0  0  0  0
    6.2224   -4.5359   -0.7615 H   0  0  0  0  0  0  0  0  0  0  0  0
    7.8533   -5.0251   -0.3130 H   0  0  0  0  0  0  0  0  0  0  0  0
    6.2777   -6.6526    0.4584 H   0  0  0  0  0  0  0  0  0  0  0  0
    7.1133   -5.9140    1.7899 H   0  0  0  0  0  0  0  0  0  0  0  0
    4.1815   -3.7497    2.7810 H   0  0  0  0  0  0  0  0  0  0  0  0
    5.8218   -4.1705    3.2215 H   0  0  0  0  0  0  0  0  0  0  0  0
    5.8710   -2.0496    2.1120 H   0  0  0  0  0  0  0  0  0  0  0  0
    5.0100   -2.6776    0.7191 H   0  0  0  0  0  0  0  0  0  0  0  0
    3.6069   -4.2510    0.2921 H   0  0  0  0  0  0  0  0  0  0  0  0
    4.2035   -5.7472   -0.4242 H   0  0  0  0  0  0  0  0  0  0  0  0
    1.1631   -5.5869   -0.3695 H   0  0  0  0  0  0  0  0  0  0  0  0
   -0.5298   -6.9526    0.8330 H   0  0  0  0  0  0  0  0  0  0  0  0
   -0.3120   -8.0884    4.1713 H   0  0  0  0  0  0  0  0  0  0  0  0
   -1.2136   -8.1939    2.6883 H   0  0  0  0  0  0  0  0  0  0  0  0
   -0.8284  -10.4334    3.4607 H   0  0  0  0  0  0  0  0  0  0  0  0
    0.1013  -10.2330    2.0053 H   0  0  0  0  0  0  0  0  0  0  0  0
    2.2130   -9.9706    3.4075 H   0  0  0  0  0  0  0  0  0  0  0  0
    0.5096  -12.4355    4.1026 H   0  0  0  0  0  0  0  0  0  0  0  0
    2.3397  -12.2682    4.2520 H   0  0  0  0  0  0  0  0  0  0  0  0
    2.0489  -10.3833    5.8854 H   0  0  0  0  0  0  0  0  0  0  0  0
    0.2184  -10.5348    5.7431 H   0  0  0  0  0  0  0  0  0  0  0  0
    2.3918   -7.9621    3.8547 H   0  0  0  0  0  0  0  0  0  0  0  0
    5.7347   -6.1217    6.4080 H   0  0  0  0  0  0  0  0  0  0  0  0
    4.6770   -5.0308    4.1129 H   0  0  0  0  0  0  0  0  0  0  0  0
    6.7216   -9.8420    3.1243 H   0  0  0  0  0  0  0  0  0  0  0  0
    6.8281  -10.9980    5.2619 H   0  0  0  0  0  0  0  0  0  0  0  0
    5.2017  -10.4134    4.9962 H   0  0  0  0  0  0  0  0  0  0  0  0
    6.2700   -9.5882    6.1272 H   0  0  0  0  0  0  0  0  0  0  0  0
    8.8593   -9.6863    4.2809 H   0  0  0  0  0  0  0  0  0  0  0  0
    8.3683   -8.2194    5.1072 H   0  0  0  0  0  0  0  0  0  0  0  0
    8.5828   -8.2233    3.3563 H   0  0  0  0  0  0  0  0  0  0  0  0
    6.4561   -7.7248    6.2641 H   0  0  0  0  0  0  0  0  0  0  0  0
  1  2  1  0
  1 31  1  0
  1 32  1  0
  1 33  1  0
  2  3  1  0
  3  8  1  0
  3  4  1  0
  3 34  1  1
  4  5  1  0
  4 35  1  0
  4 36  1  0
  6  5  1  6
  5 37  1  0
  5 38  1  0
  6  7  1  0
  6  9  1  0
  6 21  1  0
  7  8  1  0
  7 39  1  0
  7 40  1  0
  8 41  1  0
  8 42  1  0
  9 10  1  0
  9 43  1  0
  9 44  1  0
 10 20  2  0
 10 11  1  0
 11 12  2  0
 11 45  1  0
 12 13  1  0
 12 46  1  0
 13 14  1  0
 13 19  2  0
 14 15  1  0
 14 47  1  0
 14 48  1  0
 15 16  1  0
 15 49  1  0
 15 50  1  0
 16 18  1  0
 16 17  1  0
 16 51  1  0
 17 18  1  0
 17 52  1  0
 17 53  1  0
 18 54  1  0
 18 55  1  0
 19 20  1  0
 19 56  1  0
 20 21  1  0
 21 22  1  0
 21 29  1  6
 22 23  2  0
 22 58  1  0
 23 25  1  0
 23 24  1  0
 24 57  1  0
 24 66  1  0
 25 29  1  0
 25 26  1  0
 26 27  1  0
 26 28  1  0
 26 59  1  0
 27 60  1  0
 27 61  1  0
 27 62  1  0
 28 63  1  0
 28 64  1  0
 28 65  1  0
 29 30  2  0
M  CHG  1  22   1
M  END
>  <i_m_ct_stereo_status>  (315) 
1

>  <s_m_source_file>  (315) 
/var/tmp/pbs.5076255.sched01/tmpulc5pjk6/123bob0etdf.sdf

>  <i_m_source_file_index>  (315) 
16

>  <i_lp_mmshare_version>  (315) 
48012

>  <i_f3d_flags>  (315) 
0

>  <s_epik_input>  (315) 
W0NIM11PW0NAQEhdKFtDSDJdW0NIMl0xKVtDSDJdW0NIMl1bQ0BAXTEyW0NAQF0zKE49QyhbTkgyXSlOKEMzPU8pW0NIXShbQ0gzXSlbQ0gzXSljNGMoW0NIMl0yKVtjSF1bY0hdYyhbY0hdNClbQ0gyXVtDSDJdW0NIXTVbQ0gyXVtDSDJdNQ==

>  <s_epik_cmdline>  (315) 
J2VwaWtfcHl0aG9uJywgJy1waHQnLCAnMi4wJywgJy1waCcsICc3LjAnLCAnLXRuJywgJzgnLCAnLW1hJywgJzIwMCcsICctaW1hZScsICc8aW5maWxlLm1hZT4nLCAnLW9tYWUnLCAnPG91dGZpbGUubWFlPic=

>  <r_lp_tautomer_probability>  (315) 
1

>  <r_epik_Ionization_Penalty>  (315) 
0.252075

>  <r_epik_Ionization_Penalty_Charging>  (315) 
0.252075

>  <r_epik_Ionization_Penalty_Neutral>  (315) 
3.29919e-11

>  <r_epik_State_Penalty>  (315) 
0.00350323

>  <r_epik_Charging_Adjusted_Penalty>  (315) 
0.255578

>  <i_epik_Tot_Q>  (315) 
1

>  <i_epik_Tot_abs_Q>  (315) 
1

>  <s_epik_Chemistry_Notes>  (315) 
This compound has an imine and may undergo hydrolysis.

>  <s_lp_Force_Field>  (315) 
OPLS3e

>  <r_lp_Energy>  (315) 
32.079

>  <b_lp_Chiralities_Consistent>  (315) 
1

>  <s_lp_Variant>  (315) 
88:0-1

>  <s_i_glide_gridfile>  (315) 
pfpi4k_grid

>  <i_i_glide_lignum>  (315) 
16

>  <i_i_glide_rotatable_bonds>  (315) 
5

>  <r_i_docking_score>  (315) 
-2.09694

>  <r_i_glide_ligand_efficiency>  (315) 
-0.0698979

>  <r_i_glide_ligand_efficiency_sa>  (315) 
-0.217189

>  <r_i_glide_ligand_efficiency_ln>  (315) 
-0.476447

>  <r_i_glide_gscore>  (315) 
-2.09694

>  <r_i_glide_lipo>  (315) 
-0.475227

>  <r_i_glide_hbond>  (315) 
-0.00547348

>  <r_i_glide_metal>  (315) 
-0

>  <r_i_glide_rewards>  (315) 
-0.614503

>  <r_i_glide_evdw>  (315) 
-23.0967

>  <r_i_glide_ecoul>  (315) 
-1.44432

>  <r_i_glide_erotb>  (315) 
0.350623

>  <r_i_glide_esite>  (315) 
0

>  <r_i_glide_emodel>  (315) 
-23.4117

>  <r_i_glide_energy>  (315) 
-24.541

>  <r_i_glide_einternal>  (315) 
2.30502

>  <r_i_glide_intrahb_reward>  (315) 
-0

>  <i_i_glide_confnum>  (315) 
1

>  <i_i_glide_posenum>  (315) 
39

>  <r_i_glide_eff_state_penalty>  (315) 
0

>  <ligand_id>  (315) 
88

>  <original_smiles>  (315) 
COC1CCC2(CC1)Cc1ccc(CCC3CC3)cc1C21N=C(N)N(C(C)C)C1=O

>  <smiles>  (315) 
[H]c1c([H])c2c(c([H])c1C([H])([H])C([H])([H])C1([H])C([H])([H])C1([H])[H])C1(C(=O)N(C([H])(C([H])([H])[H])C([H])([H])[H])C(N([H])[H])=[N+]1[H])C1(C2([H])[H])C([H])([H])C([H])([H])C([H])(OC([H])([H])[H])C([H])([H])C1([H])[H]

$$$$
89:0:0
     RDKit          3D

 57 63  0  0  1  0  0  0  0  0999 V2000
    2.4385   -2.1948    5.7513 C   0  0  0  0  0  0  0  0  0  0  0  0
    3.2295   -2.1098    4.5810 O   0  0  0  0  0  0  0  0  0  0  0  0
    2.8780   -2.8075    3.4897 C   0  0  0  0  0  0  0  0  0  0  0  0
    1.8889   -3.5442    3.4373 O   0  0  0  0  0  0  0  0  0  0  0  0
    3.7802   -2.5700    2.4345 N   0  0  0  0  0  0  0  0  0  0  0  0
    4.9603   -1.7677    2.4969 C   0  0  1  0  0  0  0  0  0  0  0  0
    5.9901   -2.7545    1.9911 C   0  0  0  0  0  0  0  0  0  0  0  0
    6.0379   -3.2708    0.2218 C   0  0  2  0  0  0  0  0  0  0  0  0
    5.2906   -2.7363   -0.9979 C   0  0  1  0  0  0  0  0  0  0  0  0
    4.8328   -3.5094   -2.1916 N   0  0  2  0  0  0  0  0  0  0  0  0
    5.8221   -3.6485   -3.2751 C   0  0  0  0  0  0  0  0  0  0  0  0
    3.7181   -2.6511   -2.5604 C   0  0  1  0  0  0  0  0  0  0  0  0
    2.8631   -3.0544   -3.7819 C   0  0  0  0  0  0  0  0  0  0  0  0
    3.0840   -2.6603   -1.1962 C   0  0  1  0  0  0  0  0  0  0  0  0
    2.4909   -4.1355   -0.9406 C   0  0  0  0  0  0  0  0  0  0  0  0
    3.3921   -5.2251   -0.1277 C   0  0  0  0  0  0  0  0  0  0  0  0
    4.3173   -4.7330    1.0386 C   0  0  1  0  0  0  0  0  0  0  0  0
    6.0081   -5.0406    0.7460 C   0  0  2  0  0  0  0  0  0  0  0  0
    7.2418   -4.7312    1.4721 O   0  0  0  0  0  0  0  0  0  0  0  0
    7.1666   -3.9108    0.2769 C   0  0  1  0  0  0  0  0  0  0  0  0
    7.7536   -2.2899    0.2669 C   0  0  0  0  0  0  0  0  0  0  0  0
    8.9557   -2.1098    0.3427 O   0  0  0  0  0  0  0  0  0  0  0  0
    6.7432   -1.0411    0.1732 O   0  0  0  0  0  0  0  0  0  0  0  0
    5.1551   -0.9379    0.2121 C   0  0  2  0  0  0  0  0  0  0  0  0
    4.8809   -0.4995    1.6431 C   0  0  1  0  0  0  0  0  0  0  0  0
    3.5767    0.3083    1.7978 C   0  0  0  0  0  0  0  0  0  0  0  0
    4.1869   -2.2695   -0.1277 C   0  0  2  0  0  0  0  0  0  0  0  0
    3.7053   -3.2168    1.1310 C   0  0  2  0  0  0  0  0  0  0  0  0
    2.9030   -1.6143    6.5473 H   0  0  0  0  0  0  0  0  0  0  0  0
    2.3417   -3.2265    6.0953 H   0  0  0  0  0  0  0  0  0  0  0  0
    1.4424   -1.7881    5.5713 H   0  0  0  0  0  0  0  0  0  0  0  0
    5.2313   -1.4691    3.5106 H   0  0  0  0  0  0  0  0  0  0  0  0
    6.8559   -2.2898    2.4207 H   0  0  0  0  0  0  0  0  0  0  0  0
    5.8702   -3.5659    2.7194 H   0  0  0  0  0  0  0  0  0  0  0  0
    6.5100   -3.7235   -0.7129 H   0  0  0  0  0  0  0  0  0  0  0  0
    5.8272   -1.9731   -1.5759 H   0  0  0  0  0  0  0  0  0  0  0  0
    6.1928   -2.6655   -3.5382 H   0  0  0  0  0  0  0  0  0  0  0  0
    5.3995   -4.1718   -4.1377 H   0  0  0  0  0  0  0  0  0  0  0  0
    6.6800   -4.1864   -2.9016 H   0  0  0  0  0  0  0  0  0  0  0  0
    4.0563   -1.6318   -2.7665 H   0  0  0  0  0  0  0  0  0  0  0  0
    1.9211   -2.5039   -3.7538 H   0  0  0  0  0  0  0  0  0  0  0  0
    2.6234   -4.1161   -3.8565 H   0  0  0  0  0  0  0  0  0  0  0  0
    3.3487   -2.7609   -4.7160 H   0  0  0  0  0  0  0  0  0  0  0  0
    2.2848   -1.9649   -1.2613 H   0  0  0  0  0  0  0  0  0  0  0  0
    1.5739   -4.0116   -0.3722 H   0  0  0  0  0  0  0  0  0  0  0  0
    2.0029   -4.5139   -1.8288 H   0  0  0  0  0  0  0  0  0  0  0  0
    2.6778   -5.9329    0.2991 H   0  0  0  0  0  0  0  0  0  0  0  0
    4.0473   -5.8474   -0.7231 H   0  0  0  0  0  0  0  0  0  0  0  0
    4.0523   -5.2880    1.9404 H   0  0  0  0  0  0  0  0  0  0  0  0
    6.1223   -6.0047    0.2549 H   0  0  0  0  0  0  0  0  0  0  0  0
    4.8850   -0.1334   -0.4703 H   0  0  0  0  0  0  0  0  0  0  0  0
    5.6999    0.1457    1.9560 H   0  0  0  0  0  0  0  0  0  0  0  0
    2.7115   -0.2345    1.4156 H   0  0  0  0  0  0  0  0  0  0  0  0
    3.6351    1.2507    1.2546 H   0  0  0  0  0  0  0  0  0  0  0  0
    3.3909    0.5594    2.8424 H   0  0  0  0  0  0  0  0  0  0  0  0
    2.6206   -3.2234    1.1489 H   0  0  0  0  0  0  0  0  0  0  0  0
    4.4577   -4.4092   -1.9231 H   0  0  0  0  0  0  0  0  0  0  0  0
  1  2  1  0
  1 29  1  0
  1 30  1  0
  1 31  1  0
  2  3  1  0
  3  4  2  0
  3  5  1  0
  5 28  1  0
  5  6  1  0
  6 25  1  0
  6  7  1  0
  6 32  1  1
  7  8  1  0
  7 33  1  0
  7 34  1  0
  8 20  1  0
  8  9  1  0
  8 35  1  1
  9 27  1  0
  9 10  1  0
  9 36  1  6
 10 11  1  0
 10 12  1  0
 10 57  1  1
 11 37  1  0
 11 38  1  0
 11 39  1  0
 12 13  1  0
 12 14  1  0
 12 40  1  6
 13 41  1  0
 13 42  1  0
 13 43  1  0
 27 14  1  6
 14 15  1  0
 14 44  1  6
 15 16  1  0
 15 45  1  0
 15 46  1  0
 16 17  1  0
 16 47  1  0
 16 48  1  0
 17 28  1  0
 17 18  1  0
 17 49  1  1
 18 20  1  0
 18 19  1  0
 18 50  1  6
 20 19  1  1
 20 21  1  0
 21 22  2  0
 21 23  1  0
 23 24  1  0
 24 25  1  0
 24 27  1  0
 24 51  1  6
 25 26  1  0
 25 52  1  1
 26 53  1  0
 26 54  1  0
 26 55  1  0
 27 28  1  0
 28 56  1  6
M  CHG  1  10   1
M  END
>  <i_m_ct_stereo_status>  (316) 
1

>  <s_m_source_file>  (316) 
/var/tmp/pbs.5076255.sched01/tmpulc5pjk6/123bob0etdf.sdf

>  <i_m_source_file_index>  (316) 
17

>  <i_lp_mmshare_version>  (316) 
48012

>  <i_f3d_flags>  (316) 
2

>  <s_epik_input>  (316) 
Tz1DMU9bQ0BASF0yW0NAQEhdKFtDSDNdKVtDQEhdKFtDSDJdMylOKEMoPU8pT1tDSDNdKVtDQEBIXTRbQ0BIXShbQ0hdNU82KVtDSDJdW0NIMl1bQ0BASF0oW0NASF0oW0NIM10pTjdbQ0gzXSlbQ0BAXTI0W0NAQEhdN1tDQEhdM0MxNTY=

>  <s_epik_cmdline>  (316) 
J2VwaWtfcHl0aG9uJywgJy1waHQnLCAnMi4wJywgJy1waCcsICc3LjAnLCAnLXRuJywgJzgnLCAnLW1hJywgJzIwMCcsICctaW1hZScsICc8aW5maWxlLm1hZT4nLCAnLW9tYWUnLCAnPG91dGZpbGUubWFlPic=

>  <r_epik_Ionization_Penalty>  (316) 
0.0574739

>  <r_epik_Ionization_Penalty_Charging>  (316) 
0.0574718

>  <r_epik_Ionization_Penalty_Neutral>  (316) 
2.0611e-06

>  <r_epik_State_Penalty>  (316) 
0.0496393

>  <r_epik_Charging_Adjusted_Penalty>  (316) 
0.107111

>  <i_epik_Tot_Q>  (316) 
1

>  <i_epik_Tot_abs_Q>  (316) 
1

>  <s_epik_Chemistry_Notes>  (316) 
This compound has an ester and may undergo hydrolysis at high or low pH.

>  <s_lp_Force_Field>  (316) 
OPLS3e

>  <r_lp_Energy>  (316) 
620.46

>  <b_lp_Chiralities_Consistent>  (316) 
0

>  <s_lp_Variant>  (316) 
89:0-1

>  <s_i_glide_gridfile>  (316) 
pfpi4k_grid

>  <i_i_glide_lignum>  (316) 
17

>  <i_i_glide_rotatable_bonds>  (316) 
2

>  <r_i_docking_score>  (316) 
-2.67206

>  <r_i_glide_ligand_efficiency>  (316) 
-0.0954307

>  <r_i_glide_ligand_efficiency_sa>  (316) 
-0.289784

>  <r_i_glide_ligand_efficiency_ln>  (316) 
-0.61679

>  <r_i_glide_gscore>  (316) 
-2.67206

>  <r_i_glide_lipo>  (316) 
-0.970308

>  <r_i_glide_hbond>  (316) 
-0.0484887

>  <r_i_glide_metal>  (316) 
-0

>  <r_i_glide_rewards>  (316) 
-0.94081

>  <r_i_glide_evdw>  (316) 
-10.1216

>  <r_i_glide_ecoul>  (316) 
-2.23261

>  <r_i_glide_erotb>  (316) 
0.128521

>  <r_i_glide_esite>  (316) 
0

>  <r_i_glide_emodel>  (316) 
-13.0071

>  <r_i_glide_energy>  (316) 
-12.3542

>  <r_i_glide_einternal>  (316) 
0.153011

>  <r_i_glide_intrahb_reward>  (316) 
-0

>  <i_i_glide_confnum>  (316) 
3

>  <i_i_glide_posenum>  (316) 
28

>  <r_i_glide_eff_state_penalty>  (316) 
0

>  <ligand_id>  (316) 
89

>  <original_smiles>  (316) 
COC(=O)N1C2CC3C4N(C)C(C)C5CCC6C7OC37C(=O)OC(C2C)C54C61

>  <smiles>  (316) 
[H]C([H])([H])OC(=O)N1C2([H])C([H])([H])C3([H])C45OC4([H])C4([H])C([H])([H])C([H])([H])C6([H])C(C([H])(OC5=O)C2([H])C([H])([H])[H])(C14[H])C3([H])[N+]([H])(C([H])([H])[H])C6([H])C([H])([H])[H]

$$$$
89:0:1
     RDKit          3D

 57 63  0  0  1  0  0  0  0  0999 V2000
    2.7368   -3.2820    6.6952 C   0  0  0  0  0  0  0  0  0  0  0  0
    3.2538   -2.9199    5.4268 O   0  0  0  0  0  0  0  0  0  0  0  0
    2.9060   -3.6226    4.3376 C   0  0  0  0  0  0  0  0  0  0  0  0
    2.0843   -4.5473    4.3607 O   0  0  0  0  0  0  0  0  0  0  0  0
    3.5819   -3.1539    3.1954 N   0  0  0  0  0  0  0  0  0  0  0  0
    4.5670   -2.1098    3.1641 C   0  0  1  0  0  0  0  0  0  0  0  0
    5.6975   -2.8229    2.4550 C   0  0  0  0  0  0  0  0  0  0  0  0
    5.5831   -3.2353    0.6597 C   0  0  2  0  0  0  0  0  0  0  0  0
    4.5781   -2.8109   -0.4049 C   0  0  1  0  0  0  0  0  0  0  0  0
    4.1258   -3.5887   -1.5989 N   0  0  2  0  0  0  0  0  0  0  0  0
    4.9733   -3.4976   -2.8207 C   0  0  0  0  0  0  0  0  0  0  0  0
    2.8138   -2.9638   -1.7204 C   0  0  1  0  0  0  0  0  0  0  0  0
    1.8915   -3.4422   -2.8533 C   0  0  0  0  0  0  0  0  0  0  0  0
    2.3889   -3.2015   -0.2782 C   0  0  1  0  0  0  0  0  0  0  0  0
    2.1983   -4.8126   -0.1180 C   0  0  0  0  0  0  0  0  0  0  0  0
    3.3842   -5.7086    0.4507 C   0  0  0  0  0  0  0  0  0  0  0  0
    4.3285   -5.0814    1.5418 C   0  0  1  0  0  0  0  0  0  0  0  0
    5.9816   -5.0087    1.0343 C   0  0  2  0  0  0  0  0  0  0  0  0
    7.2081   -4.4857    1.6271 O   0  0  0  0  0  0  0  0  0  0  0  0
    6.8089   -3.6350    0.5126 C   0  0  1  0  0  0  0  0  0  0  0  0
    7.0376   -1.9265    0.5427 C   0  0  0  0  0  0  0  0  0  0  0  0
    8.1837   -1.5004    0.4570 O   0  0  0  0  0  0  0  0  0  0  0  0
    5.8034   -0.9037    0.6895 O   0  0  0  0  0  0  0  0  0  0  0  0
    4.2504   -1.1451    0.9473 C   0  0  2  0  0  0  0  0  0  0  0  0
    4.1047   -0.8411    2.4304 C   0  0  1  0  0  0  0  0  0  0  0  0
    2.7003   -0.3414    2.8132 C   0  0  0  0  0  0  0  0  0  0  0  0
    3.5471   -2.6430    0.6390 C   0  0  2  0  0  0  0  0  0  0  0  0
    3.4526   -3.7331    1.8609 C   0  0  2  0  0  0  0  0  0  0  0  0
    3.1603   -2.6339    7.4619 H   0  0  0  0  0  0  0  0  0  0  0  0
    2.9933   -4.3139    6.9475 H   0  0  0  0  0  0  0  0  0  0  0  0
    1.6510   -3.1729    6.7235 H   0  0  0  0  0  0  0  0  0  0  0  0
    4.9101   -1.8126    4.1548 H   0  0  0  0  0  0  0  0  0  0  0  0
    6.5354   -2.2225    2.8086 H   0  0  0  0  0  0  0  0  0  0  0  0
    5.8273   -3.6844    3.1237 H   0  0  0  0  0  0  0  0  0  0  0  0
    5.9855   -3.5403   -0.3610 H   0  0  0  0  0  0  0  0  0  0  0  0
    4.8580   -1.9314   -0.9954 H   0  0  0  0  0  0  0  0  0  0  0  0
    5.0754   -2.4684   -3.1717 H   0  0  0  0  0  0  0  0  0  0  0  0
    4.5359   -4.0801   -3.6332 H   0  0  0  0  0  0  0  0  0  0  0  0
    5.9744   -3.8902   -2.6448 H   0  0  0  0  0  0  0  0  0  0  0  0
    2.9032   -1.8881   -1.8865 H   0  0  0  0  0  0  0  0  0  0  0  0
    0.8976   -3.0892   -2.6202 H   0  0  0  0  0  0  0  0  0  0  0  0
    1.8212   -4.5088   -2.9921 H   0  0  0  0  0  0  0  0  0  0  0  0
    2.1602   -3.0271   -3.8278 H   0  0  0  0  0  0  0  0  0  0  0  0
    1.4747   -2.6721   -0.0332 H   0  0  0  0  0  0  0  0  0  0  0  0
    1.4192   -5.0297    0.6014 H   0  0  0  0  0  0  0  0  0  0  0  0
    1.7694   -5.2583   -1.0074 H   0  0  0  0  0  0  0  0  0  0  0  0
    2.8908   -6.5550    0.9389 H   0  0  0  0  0  0  0  0  0  0  0  0
    3.9615   -6.1450   -0.3604 H   0  0  0  0  0  0  0  0  0  0  0  0
    4.3086   -5.7108    2.4282 H   0  0  0  0  0  0  0  0  0  0  0  0
    6.2136   -5.9053    0.4646 H   0  0  0  0  0  0  0  0  0  0  0  0
    3.7307   -0.3855    0.3681 H   0  0  0  0  0  0  0  0  0  0  0  0
    4.7980   -0.0335    2.6817 H   0  0  0  0  0  0  0  0  0  0  0  0
    1.9200   -1.0398    2.5121 H   0  0  0  0  0  0  0  0  0  0  0  0
    2.4880    0.6135    2.3313 H   0  0  0  0  0  0  0  0  0  0  0  0
    2.6194   -0.1873    3.8897 H   0  0  0  0  0  0  0  0  0  0  0  0
    2.4097   -3.9708    2.0172 H   0  0  0  0  0  0  0  0  0  0  0  0
    3.9731   -4.5619   -1.3670 H   0  0  0  0  0  0  0  0  0  0  0  0
  1  2  1  0
  1 29  1  0
  1 30  1  0
  1 31  1  0
  2  3  1  0
  3  4  2  0
  3  5  1  0
  5 28  1  0
  5  6  1  0
  6 25  1  0
  6  7  1  0
  6 32  1  1
  7  8  1  0
  7 33  1  0
  7 34  1  0
  8 20  1  0
  8  9  1  0
  8 35  1  1
  9 27  1  0
  9 10  1  0
  9 36  1  6
 10 11  1  0
 10 12  1  0
 10 57  1  1
 11 37  1  0
 11 38  1  0
 11 39  1  0
 12 13  1  0
 12 14  1  0
 12 40  1  1
 13 41  1  0
 13 42  1  0
 13 43  1  0
 27 14  1  6
 14 15  1  0
 14 44  1  1
 15 16  1  0
 15 45  1  0
 15 46  1  0
 16 17  1  0
 16 47  1  0
 16 48  1  0
 17 28  1  0
 17 18  1  0
 17 49  1  1
 18 20  1  0
 18 19  1  0
 18 50  1  6
 20 19  1  1
 20 21  1  0
 21 22  2  0
 21 23  1  0
 23 24  1  0
 24 25  1  0
 24 27  1  0
 24 51  1  6
 25 26  1  0
 25 52  1  1
 26 53  1  0
 26 54  1  0
 26 55  1  0
 27 28  1  0
 28 56  1  1
M  CHG  1  10   1
M  END
>  <i_m_ct_stereo_status>  (317) 
1

>  <s_m_source_file>  (317) 
/var/tmp/pbs.5076255.sched01/tmpulc5pjk6/123bob0etdf.sdf

>  <i_m_source_file_index>  (317) 
17

>  <i_lp_mmshare_version>  (317) 
48012

>  <i_f3d_flags>  (317) 
2

>  <s_epik_input>  (317) 
Tz1DMU9bQ0BASF0yW0NAQEhdKFtDSDNdKVtDQEhdKFtDSDJdMylOKEMoPU8pT1tDSDNdKVtDQEBIXTRbQ0BIXShbQ0hdNU82KVtDSDJdW0NIMl1bQ0BASF0oW0NASF0oW0NIM10pTjdbQ0gzXSlbQ0BAXTI0W0NAQEhdN1tDQEhdM0MxNTY=

>  <s_epik_cmdline>  (317) 
J2VwaWtfcHl0aG9uJywgJy1waHQnLCAnMi4wJywgJy1waCcsICc3LjAnLCAnLXRuJywgJzgnLCAnLW1hJywgJzIwMCcsICctaW1hZScsICc8aW5maWxlLm1hZT4nLCAnLW9tYWUnLCAnPG91dGZpbGUubWFlPic=

>  <r_epik_Ionization_Penalty>  (317) 
0.0574739

>  <r_epik_Ionization_Penalty_Charging>  (317) 
0.0574718

>  <r_epik_Ionization_Penalty_Neutral>  (317) 
2.0611e-06

>  <r_epik_State_Penalty>  (317) 
0.0496393

>  <r_epik_Charging_Adjusted_Penalty>  (317) 
0.107111

>  <i_epik_Tot_Q>  (317) 
1

>  <i_epik_Tot_abs_Q>  (317) 
1

>  <s_epik_Chemistry_Notes>  (317) 
This compound has an ester and may undergo hydrolysis at high or low pH.

>  <s_lp_Force_Field>  (317) 
OPLS3e

>  <r_lp_Energy>  (317) 
620.46

>  <b_lp_Chiralities_Consistent>  (317) 
0

>  <s_lp_Variant>  (317) 
89:0-1

>  <s_i_glide_gridfile>  (317) 
pfpi4k_grid

>  <i_i_glide_lignum>  (317) 
17

>  <i_i_glide_rotatable_bonds>  (317) 
2

>  <r_i_docking_score>  (317) 
-2.61566

>  <r_i_glide_ligand_efficiency>  (317) 
-0.0934163

>  <r_i_glide_ligand_efficiency_sa>  (317) 
-0.283667

>  <r_i_glide_ligand_efficiency_ln>  (317) 
-0.60377

>  <r_i_glide_gscore>  (317) 
-2.61566

>  <r_i_glide_lipo>  (317) 
-0.705219

>  <r_i_glide_hbond>  (317) 
-0.0180453

>  <r_i_glide_metal>  (317) 
-0

>  <r_i_glide_rewards>  (317) 
-0.76434

>  <r_i_glide_evdw>  (317) 
-14.2038

>  <r_i_glide_ecoul>  (317) 
-3.43588

>  <r_i_glide_erotb>  (317) 
0.128521

>  <r_i_glide_esite>  (317) 
-0.0310004

>  <r_i_glide_emodel>  (317) 
-18.8468

>  <r_i_glide_energy>  (317) 
-17.6397

>  <r_i_glide_einternal>  (317) 
0.0557437

>  <r_i_glide_intrahb_reward>  (317) 
-0

>  <i_i_glide_confnum>  (317) 
3

>  <i_i_glide_posenum>  (317) 
15

>  <r_i_glide_eff_state_penalty>  (317) 
0

>  <ligand_id>  (317) 
89

>  <original_smiles>  (317) 
COC(=O)N1C2CC3C4N(C)C(C)C5CCC6C7OC37C(=O)OC(C2C)C54C61

>  <smiles>  (317) 
[H]C([H])([H])OC(=O)N1C2([H])C([H])([H])C3([H])C45OC4([H])C4([H])C([H])([H])C([H])([H])C6([H])C(C([H])(OC5=O)C2([H])C([H])([H])[H])(C14[H])C3([H])[N+]([H])(C([H])([H])[H])C6([H])C([H])([H])[H]

$$$$
89:0:2
     RDKit          3D

 57 63  0  0  1  0  0  0  0  0999 V2000
    6.0420   -7.1513    3.6562 C   0  0  0  0  0  0  0  0  0  0  0  0
    5.3909   -6.0234    3.0979 O   0  0  0  0  0  0  0  0  0  0  0  0
    5.5324   -5.7531    1.7867 C   0  0  0  0  0  0  0  0  0  0  0  0
    6.1485   -6.4811    1.0085 O   0  0  0  0  0  0  0  0  0  0  0  0
    4.8688   -4.5627    1.4446 N   0  0  0  0  0  0  0  0  0  0  0  0
    4.2511   -3.6515    2.3687 C   0  0  1  0  0  0  0  0  0  0  0  0
    4.9487   -2.3574    1.9980 C   0  0  0  0  0  0  0  0  0  0  0  0
    4.6012   -1.5108    0.3770 C   0  0  2  0  0  0  0  0  0  0  0  0
    3.5236   -1.7672   -0.6901 C   0  0  1  0  0  0  0  0  0  0  0  0
    3.6349   -1.5942   -2.1886 N   0  0  2  0  0  0  0  0  0  0  0  0
    3.3491   -0.2623   -2.7620 C   0  0  0  0  0  0  0  0  0  0  0  0
    2.6453   -2.6156   -2.5522 C   0  0  1  0  0  0  0  0  0  0  0  0
    2.4110   -2.8401   -4.0638 C   0  0  0  0  0  0  0  0  0  0  0  0
    3.2005   -3.7293   -1.6987 C   0  0  1  0  0  0  0  0  0  0  0  0
    4.6131   -4.0859   -2.4582 C   0  0  0  0  0  0  0  0  0  0  0  0
    5.9619   -3.3678   -1.9548 C   0  0  0  0  0  0  0  0  0  0  0  0
    6.1670   -3.1650   -0.3988 C   0  0  1  0  0  0  0  0  0  0  0  0
    6.3808   -1.5034    0.0085 C   0  0  2  0  0  0  0  0  0  0  0  0
    6.5094   -0.7389    1.2438 O   0  0  0  0  0  0  0  0  0  0  0  0
    5.2247   -0.4392    0.6561 C   0  0  1  0  0  0  0  0  0  0  0  0
    3.7678   -0.1816    1.5885 C   0  0  0  0  0  0  0  0  0  0  0  0
    3.6381    0.8172    2.2483 O   0  0  0  0  0  0  0  0  0  0  0  0
    2.5848   -1.2452    1.6230 O   0  0  0  0  0  0  0  0  0  0  0  0
    2.4726   -2.6823    1.0020 C   0  0  2  0  0  0  0  0  0  0  0  0
    2.7366   -3.5835    2.2079 C   0  0  1  0  0  0  0  0  0  0  0  0
    2.0389   -4.9509    2.1126 C   0  0  0  0  0  0  0  0  0  0  0  0
    3.4596   -3.1851   -0.2567 C   0  0  2  0  0  0  0  0  0  0  0  0
    4.8420   -3.9955    0.0990 C   0  0  2  0  0  0  0  0  0  0  0  0
    5.8378   -7.1945    4.7260 H   0  0  0  0  0  0  0  0  0  0  0  0
    7.1201   -7.0725    3.5204 H   0  0  0  0  0  0  0  0  0  0  0  0
    5.6971   -8.0806    3.2026 H   0  0  0  0  0  0  0  0  0  0  0  0
    4.4789   -3.8748    3.4177 H   0  0  0  0  0  0  0  0  0  0  0  0
    4.8796   -1.7781    2.9252 H   0  0  0  0  0  0  0  0  0  0  0  0
    5.9962   -2.6737    2.1461 H   0  0  0  0  0  0  0  0  0  0  0  0
    4.5819   -0.6412   -0.3623 H   0  0  0  0  0  0  0  0  0  0  0  0
    2.6224   -1.1695   -0.5970 H   0  0  0  0  0  0  0  0  0  0  0  0
    2.3023   -0.0016   -2.5454 H   0  0  0  0  0  0  0  0  0  0  0  0
    3.4166   -0.2829   -3.8494 H   0  0  0  0  0  0  0  0  0  0  0  0
    4.0852    0.4395   -2.3699 H   0  0  0  0  0  0  0  0  0  0  0  0
    1.6607   -2.3648   -2.1768 H   0  0  0  0  0  0  0  0  0  0  0  0
    1.8761   -3.7713   -4.2161 H   0  0  0  0  0  0  0  0  0  0  0  0
    3.2939   -2.8292   -4.7027 H   0  0  0  0  0  0  0  0  0  0  0  0
    1.7494   -2.0436   -4.3984 H   0  0  0  0  0  0  0  0  0  0  0  0
    2.4424   -4.4859   -1.5212 H   0  0  0  0  0  0  0  0  0  0  0  0
    4.8287   -5.1469   -2.3779 H   0  0  0  0  0  0  0  0  0  0  0  0
    4.5863   -3.9732   -3.5409 H   0  0  0  0  0  0  0  0  0  0  0  0
    6.7275   -4.0407   -2.2787 H   0  0  0  0  0  0  0  0  0  0  0  0
    6.2096   -2.4746   -2.5256 H   0  0  0  0  0  0  0  0  0  0  0  0
    7.0569   -3.7044   -0.0659 H   0  0  0  0  0  0  0  0  0  0  0  0
    7.0592   -1.0702   -0.7175 H   0  0  0  0  0  0  0  0  0  0  0  0
    1.4412   -2.7136    0.6641 H   0  0  0  0  0  0  0  0  0  0  0  0
    2.3218   -3.0749    3.0737 H   0  0  0  0  0  0  0  0  0  0  0  0
    2.2968   -5.4793    1.1938 H   0  0  0  0  0  0  0  0  0  0  0  0
    0.9635   -4.8267    2.1454 H   0  0  0  0  0  0  0  0  0  0  0  0
    2.3036   -5.5726    2.9679 H   0  0  0  0  0  0  0  0  0  0  0  0
    4.7980   -4.9886   -0.3752 H   0  0  0  0  0  0  0  0  0  0  0  0
    4.5594   -1.9383   -2.5028 H   0  0  0  0  0  0  0  0  0  0  0  0
  1  2  1  0
  1 29  1  0
  1 30  1  0
  1 31  1  0
  2  3  1  0
  3  4  2  0
  3  5  1  0
  5 28  1  0
  5  6  1  0
  6 25  1  0
  6  7  1  0
  6 32  1  1
  7  8  1  0
  7 33  1  0
  7 34  1  0
  8 20  1  0
  8  9  1  0
  8 35  1  6
  9 27  1  0
  9 10  1  0
  9 36  1  1
 10 11  1  0
 10 12  1  0
 10 57  1  6
 11 37  1  0
 11 38  1  0
 11 39  1  0
 12 13  1  0
 12 14  1  0
 12 40  1  1
 13 41  1  0
 13 42  1  0
 13 43  1  0
 27 14  1  6
 14 15  1  0
 14 44  1  1
 15 16  1  0
 15 45  1  0
 15 46  1  0
 16 17  1  0
 16 47  1  0
 16 48  1  0
 17 28  1  0
 17 18  1  0
 17 49  1  1
 18 20  1  0
 18 19  1  0
 18 50  1  6
 20 19  1  1
 20 21  1  0
 21 22  2  0
 21 23  1  0
 23 24  1  0
 24 25  1  0
 24 27  1  0
 24 51  1  6
 25 26  1  0
 25 52  1  1
 26 53  1  0
 26 54  1  0
 26 55  1  0
 27 28  1  0
 28 56  1  6
M  CHG  1  10   1
M  END
>  <i_m_ct_stereo_status>  (318) 
1

>  <s_m_source_file>  (318) 
/var/tmp/pbs.5076255.sched01/tmpulc5pjk6/123bob0etdf.sdf

>  <i_m_source_file_index>  (318) 
17

>  <i_lp_mmshare_version>  (318) 
48012

>  <i_f3d_flags>  (318) 
2

>  <s_epik_input>  (318) 
Tz1DMU9bQ0BASF0yW0NAQEhdKFtDSDNdKVtDQEhdKFtDSDJdMylOKEMoPU8pT1tDSDNdKVtDQEBIXTRbQ0BIXShbQ0hdNU82KVtDSDJdW0NIMl1bQ0BASF0oW0NASF0oW0NIM10pTjdbQ0gzXSlbQ0BAXTI0W0NAQEhdN1tDQEhdM0MxNTY=

>  <s_epik_cmdline>  (318) 
J2VwaWtfcHl0aG9uJywgJy1waHQnLCAnMi4wJywgJy1waCcsICc3LjAnLCAnLXRuJywgJzgnLCAnLW1hJywgJzIwMCcsICctaW1hZScsICc8aW5maWxlLm1hZT4nLCAnLW9tYWUnLCAnPG91dGZpbGUubWFlPic=

>  <r_epik_Ionization_Penalty>  (318) 
0.0574739

>  <r_epik_Ionization_Penalty_Charging>  (318) 
0.0574718

>  <r_epik_Ionization_Penalty_Neutral>  (318) 
2.0611e-06

>  <r_epik_State_Penalty>  (318) 
0.0496393

>  <r_epik_Charging_Adjusted_Penalty>  (318) 
0.107111

>  <i_epik_Tot_Q>  (318) 
1

>  <i_epik_Tot_abs_Q>  (318) 
1

>  <s_epik_Chemistry_Notes>  (318) 
This compound has an ester and may undergo hydrolysis at high or low pH.

>  <s_lp_Force_Field>  (318) 
OPLS3e

>  <r_lp_Energy>  (318) 
620.46

>  <b_lp_Chiralities_Consistent>  (318) 
0

>  <s_lp_Variant>  (318) 
89:0-1

>  <s_i_glide_gridfile>  (318) 
pfpi4k_grid

>  <i_i_glide_lignum>  (318) 
17

>  <i_i_glide_rotatable_bonds>  (318) 
2

>  <r_i_docking_score>  (318) 
-2.09808

>  <r_i_glide_ligand_efficiency>  (318) 
-0.0749316

>  <r_i_glide_ligand_efficiency_sa>  (318) 
-0.227536

>  <r_i_glide_ligand_efficiency_ln>  (318) 
-0.484299

>  <r_i_glide_gscore>  (318) 
-2.09808

>  <r_i_glide_lipo>  (318) 
-0.671319

>  <r_i_glide_hbond>  (318) 
0

>  <r_i_glide_metal>  (318) 
-0

>  <r_i_glide_rewards>  (318) 
-0.900494

>  <r_i_glide_evdw>  (318) 
-5.54786

>  <r_i_glide_ecoul>  (318) 
-2.12737

>  <r_i_glide_erotb>  (318) 
0.128521

>  <r_i_glide_esite>  (318) 
-0.058295

>  <r_i_glide_emodel>  (318) 
-7.3821

>  <r_i_glide_energy>  (318) 
-7.67523

>  <r_i_glide_einternal>  (318) 
0.0115299

>  <r_i_glide_intrahb_reward>  (318) 
-0

>  <i_i_glide_confnum>  (318) 
1

>  <i_i_glide_posenum>  (318) 
14

>  <r_i_glide_eff_state_penalty>  (318) 
0

>  <ligand_id>  (318) 
89

>  <original_smiles>  (318) 
COC(=O)N1C2CC3C4N(C)C(C)C5CCC6C7OC37C(=O)OC(C2C)C54C61

>  <smiles>  (318) 
[H]C([H])([H])OC(=O)N1C2([H])C([H])([H])C3([H])C45OC4([H])C4([H])C([H])([H])C([H])([H])C6([H])C(C([H])(OC5=O)C2([H])C([H])([H])[H])(C14[H])C3([H])[N+]([H])(C([H])([H])[H])C6([H])C([H])([H])[H]

$$$$
89:1:0
     RDKit          3D

 56 62  0  0  1  0  0  0  0  0999 V2000
    0.9099   -4.6139    4.1752 C   0  0  0  0  0  0  0  0  0  0  0  0
    1.7442   -3.8927    3.2915 O   0  0  0  0  0  0  0  0  0  0  0  0
    2.3686   -2.7649    3.6790 C   0  0  0  0  0  0  0  0  0  0  0  0
    2.2160   -2.2345    4.7804 O   0  0  0  0  0  0  0  0  0  0  0  0
    3.2337   -2.3345    2.6508 N   0  0  0  0  0  0  0  0  0  0  0  0
    4.0898   -1.1399    2.8351 C   0  0  1  0  0  0  0  0  0  0  0  0
    5.5374   -1.6051    2.8173 C   0  0  0  0  0  0  0  0  0  0  0  0
    5.7046   -2.6381    1.5710 C   0  0  1  0  0  0  0  0  0  0  0  0
    5.0439   -2.5667   -0.1083 C   0  0  1  0  0  0  0  0  0  0  0  0
    5.1177   -3.3435   -1.4077 N   0  0  0  0  0  0  0  0  0  0  0  0
    6.3366   -3.3895   -2.2358 C   0  0  0  0  0  0  0  0  0  0  0  0
    4.1259   -2.6377   -2.2145 C   0  0  1  0  0  0  0  0  0  0  0  0
    3.7243   -3.2356   -3.5790 C   0  0  0  0  0  0  0  0  0  0  0  0
    3.0824   -2.5694   -1.1554 C   0  0  1  0  0  0  0  0  0  0  0  0
    2.4365   -4.0056   -0.9445 C   0  0  0  0  0  0  0  0  0  0  0  0
    3.2772   -5.0749   -0.0942 C   0  0  0  0  0  0  0  0  0  0  0  0
    4.0246   -4.4619    1.1234 C   0  0  1  0  0  0  0  0  0  0  0  0
    5.7663   -4.6474    1.1834 C   0  0  1  0  0  0  0  0  0  0  0  0
    6.8443   -4.3172    0.3198 O   0  0  0  0  0  0  0  0  0  0  0  0
    6.8168   -3.2971    1.3364 C   0  0  2  0  0  0  0  0  0  0  0  0
    7.2659   -1.8080    0.7243 C   0  0  0  0  0  0  0  0  0  0  0  0
    8.4556   -1.6295    0.4814 O   0  0  0  0  0  0  0  0  0  0  0  0
    6.2019   -0.6024    0.5070 O   0  0  0  0  0  0  0  0  0  0  0  0
    4.6017   -0.6303    0.4346 C   0  0  2  0  0  0  0  0  0  0  0  0
    3.9902   -0.0739    1.7342 C   0  0  1  0  0  0  0  0  0  0  0  0
    2.5706    0.4820    1.5936 C   0  0  0  0  0  0  0  0  0  0  0  0
    3.7933   -2.0318    0.1402 C   0  0  2  0  0  0  0  0  0  0  0  0
    3.2857   -2.9657    1.2986 C   0  0  2  0  0  0  0  0  0  0  0  0
    0.5089   -5.4857    3.6560 H   0  0  0  0  0  0  0  0  0  0  0  0
    0.0724   -4.0066    4.5198 H   0  0  0  0  0  0  0  0  0  0  0  0
    1.4877   -4.9657    5.0307 H   0  0  0  0  0  0  0  0  0  0  0  0
    3.8924   -0.6559    3.7958 H   0  0  0  0  0  0  0  0  0  0  0  0
    6.2176   -0.7460    2.8438 H   0  0  0  0  0  0  0  0  0  0  0  0
    5.7445   -2.0469    3.8056 H   0  0  0  0  0  0  0  0  0  0  0  0
    5.3438   -3.1964    2.4396 H   0  0  0  0  0  0  0  0  0  0  0  0
    5.5572   -1.9443   -0.8348 H   0  0  0  0  0  0  0  0  0  0  0  0
    6.1668   -4.0528   -3.0836 H   0  0  0  0  0  0  0  0  0  0  0  0
    7.2326   -3.7547   -1.7454 H   0  0  0  0  0  0  0  0  0  0  0  0
    6.5963   -2.4120   -2.6444 H   0  0  0  0  0  0  0  0  0  0  0  0
    4.4256   -1.6121   -2.4231 H   0  0  0  0  0  0  0  0  0  0  0  0
    2.7432   -2.8843   -3.8995 H   0  0  0  0  0  0  0  0  0  0  0  0
    3.7022   -4.3074   -3.5653 H   0  0  0  0  0  0  0  0  0  0  0  0
    4.4544   -2.9812   -4.3396 H   0  0  0  0  0  0  0  0  0  0  0  0
    2.3165   -1.9095   -1.5754 H   0  0  0  0  0  0  0  0  0  0  0  0
    1.4526   -3.9131   -0.4929 H   0  0  0  0  0  0  0  0  0  0  0  0
    2.0723   -4.3248   -1.9072 H   0  0  0  0  0  0  0  0  0  0  0  0
    2.5925   -5.8510    0.2516 H   0  0  0  0  0  0  0  0  0  0  0  0
    4.0225   -5.5922   -0.6905 H   0  0  0  0  0  0  0  0  0  0  0  0
    3.7031   -5.0539    1.9749 H   0  0  0  0  0  0  0  0  0  0  0  0
    6.0232   -5.5132    1.7841 H   0  0  0  0  0  0  0  0  0  0  0  0
    4.3665    0.0806   -0.3521 H   0  0  0  0  0  0  0  0  0  0  0  0
    4.5976    0.7596    2.0544 H   0  0  0  0  0  0  0  0  0  0  0  0
    1.8799   -0.2669    1.2194 H   0  0  0  0  0  0  0  0  0  0  0  0
    2.5626    1.3295    0.9260 H   0  0  0  0  0  0  0  0  0  0  0  0
    2.1878    0.8605    2.5367 H   0  0  0  0  0  0  0  0  0  0  0  0
    2.2192   -3.0181    1.1690 H   0  0  0  0  0  0  0  0  0  0  0  0
  1  2  1  0
  1 29  1  0
  1 30  1  0
  1 31  1  0
  2  3  1  0
  3  4  2  0
  3  5  1  0
  5 28  1  0
  5  6  1  0
  6 25  1  0
  6  7  1  0
  6 32  1  1
  7  8  1  0
  7 33  1  0
  7 34  1  0
  8 20  1  0
  8  9  1  0
  8 35  1  1
  9 27  1  0
  9 10  1  0
  9 36  1  6
 10 11  1  0
 10 12  1  0
 11 37  1  0
 11 38  1  0
 11 39  1  0
 12 13  1  0
 12 14  1  0
 12 40  1  6
 13 41  1  0
 13 42  1  0
 13 43  1  0
 27 14  1  6
 14 15  1  0
 14 44  1  6
 15 16  1  0
 15 45  1  0
 15 46  1  0
 16 17  1  0
 16 47  1  0
 16 48  1  0
 17 28  1  0
 17 18  1  0
 17 49  1  1
 18 20  1  0
 18 19  1  0
 18 50  1  1
 20 19  1  6
 20 21  1  0
 21 22  2  0
 21 23  1  0
 23 24  1  0
 24 25  1  0
 24 27  1  0
 24 51  1  6
 25 26  1  0
 25 52  1  1
 26 53  1  0
 26 54  1  0
 26 55  1  0
 27 28  1  0
 28 56  1  6
M  END
>  <i_m_ct_stereo_status>  (319) 
1

>  <s_m_source_file>  (319) 
/var/tmp/pbs.5076255.sched01/tmpulc5pjk6/123bob0etdf.sdf

>  <i_m_source_file_index>  (319) 
18

>  <i_lp_mmshare_version>  (319) 
48012

>  <i_f3d_flags>  (319) 
2

>  <s_epik_input>  (319) 
Tz1DMU9bQ0BASF0yW0NAQEhdKFtDSDNdKVtDQEhdKFtDSDJdMylOKEMoPU8pT1tDSDNdKVtDQEBIXTRbQ0BIXShbQ0hdNU82KVtDSDJdW0NIMl1bQ0BASF0oW0NASF0oW0NIM10pTjdbQ0gzXSlbQ0BAXTI0W0NAQEhdN1tDQEhdM0MxNTY=

>  <s_epik_cmdline>  (319) 
J2VwaWtfcHl0aG9uJywgJy1waHQnLCAnMi4wJywgJy1waCcsICc3LjAnLCAnLXRuJywgJzgnLCAnLW1hJywgJzIwMCcsICctaW1hZScsICc8aW5maWxlLm1hZT4nLCAnLW9tYWUnLCAnPG91dGZpbGUubWFlPic=

>  <r_epik_Ionization_Penalty>  (319) 
1.41079

>  <r_epik_Ionization_Penalty_Charging>  (319) 
0

>  <r_epik_Ionization_Penalty_Neutral>  (319) 
1.41079

>  <r_epik_State_Penalty>  (319) 
1.49374

>  <r_epik_Charging_Adjusted_Penalty>  (319) 
1.49374

>  <i_epik_Tot_Q>  (319) 
0

>  <i_epik_Tot_abs_Q>  (319) 
0

>  <s_epik_Chemistry_Notes>  (319) 
This compound has an ester and may undergo hydrolysis at high or low pH.

>  <s_lp_Force_Field>  (319) 
OPLS3e

>  <r_lp_Energy>  (319) 
543.457

>  <b_lp_Chiralities_Consistent>  (319) 
0

>  <s_lp_Variant>  (319) 
89:0-2

>  <s_i_glide_gridfile>  (319) 
pfpi4k_grid

>  <i_i_glide_lignum>  (319) 
18

>  <i_i_glide_rotatable_bonds>  (319) 
2

>  <r_i_docking_score>  (319) 
-2.45358

>  <r_i_glide_ligand_efficiency>  (319) 
-0.0876278

>  <r_i_glide_ligand_efficiency_sa>  (319) 
-0.26609

>  <r_i_glide_ligand_efficiency_ln>  (319) 
-0.566358

>  <r_i_glide_gscore>  (319) 
-2.45358

>  <r_i_glide_lipo>  (319) 
-0.866733

>  <r_i_glide_hbond>  (319) 
0

>  <r_i_glide_metal>  (319) 
-0

>  <r_i_glide_rewards>  (319) 
-0.761739

>  <r_i_glide_evdw>  (319) 
-17.384

>  <r_i_glide_ecoul>  (319) 
-0.52042

>  <r_i_glide_erotb>  (319) 
0.129121

>  <r_i_glide_esite>  (319) 
-0.00696587

>  <r_i_glide_emodel>  (319) 
-16.6046

>  <r_i_glide_energy>  (319) 
-17.9044

>  <r_i_glide_einternal>  (319) 
0.978606

>  <r_i_glide_intrahb_reward>  (319) 
-0

>  <i_i_glide_confnum>  (319) 
4

>  <i_i_glide_posenum>  (319) 
18

>  <r_i_glide_eff_state_penalty>  (319) 
0

>  <ligand_id>  (319) 
89

>  <original_smiles>  (319) 
COC(=O)N1C2CC3C4N(C)C(C)C5CCC6C7OC37C(=O)OC(C2C)C54C61

>  <smiles>  (319) 
[H]C([H])([H])OC(=O)N1C2([H])C([H])([H])C3([H])C45OC4([H])C4([H])C([H])([H])C([H])([H])C6([H])C([H])(C([H])([H])[H])N(C([H])([H])[H])C3([H])C6(C([H])(OC5=O)C2([H])C([H])([H])[H])C14[H]

$$$$
89:1:1
     RDKit          3D

 56 62  0  0  1  0  0  0  0  0999 V2000
    1.6181   -2.6002    5.7529 C   0  0  0  0  0  0  0  0  0  0  0  0
    2.3947   -2.1760    4.6478 O   0  0  0  0  0  0  0  0  0  0  0  0
    2.3232   -2.8406    3.4805 C   0  0  0  0  0  0  0  0  0  0  0  0
    1.5615   -3.7990    3.2977 O   0  0  0  0  0  0  0  0  0  0  0  0
    3.2083   -2.3106    2.5297 N   0  0  0  0  0  0  0  0  0  0  0  0
    4.1098   -1.1519    2.8001 C   0  0  1  0  0  0  0  0  0  0  0  0
    5.5525   -1.6359    2.7754 C   0  0  0  0  0  0  0  0  0  0  0  0
    5.7113   -2.6062    1.4750 C   0  0  1  0  0  0  0  0  0  0  0  0
    5.0759   -2.4484   -0.2089 C   0  0  1  0  0  0  0  0  0  0  0  0
    5.1771   -3.1601   -1.5550 N   0  0  0  0  0  0  0  0  0  0  0  0
    6.4189   -3.1933   -2.3553 C   0  0  0  0  0  0  0  0  0  0  0  0
    4.1916   -2.4197   -2.3414 C   0  0  1  0  0  0  0  0  0  0  0  0
    3.8134   -2.9834   -3.7233 C   0  0  0  0  0  0  0  0  0  0  0  0
    3.1198   -2.3973   -1.2944 C   0  0  1  0  0  0  0  0  0  0  0  0
    2.4850   -3.8547   -1.1743 C   0  0  0  0  0  0  0  0  0  0  0  0
    3.3233   -4.9366   -0.3372 C   0  0  0  0  0  0  0  0  0  0  0  0
    4.0341   -4.4080    0.9343 C   0  0  1  0  0  0  0  0  0  0  0  0
    5.7761   -4.5974    0.9938 C   0  0  1  0  0  0  0  0  0  0  0  0
    6.8672   -4.2268    0.1632 O   0  0  0  0  0  0  0  0  0  0  0  0
    6.8424   -3.2517    1.2188 C   0  0  2  0  0  0  0  0  0  0  0  0
    7.3026   -1.7253    0.6875 C   0  0  0  0  0  0  0  0  0  0  0  0
    8.5024   -1.5460    0.4731 O   0  0  0  0  0  0  0  0  0  0  0  0
    6.2379   -0.4890    0.5109 O   0  0  0  0  0  0  0  0  0  0  0  0
    4.6351   -0.5291    0.4293 C   0  0  2  0  0  0  0  0  0  0  0  0
    4.0085   -0.0404    1.7521 C   0  0  1  0  0  0  0  0  0  0  0  0
    2.5857    0.5149    1.5771 C   0  0  0  0  0  0  0  0  0  0  0  0
    3.8058   -1.9258    0.0501 C   0  0  2  0  0  0  0  0  0  0  0  0
    3.2766   -2.9221    1.1664 C   0  0  2  0  0  0  0  0  0  0  0  0
    1.8166   -1.9518    6.6057 H   0  0  0  0  0  0  0  0  0  0  0  0
    1.8803   -3.6214    6.0313 H   0  0  0  0  0  0  0  0  0  0  0  0
    0.5510   -2.5582    5.5283 H   0  0  0  0  0  0  0  0  0  0  0  0
    3.9293   -0.6693    3.7606 H   0  0  0  0  0  0  0  0  0  0  0  0
    6.2243   -0.7759    2.8378 H   0  0  0  0  0  0  0  0  0  0  0  0
    5.7790   -2.1198    3.7408 H   0  0  0  0  0  0  0  0  0  0  0  0
    5.3179   -3.1972    2.3225 H   0  0  0  0  0  0  0  0  0  0  0  0
    5.6096   -1.7878   -0.8887 H   0  0  0  0  0  0  0  0  0  0  0  0
    6.2564   -3.8177   -3.2355 H   0  0  0  0  0  0  0  0  0  0  0  0
    7.3053   -3.5755   -1.8592 H   0  0  0  0  0  0  0  0  0  0  0  0
    6.6874   -2.2096   -2.7116 H   0  0  0  0  0  0  0  0  0  0  0  0
    4.5006   -1.3827   -2.4988 H   0  0  0  0  0  0  0  0  0  0  0  0
    2.8552   -2.5749   -4.0537 H   0  0  0  0  0  0  0  0  0  0  0  0
    3.7490   -4.0706   -3.7261 H   0  0  0  0  0  0  0  0  0  0  0  0
    4.5608   -2.6902   -4.4574 H   0  0  0  0  0  0  0  0  0  0  0  0
    2.3905   -1.7146   -1.6924 H   0  0  0  0  0  0  0  0  0  0  0  0
    1.4902   -3.7598   -0.7404 H   0  0  0  0  0  0  0  0  0  0  0  0
    2.2214   -4.2461   -2.1543 H   0  0  0  0  0  0  0  0  0  0  0  0
    2.6413   -5.7454   -0.0724 H   0  0  0  0  0  0  0  0  0  0  0  0
    4.1083   -5.3829   -0.9535 H   0  0  0  0  0  0  0  0  0  0  0  0
    3.6807   -5.0452    1.7471 H   0  0  0  0  0  0  0  0  0  0  0  0
    6.0242   -5.5023    1.5452 H   0  0  0  0  0  0  0  0  0  0  0  0
    4.4025    0.1947   -0.3464 H   0  0  0  0  0  0  0  0  0  0  0  0
    4.6014    0.7764    2.1368 H   0  0  0  0  0  0  0  0  0  0  0  0
    1.9001   -0.2304    1.1775 H   0  0  0  0  0  0  0  0  0  0  0  0
    2.5872    1.3489    0.8821 H   0  0  0  0  0  0  0  0  0  0  0  0
    2.1848    0.8768    2.5250 H   0  0  0  0  0  0  0  0  0  0  0  0
    2.2016   -3.0195    1.0239 H   0  0  0  0  0  0  0  0  0  0  0  0
  1  2  1  0
  1 29  1  0
  1 30  1  0
  1 31  1  0
  2  3  1  0
  3  4  2  0
  3  5  1  0
  5 28  1  0
  5  6  1  0
  6 25  1  0
  6  7  1  0
  6 32  1  1
  7  8  1  0
  7 33  1  0
  7 34  1  0
  8 20  1  0
  8  9  1  0
  8 35  1  1
  9 27  1  0
  9 10  1  0
  9 36  1  6
 10 11  1  0
 10 12  1  0
 11 37  1  0
 11 38  1  0
 11 39  1  0
 12 13  1  0
 12 14  1  0
 12 40  1  6
 13 41  1  0
 13 42  1  0
 13 43  1  0
 27 14  1  6
 14 15  1  0
 14 44  1  6
 15 16  1  0
 15 45  1  0
 15 46  1  0
 16 17  1  0
 16 47  1  0
 16 48  1  0
 17 28  1  0
 17 18  1  0
 17 49  1  1
 18 20  1  0
 18 19  1  0
 18 50  1  1
 20 19  1  6
 20 21  1  0
 21 22  2  0
 21 23  1  0
 23 24  1  0
 24 25  1  0
 24 27  1  0
 24 51  1  6
 25 26  1  0
 25 52  1  1
 26 53  1  0
 26 54  1  0
 26 55  1  0
 27 28  1  0
 28 56  1  6
M  END
>  <i_m_ct_stereo_status>  (320) 
1

>  <s_m_source_file>  (320) 
/var/tmp/pbs.5076255.sched01/tmpulc5pjk6/123bob0etdf.sdf

>  <i_m_source_file_index>  (320) 
18

>  <i_lp_mmshare_version>  (320) 
48012

>  <i_f3d_flags>  (320) 
2

>  <s_epik_input>  (320) 
Tz1DMU9bQ0BASF0yW0NAQEhdKFtDSDNdKVtDQEhdKFtDSDJdMylOKEMoPU8pT1tDSDNdKVtDQEBIXTRbQ0BIXShbQ0hdNU82KVtDSDJdW0NIMl1bQ0BASF0oW0NASF0oW0NIM10pTjdbQ0gzXSlbQ0BAXTI0W0NAQEhdN1tDQEhdM0MxNTY=

>  <s_epik_cmdline>  (320) 
J2VwaWtfcHl0aG9uJywgJy1waHQnLCAnMi4wJywgJy1waCcsICc3LjAnLCAnLXRuJywgJzgnLCAnLW1hJywgJzIwMCcsICctaW1hZScsICc8aW5maWxlLm1hZT4nLCAnLW9tYWUnLCAnPG91dGZpbGUubWFlPic=

>  <r_epik_Ionization_Penalty>  (320) 
1.41079

>  <r_epik_Ionization_Penalty_Charging>  (320) 
0

>  <r_epik_Ionization_Penalty_Neutral>  (320) 
1.41079

>  <r_epik_State_Penalty>  (320) 
1.49374

>  <r_epik_Charging_Adjusted_Penalty>  (320) 
1.49374

>  <i_epik_Tot_Q>  (320) 
0

>  <i_epik_Tot_abs_Q>  (320) 
0

>  <s_epik_Chemistry_Notes>  (320) 
This compound has an ester and may undergo hydrolysis at high or low pH.

>  <s_lp_Force_Field>  (320) 
OPLS3e

>  <r_lp_Energy>  (320) 
543.457

>  <b_lp_Chiralities_Consistent>  (320) 
0

>  <s_lp_Variant>  (320) 
89:0-2

>  <s_i_glide_gridfile>  (320) 
pfpi4k_grid

>  <i_i_glide_lignum>  (320) 
18

>  <i_i_glide_rotatable_bonds>  (320) 
2

>  <r_i_docking_score>  (320) 
-2.21379

>  <r_i_glide_ligand_efficiency>  (320) 
-0.0790639

>  <r_i_glide_ligand_efficiency_sa>  (320) 
-0.240085

>  <r_i_glide_ligand_efficiency_ln>  (320) 
-0.511007

>  <r_i_glide_gscore>  (320) 
-2.21379

>  <r_i_glide_lipo>  (320) 
-0.841955

>  <r_i_glide_hbond>  (320) 
-0.000294802

>  <r_i_glide_metal>  (320) 
-0

>  <r_i_glide_rewards>  (320) 
-0.762489

>  <r_i_glide_evdw>  (320) 
-16.6967

>  <r_i_glide_ecoul>  (320) 
0.727284

>  <r_i_glide_erotb>  (320) 
0.129121

>  <r_i_glide_esite>  (320) 
-0.01243

>  <r_i_glide_emodel>  (320) 
-16.8244

>  <r_i_glide_energy>  (320) 
-15.9694

>  <r_i_glide_einternal>  (320) 
0.00576291

>  <r_i_glide_intrahb_reward>  (320) 
-0

>  <i_i_glide_confnum>  (320) 
2

>  <i_i_glide_posenum>  (320) 
33

>  <r_i_glide_eff_state_penalty>  (320) 
0

>  <ligand_id>  (320) 
89

>  <original_smiles>  (320) 
COC(=O)N1C2CC3C4N(C)C(C)C5CCC6C7OC37C(=O)OC(C2C)C54C61

>  <smiles>  (320) 
[H]C([H])([H])OC(=O)N1C2([H])C([H])([H])C3([H])C45OC4([H])C4([H])C([H])([H])C([H])([H])C6([H])C([H])(C([H])([H])[H])N(C([H])([H])[H])C3([H])C6(C([H])(OC5=O)C2([H])C([H])([H])[H])C14[H]

$$$$
90:0:0
     RDKit          3D

 24 26  0  0  1  0  0  0  0  0999 V2000
    4.7878   -6.5674    0.3093 C   0  0  0  0  0  0  0  0  0  0  0  0
    4.0108   -5.8333    1.4132 C   0  0  2  0  0  0  0  0  0  0  0  0
    2.7418   -6.5572    1.7830 C   0  0  0  0  0  0  0  0  0  0  0  0
    1.4901   -6.1084    1.4581 N   0  0  0  0  0  0  0  0  0  0  0  0
    0.6940   -7.0186    2.0105 C   0  0  0  0  0  0  0  0  0  0  0  0
   -0.6498   -7.0535    2.0726 N   0  0  0  0  0  0  0  0  0  0  0  0
   -1.1912   -8.1267    2.6412 C   0  0  0  0  0  0  0  0  0  0  0  0
   -0.4453   -9.1811    3.2169 C   0  0  0  0  0  0  0  0  0  0  0  0
    0.9308   -9.1200    3.1844 C   0  0  0  0  0  0  0  0  0  0  0  0
    1.4841   -8.0276    2.5822 N   0  0  0  0  0  0  0  0  0  0  0  0
    2.7964   -7.7130    2.4426 N   0  0  0  0  0  0  0  0  0  0  0  0
    3.7592   -4.4537    1.0143 N   0  0  0  0  0  0  0  0  0  0  0  0
    3.6710   -3.8831   -0.1906 C   0  0  0  0  0  0  0  0  0  0  0  0
    3.4134   -2.5885   -0.0966 N   0  0  0  0  0  0  0  0  0  0  0  0
    3.3108   -2.3833    1.2660 N   0  0  0  0  0  0  0  0  0  0  0  0
    3.5170   -3.4836    1.9320 N   0  0  0  0  0  0  0  0  0  0  0  0
    5.0714   -7.5766    0.6111 H   0  0  0  0  0  0  0  0  0  0  0  0
    5.7009   -6.0291    0.0610 H   0  0  0  0  0  0  0  0  0  0  0  0
    4.2103   -6.6570   -0.6100 H   0  0  0  0  0  0  0  0  0  0  0  0
    4.6506   -5.8022    2.3040 H   0  0  0  0  0  0  0  0  0  0  0  0
   -2.2767   -8.1660    2.6437 H   0  0  0  0  0  0  0  0  0  0  0  0
   -0.9549  -10.0205    3.6821 H   0  0  0  0  0  0  0  0  0  0  0  0
    1.5873   -9.8749    3.6105 H   0  0  0  0  0  0  0  0  0  0  0  0
    3.8065   -4.3916   -1.1345 H   0  0  0  0  0  0  0  0  0  0  0  0
  1  2  1  0
  1 17  1  0
  1 18  1  0
  1 19  1  0
  2  3  1  0
  2 12  1  0
  2 20  1  1
  3 11  2  0
  3  4  1  0
  4  5  2  0
  5 10  1  0
  5  6  1  0
  6  7  2  0
  7  8  1  0
  7 21  1  0
  8  9  2  0
  8 22  1  0
  9 10  1  0
  9 23  1  0
 10 11  1  0
 12 16  1  0
 12 13  1  0
 13 14  2  0
 13 24  1  0
 14 15  1  0
 15 16  2  0
M  END
>  <i_m_ct_stereo_status>  (321) 
1

>  <s_m_source_file>  (321) 
/var/tmp/pbs.5076255.sched01/tmpulc5pjk6/123bob0etdf.sdf

>  <i_m_source_file_index>  (321) 
19

>  <i_lp_mmshare_version>  (321) 
48012

>  <i_f3d_flags>  (321) 
0

>  <s_epik_input>  (321) 
bjFubltjSF1uMVtDQEhdKFtDSDNdKWMobjIpbm4oYzIzKVtjSF1bY0hdW2NIXW4z

>  <s_epik_cmdline>  (321) 
J2VwaWtfcHl0aG9uJywgJy1waHQnLCAnMi4wJywgJy1waCcsICc3LjAnLCAnLXRuJywgJzgnLCAnLW1hJywgJzIwMCcsICctaW1hZScsICc8aW5maWxlLm1hZT4nLCAnLW9tYWUnLCAnPG91dGZpbGUubWFlPic=

>  <r_lp_tautomer_probability>  (321) 
1

>  <r_epik_Ionization_Penalty>  (321) 
1.98013e-09

>  <r_epik_Ionization_Penalty_Charging>  (321) 
0

>  <r_epik_Ionization_Penalty_Neutral>  (321) 
1.98013e-09

>  <r_epik_State_Penalty>  (321) 
-0

>  <r_epik_Charging_Adjusted_Penalty>  (321) 
0

>  <i_epik_Tot_Q>  (321) 
0

>  <i_epik_Tot_abs_Q>  (321) 
0

>  <s_lp_Force_Field>  (321) 
OPLS3e

>  <r_lp_Energy>  (321) 
18.1656

>  <b_lp_Chiralities_Consistent>  (321) 
1

>  <s_lp_Variant>  (321) 
90:0-1

>  <s_i_glide_gridfile>  (321) 
pfpi4k_grid

>  <i_i_glide_lignum>  (321) 
19

>  <i_i_glide_rotatable_bonds>  (321) 
2

>  <r_i_docking_score>  (321) 
-3.4295

>  <r_i_glide_ligand_efficiency>  (321) 
-0.214344

>  <r_i_glide_ligand_efficiency_sa>  (321) 
-0.540113

>  <r_i_glide_ligand_efficiency_ln>  (321) 
-0.909059

>  <r_i_glide_gscore>  (321) 
-3.4295

>  <r_i_glide_lipo>  (321) 
-0.16921

>  <r_i_glide_hbond>  (321) 
-0.211804

>  <r_i_glide_metal>  (321) 
-0

>  <r_i_glide_rewards>  (321) 
-1.94659

>  <r_i_glide_evdw>  (321) 
-20.2595

>  <r_i_glide_ecoul>  (321) 
-4.40095

>  <r_i_glide_erotb>  (321) 
0.716753

>  <r_i_glide_esite>  (321) 
-0.145535

>  <r_i_glide_emodel>  (321) 
-29.4657

>  <r_i_glide_energy>  (321) 
-24.6604

>  <r_i_glide_einternal>  (321) 
2.33358

>  <r_i_glide_intrahb_reward>  (321) 
-0

>  <i_i_glide_confnum>  (321) 
5

>  <i_i_glide_posenum>  (321) 
21

>  <r_i_glide_eff_state_penalty>  (321) 
0

>  <ligand_id>  (321) 
90

>  <original_smiles>  (321) 
CC(c1nc2ncccn2n1)n1cnnn1

>  <smiles>  (321) 
[H]c1nc2nc(C([H])(n3nnnc3[H])C([H])([H])[H])nn2c([H])c1[H]

$$$$
90:0:1
     RDKit          3D

 24 26  0  0  1  0  0  0  0  0999 V2000
    4.4947   -5.8558    0.0964 C   0  0  0  0  0  0  0  0  0  0  0  0
    4.0810   -5.6670    1.5636 C   0  0  2  0  0  0  0  0  0  0  0  0
    2.8059   -6.3959    1.8972 C   0  0  0  0  0  0  0  0  0  0  0  0
    1.5637   -5.9004    1.6037 N   0  0  0  0  0  0  0  0  0  0  0  0
    0.7518   -6.8482    2.0598 C   0  0  0  0  0  0  0  0  0  0  0  0
   -0.5917   -6.8790    2.0775 N   0  0  0  0  0  0  0  0  0  0  0  0
   -1.1559   -7.9684    2.5945 C   0  0  0  0  0  0  0  0  0  0  0  0
   -0.4335   -9.0552    3.1383 C   0  0  0  0  0  0  0  0  0  0  0  0
    0.9436   -9.0110    3.1227 C   0  0  0  0  0  0  0  0  0  0  0  0
    1.5191   -7.8984    2.5812 N   0  0  0  0  0  0  0  0  0  0  0  0
    2.8403   -7.6036    2.4569 N   0  0  0  0  0  0  0  0  0  0  0  0
    3.9789   -4.2503    1.8807 N   0  0  0  0  0  0  0  0  0  0  0  0
    3.3351   -3.2539    1.2649 C   0  0  0  0  0  0  0  0  0  0  0  0
    3.4946   -2.1058    1.9045 N   0  0  0  0  0  0  0  0  0  0  0  0
    4.2864   -2.4530    2.9835 N   0  0  0  0  0  0  0  0  0  0  0  0
    4.5696   -3.7238    2.9809 N   0  0  0  0  0  0  0  0  0  0  0  0
    4.6358   -6.9079   -0.1544 H   0  0  0  0  0  0  0  0  0  0  0  0
    5.4232   -5.3286   -0.1192 H   0  0  0  0  0  0  0  0  0  0  0  0
    3.7384   -5.4533   -0.5753 H   0  0  0  0  0  0  0  0  0  0  0  0
    4.8762   -6.0870    2.1852 H   0  0  0  0  0  0  0  0  0  0  0  0
   -2.2428   -7.9927    2.5874 H   0  0  0  0  0  0  0  0  0  0  0  0
   -0.9585   -9.9084    3.5604 H   0  0  0  0  0  0  0  0  0  0  0  0
    1.5842   -9.7964    3.5184 H   0  0  0  0  0  0  0  0  0  0  0  0
    2.7519   -3.3619    0.3604 H   0  0  0  0  0  0  0  0  0  0  0  0
  1  2  1  0
  1 17  1  0
  1 18  1  0
  1 19  1  0
  2  3  1  0
  2 12  1  0
  2 20  1  1
  3 11  2  0
  3  4  1  0
  4  5  2  0
  5 10  1  0
  5  6  1  0
  6  7  2  0
  7  8  1  0
  7 21  1  0
  8  9  2  0
  8 22  1  0
  9 10  1  0
  9 23  1  0
 10 11  1  0
 12 16  1  0
 12 13  1  0
 13 14  2  0
 13 24  1  0
 14 15  1  0
 15 16  2  0
M  END
>  <i_m_ct_stereo_status>  (322) 
1

>  <s_m_source_file>  (322) 
/var/tmp/pbs.5076255.sched01/tmpulc5pjk6/123bob0etdf.sdf

>  <i_m_source_file_index>  (322) 
19

>  <i_lp_mmshare_version>  (322) 
48012

>  <i_f3d_flags>  (322) 
0

>  <s_epik_input>  (322) 
bjFubltjSF1uMVtDQEhdKFtDSDNdKWMobjIpbm4oYzIzKVtjSF1bY0hdW2NIXW4z

>  <s_epik_cmdline>  (322) 
J2VwaWtfcHl0aG9uJywgJy1waHQnLCAnMi4wJywgJy1waCcsICc3LjAnLCAnLXRuJywgJzgnLCAnLW1hJywgJzIwMCcsICctaW1hZScsICc8aW5maWxlLm1hZT4nLCAnLW9tYWUnLCAnPG91dGZpbGUubWFlPic=

>  <r_lp_tautomer_probability>  (322) 
1

>  <r_epik_Ionization_Penalty>  (322) 
1.98013e-09

>  <r_epik_Ionization_Penalty_Charging>  (322) 
0

>  <r_epik_Ionization_Penalty_Neutral>  (322) 
1.98013e-09

>  <r_epik_State_Penalty>  (322) 
-0

>  <r_epik_Charging_Adjusted_Penalty>  (322) 
0

>  <i_epik_Tot_Q>  (322) 
0

>  <i_epik_Tot_abs_Q>  (322) 
0

>  <s_lp_Force_Field>  (322) 
OPLS3e

>  <r_lp_Energy>  (322) 
18.1656

>  <b_lp_Chiralities_Consistent>  (322) 
1

>  <s_lp_Variant>  (322) 
90:0-1

>  <s_i_glide_gridfile>  (322) 
pfpi4k_grid

>  <i_i_glide_lignum>  (322) 
19

>  <i_i_glide_rotatable_bonds>  (322) 
2

>  <r_i_docking_score>  (322) 
-3.30069

>  <r_i_glide_ligand_efficiency>  (322) 
-0.206293

>  <r_i_glide_ligand_efficiency_sa>  (322) 
-0.519825

>  <r_i_glide_ligand_efficiency_ln>  (322) 
-0.874913

>  <r_i_glide_gscore>  (322) 
-3.30069

>  <r_i_glide_lipo>  (322) 
-0.0704628

>  <r_i_glide_hbond>  (322) 
-0.222219

>  <r_i_glide_metal>  (322) 
-0

>  <r_i_glide_rewards>  (322) 
-1.94468

>  <r_i_glide_evdw>  (322) 
-17.8478

>  <r_i_glide_ecoul>  (322) 
-5.28319

>  <r_i_glide_erotb>  (322) 
0.716753

>  <r_i_glide_esite>  (322) 
-0.0952039

>  <r_i_glide_emodel>  (322) 
-28.6473

>  <r_i_glide_energy>  (322) 
-23.131

>  <r_i_glide_einternal>  (322) 
0.622814

>  <r_i_glide_intrahb_reward>  (322) 
-0

>  <i_i_glide_confnum>  (322) 
5

>  <i_i_glide_posenum>  (322) 
1

>  <r_i_glide_eff_state_penalty>  (322) 
0

>  <ligand_id>  (322) 
90

>  <original_smiles>  (322) 
CC(c1nc2ncccn2n1)n1cnnn1

>  <smiles>  (322) 
[H]c1nc2nc(C([H])(n3nnnc3[H])C([H])([H])[H])nn2c([H])c1[H]

$$$$
90:0:2
     RDKit          3D

 24 26  0  0  1  0  0  0  0  0999 V2000
    4.2542   -5.6515    0.0853 C   0  0  0  0  0  0  0  0  0  0  0  0
    3.9254   -5.7277    1.5855 C   0  0  2  0  0  0  0  0  0  0  0  0
    2.6709   -6.5147    1.8641 C   0  0  0  0  0  0  0  0  0  0  0  0
    1.4149   -6.0163    1.6575 N   0  0  0  0  0  0  0  0  0  0  0  0
    0.6276   -7.0153    2.0365 C   0  0  0  0  0  0  0  0  0  0  0  0
   -0.7155   -7.0626    2.0872 N   0  0  0  0  0  0  0  0  0  0  0  0
   -1.2476   -8.2134    2.4907 C   0  0  0  0  0  0  0  0  0  0  0  0
   -0.4938   -9.3456    2.8840 C   0  0  0  0  0  0  0  0  0  0  0  0
    0.8817   -9.2765    2.8477 C   0  0  0  0  0  0  0  0  0  0  0  0
    1.4274   -8.1027    2.4186 N   0  0  0  0  0  0  0  0  0  0  0  0
    2.7385   -7.7731    2.2942 N   0  0  0  0  0  0  0  0  0  0  0  0
    3.8919   -4.4044    2.1958 N   0  0  0  0  0  0  0  0  0  0  0  0
    4.5975   -3.9060    3.2114 C   0  0  0  0  0  0  0  0  0  0  0  0
    4.2576   -2.6531    3.4770 N   0  0  0  0  0  0  0  0  0  0  0  0
    3.2728   -2.3893    2.5436 N   0  0  0  0  0  0  0  0  0  0  0  0
    3.0607   -3.4161    1.7710 N   0  0  0  0  0  0  0  0  0  0  0  0
    4.3826   -6.6473   -0.3408 H   0  0  0  0  0  0  0  0  0  0  0  0
    5.1744   -5.0977   -0.0884 H   0  0  0  0  0  0  0  0  0  0  0  0
    3.4590   -5.1470   -0.4599 H   0  0  0  0  0  0  0  0  0  0  0  0
    4.7523   -6.2623    2.0561 H   0  0  0  0  0  0  0  0  0  0  0  0
   -2.3334   -8.2503    2.5108 H   0  0  0  0  0  0  0  0  0  0  0  0
   -0.9883  -10.2508    3.2233 H   0  0  0  0  0  0  0  0  0  0  0  0
    1.5433  -10.0894    3.1360 H   0  0  0  0  0  0  0  0  0  0  0  0
    5.3614   -4.4450    3.7509 H   0  0  0  0  0  0  0  0  0  0  0  0
  1  2  1  0
  1 17  1  0
  1 18  1  0
  1 19  1  0
  2  3  1  0
  2 12  1  0
  2 20  1  1
  3 11  2  0
  3  4  1  0
  4  5  2  0
  5 10  1  0
  5  6  1  0
  6  7  2  0
  7  8  1  0
  7 21  1  0
  8  9  2  0
  8 22  1  0
  9 10  1  0
  9 23  1  0
 10 11  1  0
 12 16  1  0
 12 13  1  0
 13 14  2  0
 13 24  1  0
 14 15  1  0
 15 16  2  0
M  END
>  <i_m_ct_stereo_status>  (323) 
1

>  <s_m_source_file>  (323) 
/var/tmp/pbs.5076255.sched01/tmpulc5pjk6/123bob0etdf.sdf

>  <i_m_source_file_index>  (323) 
19

>  <i_lp_mmshare_version>  (323) 
48012

>  <i_f3d_flags>  (323) 
0

>  <s_epik_input>  (323) 
bjFubltjSF1uMVtDQEhdKFtDSDNdKWMobjIpbm4oYzIzKVtjSF1bY0hdW2NIXW4z

>  <s_epik_cmdline>  (323) 
J2VwaWtfcHl0aG9uJywgJy1waHQnLCAnMi4wJywgJy1waCcsICc3LjAnLCAnLXRuJywgJzgnLCAnLW1hJywgJzIwMCcsICctaW1hZScsICc8aW5maWxlLm1hZT4nLCAnLW9tYWUnLCAnPG91dGZpbGUubWFlPic=

>  <r_lp_tautomer_probability>  (323) 
1

>  <r_epik_Ionization_Penalty>  (323) 
1.98013e-09

>  <r_epik_Ionization_Penalty_Charging>  (323) 
0

>  <r_epik_Ionization_Penalty_Neutral>  (323) 
1.98013e-09

>  <r_epik_State_Penalty>  (323) 
-0

>  <r_epik_Charging_Adjusted_Penalty>  (323) 
0

>  <i_epik_Tot_Q>  (323) 
0

>  <i_epik_Tot_abs_Q>  (323) 
0

>  <s_lp_Force_Field>  (323) 
OPLS3e

>  <r_lp_Energy>  (323) 
18.1656

>  <b_lp_Chiralities_Consistent>  (323) 
1

>  <s_lp_Variant>  (323) 
90:0-1

>  <s_i_glide_gridfile>  (323) 
pfpi4k_grid

>  <i_i_glide_lignum>  (323) 
19

>  <i_i_glide_rotatable_bonds>  (323) 
2

>  <r_i_docking_score>  (323) 
-3.06704

>  <r_i_glide_ligand_efficiency>  (323) 
-0.19169

>  <r_i_glide_ligand_efficiency_sa>  (323) 
-0.483029

>  <r_i_glide_ligand_efficiency_ln>  (323) 
-0.812981

>  <r_i_glide_gscore>  (323) 
-3.06704

>  <r_i_glide_lipo>  (323) 
-0.0330631

>  <r_i_glide_hbond>  (323) 
-0.226797

>  <r_i_glide_metal>  (323) 
-0

>  <r_i_glide_rewards>  (323) 
-1.95834

>  <r_i_glide_evdw>  (323) 
-19.1001

>  <r_i_glide_ecoul>  (323) 
-3.44389

>  <r_i_glide_erotb>  (323) 
0.716753

>  <r_i_glide_esite>  (323) 
-0.0940028

>  <r_i_glide_emodel>  (323) 
-27.8048

>  <r_i_glide_energy>  (323) 
-22.544

>  <r_i_glide_einternal>  (323) 
0.308114

>  <r_i_glide_intrahb_reward>  (323) 
-0

>  <i_i_glide_confnum>  (323) 
4

>  <i_i_glide_posenum>  (323) 
14

>  <r_i_glide_eff_state_penalty>  (323) 
0

>  <ligand_id>  (323) 
90

>  <original_smiles>  (323) 
CC(c1nc2ncccn2n1)n1cnnn1

>  <smiles>  (323) 
[H]c1nc2nc(C([H])(n3nnnc3[H])C([H])([H])[H])nn2c([H])c1[H]

$$$$
91:0:0
     RDKit          3D

 67 72  0  0  1  0  0  0  0  0999 V2000
    5.3188   -2.9391    5.3631 C   0  0  0  0  0  0  0  0  0  0  0  0
    4.5037   -2.0177    4.4779 C   0  0  0  0  0  0  0  0  0  0  0  0
    3.5590   -1.1662    5.2983 C   0  0  0  0  0  0  0  0  0  0  0  0
    5.0949   -1.4357    3.1992 C   0  0  2  0  0  0  0  0  0  0  0  0
    4.6881   -0.4367    2.2318 C   0  0  0  0  0  0  0  0  0  0  0  0
    4.7594   -0.6127    0.8929 C   0  0  0  0  0  0  0  0  0  0  0  0
    5.2736   -1.7915    0.0191 C   0  0  1  0  0  0  0  0  0  0  0  0
    6.6294   -1.5291   -0.2847 O   0  0  0  0  0  0  0  0  0  0  0  0
    5.1312   -3.3437    0.3447 C   0  0  1  0  0  0  0  0  0  0  0  0
    5.5132   -3.9812   -1.0175 C   0  0  0  0  0  0  0  0  0  0  0  0
    5.8305   -3.8781    1.6231 C   0  0  2  0  0  0  0  0  0  0  0  0
    6.6955   -5.1305    1.6030 C   0  0  0  0  0  0  0  0  0  0  0  0
    6.2540   -6.3391    2.4513 C   0  0  1  0  0  0  0  0  0  0  0  0
    7.2675   -7.4768    2.3580 C   0  0  0  0  0  0  0  0  0  0  0  0
    6.4723   -8.3381    3.3032 C   0  0  1  0  0  0  0  0  0  0  0  0
    7.1175   -9.5638    3.6173 O   0  0  0  0  0  0  0  0  0  0  0  0
    6.4185   -7.3657    4.4976 C   0  0  0  0  0  0  0  0  0  0  0  0
    6.2976   -6.0953    3.8549 O   0  0  0  0  0  0  0  0  0  0  0  0
    5.0995   -8.4885    2.5840 C   0  0  0  0  0  0  0  0  0  0  0  0
    5.1931   -9.4598    1.3749 C   0  0  0  0  0  0  0  0  0  0  0  0
    3.9888   -9.0314    3.5129 C   0  0  0  0  0  0  0  0  0  0  0  0
    4.8595   -6.9918    2.1869 C   0  0  2  0  0  0  0  0  0  0  0  0
    4.2419   -6.6896    0.7991 C   0  0  0  0  0  0  0  0  0  0  0  0
    3.3263   -5.4148    0.6386 C   0  0  1  0  0  0  0  0  0  0  0  0
    2.1686   -5.7166    1.4089 O   0  0  0  0  0  0  0  0  0  0  0  0
    3.8159   -3.9462    0.9645 C   0  0  2  0  0  0  0  0  0  0  0  0
    2.5882   -3.0797    0.6251 C   0  0  0  0  0  0  0  0  0  0  0  0
    4.4706   -3.7507    2.3566 C   0  0  2  0  0  0  0  0  0  0  0  0
    4.0865   -2.5440    3.1412 C   0  0  1  0  0  0  0  0  0  0  0  0
    5.9136   -2.3774    6.0807 H   0  0  0  0  0  0  0  0  0  0  0  0
    5.9943   -3.5409    4.7514 H   0  0  0  0  0  0  0  0  0  0  0  0
    4.6643   -3.6304    5.8978 H   0  0  0  0  0  0  0  0  0  0  0  0
    2.9656   -0.5224    4.6406 H   0  0  0  0  0  0  0  0  0  0  0  0
    4.1105   -0.5276    5.9880 H   0  0  0  0  0  0  0  0  0  0  0  0
    2.8692   -1.7932    5.8655 H   0  0  0  0  0  0  0  0  0  0  0  0
    6.1849   -1.5560    3.1881 H   0  0  0  0  0  0  0  0  0  0  0  0
    4.2906    0.4940    2.6183 H   0  0  0  0  0  0  0  0  0  0  0  0
    4.4221    0.2214    0.2988 H   0  0  0  0  0  0  0  0  0  0  0  0
    4.7317   -1.6029   -0.9095 H   0  0  0  0  0  0  0  0  0  0  0  0
    7.1208   -1.6678    0.4987 H   0  0  0  0  0  0  0  0  0  0  0  0
    5.3777   -5.0597   -1.0431 H   0  0  0  0  0  0  0  0  0  0  0  0
    6.5594   -3.8120   -1.2732 H   0  0  0  0  0  0  0  0  0  0  0  0
    4.8987   -3.6015   -1.8347 H   0  0  0  0  0  0  0  0  0  0  0  0
    6.5097   -3.0756    1.9237 H   0  0  0  0  0  0  0  0  0  0  0  0
    6.8692   -5.4865    0.5877 H   0  0  0  0  0  0  0  0  0  0  0  0
    7.6968   -4.8663    1.9464 H   0  0  0  0  0  0  0  0  0  0  0  0
    7.3999   -7.8768    1.3573 H   0  0  0  0  0  0  0  0  0  0  0  0
    8.2497   -7.2047    2.7450 H   0  0  0  0  0  0  0  0  0  0  0  0
    6.5721  -10.0414    4.2059 H   0  0  0  0  0  0  0  0  0  0  0  0
    5.6042   -7.5445    5.2022 H   0  0  0  0  0  0  0  0  0  0  0  0
    7.3493   -7.3776    5.0706 H   0  0  0  0  0  0  0  0  0  0  0  0
    4.2132   -9.6605    0.9409 H   0  0  0  0  0  0  0  0  0  0  0  0
    5.5845  -10.4326    1.6823 H   0  0  0  0  0  0  0  0  0  0  0  0
    5.8280   -9.0994    0.5697 H   0  0  0  0  0  0  0  0  0  0  0  0
    3.0507   -9.1517    2.9707 H   0  0  0  0  0  0  0  0  0  0  0  0
    3.7765   -8.3780    4.3585 H   0  0  0  0  0  0  0  0  0  0  0  0
    4.2541  -10.0108    3.9164 H   0  0  0  0  0  0  0  0  0  0  0  0
    4.1489   -6.6296    2.9226 H   0  0  0  0  0  0  0  0  0  0  0  0
    5.0153   -6.7488    0.0410 H   0  0  0  0  0  0  0  0  0  0  0  0
    3.5885   -7.5229    0.5484 H   0  0  0  0  0  0  0  0  0  0  0  0
    2.9791   -5.4311   -0.3899 H   0  0  0  0  0  0  0  0  0  0  0  0
    2.4312   -5.8203    2.2994 H   0  0  0  0  0  0  0  0  0  0  0  0
    1.7949   -3.3062    1.3119 H   0  0  0  0  0  0  0  0  0  0  0  0
    2.2511   -3.1995   -0.4059 H   0  0  0  0  0  0  0  0  0  0  0  0
    2.7310   -2.0087    0.7659 H   0  0  0  0  0  0  0  0  0  0  0  0
    4.2983   -4.6151    2.9936 H   0  0  0  0  0  0  0  0  0  0  0  0
    3.0331   -2.2704    2.9906 H   0  0  0  0  0  0  0  0  0  0  0  0
  1  2  1  0
  1 30  1  0
  1 31  1  0
  1 32  1  0
  2 29  1  0
  2  3  1  0
  2  4  1  0
  3 33  1  0
  3 34  1  0
  3 35  1  0
  4 29  1  0
  4  5  1  0
  4 36  1  1
  5  6  2  3
  5 37  1  0
  6  7  1  0
  6 38  1  0
  7  8  1  0
  7  9  1  0
  7 39  1  6
  8 40  1  0
  9 26  1  0
  9 10  1  6
  9 11  1  0
 10 41  1  0
 10 42  1  0
 10 43  1  0
 11 28  1  0
 11 12  1  0
 11 44  1  1
 12 13  1  0
 12 45  1  0
 12 46  1  0
 13 18  1  1
 13 22  1  0
 13 14  1  0
 14 15  1  0
 14 47  1  0
 14 48  1  0
 15 16  1  1
 15 17  1  0
 15 19  1  0
 16 49  1  0
 17 18  1  0
 17 50  1  0
 17 51  1  0
 19 20  1  0
 19 21  1  0
 19 22  1  0
 20 52  1  0
 20 53  1  0
 20 54  1  0
 21 55  1  0
 21 56  1  0
 21 57  1  0
 22 23  1  0
 22 58  1  1
 23 24  1  0
 23 59  1  0
 23 60  1  0
 24 25  1  0
 24 26  1  0
 24 61  1  6
 25 62  1  0
 26 27  1  1
 26 28  1  0
 27 63  1  0
 27 64  1  0
 27 65  1  0
 28 29  1  0
 28 66  1  1
 29 67  1  6
M  END
>  <i_m_ct_stereo_status>  (324) 
1

>  <s_m_source_file>  (324) 
/var/tmp/pbs.5076255.sched01/tmpulc5pjk6/123bob0etdf.sdf

>  <i_m_source_file_index>  (324) 
20

>  <i_lp_mmshare_version>  (324) 
48012

>  <i_f3d_flags>  (324) 
0

>  <s_epik_input>  (324) 
W09IXVtDQEBIXTEvW0NIXT1bQ0hdXFtDQEBIXShDMihbQ0gzXSlbQ0gzXSlbQ0BIXTJbQ0BASF0zW0NAQEhdKFtDSDJdNClbQ0BAXTEoW0NIM10pW0NAQF0zKFtDSDNdKVtDQEhdKFtPSF0pW0NIMl1bQ0BIXShbQ0BdNDU2KUMoW0NIM10pKFtDSDNdKVtDQF0oW0NIMl01KShbT0hdKVtDSDJdTzY=

>  <s_epik_cmdline>  (324) 
J2VwaWtfcHl0aG9uJywgJy1waHQnLCAnMi4wJywgJy1waCcsICc3LjAnLCAnLXRuJywgJzgnLCAnLW1hJywgJzIwMCcsICctaW1hZScsICc8aW5maWxlLm1hZT4nLCAnLW9tYWUnLCAnPG91dGZpbGUubWFlPic=

>  <r_lp_tautomer_probability>  (324) 
1

>  <r_epik_Ionization_Penalty>  (324) 
1.39114e-06

>  <r_epik_Ionization_Penalty_Charging>  (324) 
0

>  <r_epik_Ionization_Penalty_Neutral>  (324) 
1.39114e-06

>  <r_epik_State_Penalty>  (324) 
-0

>  <r_epik_Charging_Adjusted_Penalty>  (324) 
0

>  <i_epik_Tot_Q>  (324) 
0

>  <i_epik_Tot_abs_Q>  (324) 
0

>  <s_lp_Force_Field>  (324) 
OPLS3e

>  <r_lp_Energy>  (324) 
106.646

>  <b_lp_Chiralities_Consistent>  (324) 
1

>  <s_lp_Variant>  (324) 
91:0-1

>  <s_i_glide_gridfile>  (324) 
pfpi4k_grid

>  <i_i_glide_lignum>  (324) 
20

>  <i_i_glide_rotatable_bonds>  (324) 
3

>  <r_i_docking_score>  (324) 
-3.22228

>  <r_i_glide_ligand_efficiency>  (324) 
-0.111113

>  <r_i_glide_ligand_efficiency_sa>  (324) 
-0.341374

>  <r_i_glide_ligand_efficiency_ln>  (324) 
-0.73782

>  <r_i_glide_gscore>  (324) 
-3.22228

>  <r_i_glide_lipo>  (324) 
-0.769499

>  <r_i_glide_hbond>  (324) 
-0.119093

>  <r_i_glide_metal>  (324) 
-0

>  <r_i_glide_rewards>  (324) 
-0.664317

>  <r_i_glide_evdw>  (324) 
-19.5074

>  <r_i_glide_ecoul>  (324) 
-4.62665

>  <r_i_glide_erotb>  (324) 
0

>  <r_i_glide_esite>  (324) 
0

>  <r_i_glide_emodel>  (324) 
-29.0702

>  <r_i_glide_energy>  (324) 
-24.1341

>  <r_i_glide_einternal>  (324) 
0.0464171

>  <r_i_glide_intrahb_reward>  (324) 
-0

>  <i_i_glide_confnum>  (324) 
1

>  <i_i_glide_posenum>  (324) 
20

>  <r_i_glide_eff_state_penalty>  (324) 
0

>  <ligand_id>  (324) 
91

>  <original_smiles>  (324) 
CC1(C)C2C=CC(O)C3(C)C4CC56CC(O)(CO5)C(C)(C)C6CC(O)C3(C)C4C21

>  <smiles>  (324) 
[H]OC1([H])C([H])=C([H])C2([H])C([H])(C3([H])C4([H])C([H])([H])C56OC([H])([H])C(O[H])(C5([H])[H])C(C([H])([H])[H])(C([H])([H])[H])C6([H])C([H])([H])C([H])(O[H])C3(C([H])([H])[H])C14C([H])([H])[H])C2(C([H])([H])[H])C([H])([H])[H]

$$$$
91:0:1
     RDKit          3D

 67 72  0  0  1  0  0  0  0  0999 V2000
    5.6999   -3.1033    4.7223 C   0  0  0  0  0  0  0  0  0  0  0  0
    5.1258   -1.9842    3.8621 C   0  0  0  0  0  0  0  0  0  0  0  0
    4.5495   -0.8738    4.7238 C   0  0  0  0  0  0  0  0  0  0  0  0
    5.7085   -1.6307    2.5111 C   0  0  2  0  0  0  0  0  0  0  0  0
    5.4655   -0.5634    1.5234 C   0  0  0  0  0  0  0  0  0  0  0  0
    5.3763   -0.7716    0.2071 C   0  0  0  0  0  0  0  0  0  0  0  0
    5.4888   -2.0535   -0.6576 C   0  0  1  0  0  0  0  0  0  0  0  0
    6.8319   -2.1508   -1.1225 O   0  0  0  0  0  0  0  0  0  0  0  0
    4.9478   -3.5019   -0.2558 C   0  0  1  0  0  0  0  0  0  0  0  0
    4.9994   -4.2199   -1.6129 C   0  0  0  0  0  0  0  0  0  0  0  0
    5.6232   -4.1594    0.9711 C   0  0  2  0  0  0  0  0  0  0  0  0
    6.0974   -5.6260    0.9386 C   0  0  0  0  0  0  0  0  0  0  0  0
    5.4474   -6.6476    1.8888 C   0  0  1  0  0  0  0  0  0  0  0  0
    6.0679   -8.0333    1.7475 C   0  0  0  0  0  0  0  0  0  0  0  0
    5.1665   -8.6217    2.8076 C   0  0  1  0  0  0  0  0  0  0  0  0
    5.4654   -9.9724    3.1085 O   0  0  0  0  0  0  0  0  0  0  0  0
    5.5101   -7.6444    3.9565 C   0  0  0  0  0  0  0  0  0  0  0  0
    5.7002   -6.4001    3.2685 O   0  0  0  0  0  0  0  0  0  0  0  0
    3.7434   -8.3734    2.2308 C   0  0  0  0  0  0  0  0  0  0  0  0
    3.4131   -9.3427    1.0620 C   0  0  0  0  0  0  0  0  0  0  0  0
    2.6179   -8.5748    3.2728 C   0  0  0  0  0  0  0  0  0  0  0  0
    3.9160   -6.8808    1.8114 C   0  0  2  0  0  0  0  0  0  0  0  0
    3.2583   -6.4736    0.4965 C   0  0  0  0  0  0  0  0  0  0  0  0
    2.7449   -5.0161    0.3161 C   0  0  1  0  0  0  0  0  0  0  0  0
    1.7356   -5.0428    1.2994 O   0  0  0  0  0  0  0  0  0  0  0  0
    3.6030   -3.7037    0.5194 C   0  0  2  0  0  0  0  0  0  0  0  0
    2.6130   -2.5669    0.2536 C   0  0  0  0  0  0  0  0  0  0  0  0
    4.4049   -3.6969    1.8353 C   0  0  2  0  0  0  0  0  0  0  0  0
    4.4184   -2.3929    2.6041 C   0  0  1  0  0  0  0  0  0  0  0  0
    6.4683   -2.7422    5.4049 H   0  0  0  0  0  0  0  0  0  0  0  0
    6.1182   -3.8734    4.0719 H   0  0  0  0  0  0  0  0  0  0  0  0
    4.9196   -3.5696    5.3209 H   0  0  0  0  0  0  0  0  0  0  0  0
    4.1007   -0.1075    4.0889 H   0  0  0  0  0  0  0  0  0  0  0  0
    5.3351   -0.4111    5.3194 H   0  0  0  0  0  0  0  0  0  0  0  0
    3.7776   -1.2710    5.3848 H   0  0  0  0  0  0  0  0  0  0  0  0
    6.6820   -2.0732    2.3350 H   0  0  0  0  0  0  0  0  0  0  0  0
    5.3869    0.4426    1.9116 H   0  0  0  0  0  0  0  0  0  0  0  0
    5.2194    0.1161   -0.3807 H   0  0  0  0  0  0  0  0  0  0  0  0
    4.9204   -1.7510   -1.5371 H   0  0  0  0  0  0  0  0  0  0  0  0
    6.8887   -2.9131   -1.6739 H   0  0  0  0  0  0  0  0  0  0  0  0
    4.6581   -5.2441   -1.5408 H   0  0  0  0  0  0  0  0  0  0  0  0
    6.0058   -4.2114   -2.0251 H   0  0  0  0  0  0  0  0  0  0  0  0
    4.3546   -3.7302   -2.3430 H   0  0  0  0  0  0  0  0  0  0  0  0
    6.5382   -3.6013    1.1568 H   0  0  0  0  0  0  0  0  0  0  0  0
    6.0416   -6.0384   -0.0662 H   0  0  0  0  0  0  0  0  0  0  0  0
    7.1649   -5.6475    1.1624 H   0  0  0  0  0  0  0  0  0  0  0  0
    5.9637   -8.4767    0.7585 H   0  0  0  0  0  0  0  0  0  0  0  0
    7.1248   -8.0459    2.0152 H   0  0  0  0  0  0  0  0  0  0  0  0
    5.1894  -10.5123    2.3776 H   0  0  0  0  0  0  0  0  0  0  0  0
    4.7400   -7.5826    4.7299 H   0  0  0  0  0  0  0  0  0  0  0  0
    6.4571   -7.9159    4.4252 H   0  0  0  0  0  0  0  0  0  0  0  0
    2.3750   -9.2708    0.7285 H   0  0  0  0  0  0  0  0  0  0  0  0
    3.5209  -10.3492    1.4401 H   0  0  0  0  0  0  0  0  0  0  0  0
    4.0462   -9.2332    0.1806 H   0  0  0  0  0  0  0  0  0  0  0  0
    1.6332   -8.4461    2.8207 H   0  0  0  0  0  0  0  0  0  0  0  0
    2.6787   -7.8791    4.1055 H   0  0  0  0  0  0  0  0  0  0  0  0
    2.6520   -9.5843    3.6829 H   0  0  0  0  0  0  0  0  0  0  0  0
    3.4218   -6.3292    2.6094 H   0  0  0  0  0  0  0  0  0  0  0  0
    3.8358   -6.8114   -0.3364 H   0  0  0  0  0  0  0  0  0  0  0  0
    2.3821   -7.0852    0.5418 H   0  0  0  0  0  0  0  0  0  0  0  0
    2.2725   -4.9664   -0.6565 H   0  0  0  0  0  0  0  0  0  0  0  0
    2.1240   -5.2616    2.1157 H   0  0  0  0  0  0  0  0  0  0  0  0
    1.7879   -2.5735    0.9597 H   0  0  0  0  0  0  0  0  0  0  0  0
    2.2188   -2.6513   -0.7622 H   0  0  0  0  0  0  0  0  0  0  0  0
    3.0453   -1.5838    0.3413 H   0  0  0  0  0  0  0  0  0  0  0  0
    4.0776   -4.4531    2.5412 H   0  0  0  0  0  0  0  0  0  0  0  0
    3.4739   -1.8398    2.5180 H   0  0  0  0  0  0  0  0  0  0  0  0
  1  2  1  0
  1 30  1  0
  1 31  1  0
  1 32  1  0
  2 29  1  0
  2  3  1  0
  2  4  1  0
  3 33  1  0
  3 34  1  0
  3 35  1  0
  4 29  1  0
  4  5  1  0
  4 36  1  6
  5  6  2  3
  5 37  1  0
  6  7  1  0
  6 38  1  0
  7  8  1  0
  7  9  1  0
  7 39  1  6
  8 40  1  0
  9 26  1  0
  9 10  1  6
  9 11  1  0
 10 41  1  0
 10 42  1  0
 10 43  1  0
 11 28  1  0
 11 12  1  0
 11 44  1  1
 12 13  1  0
 12 45  1  0
 12 46  1  0
 13 18  1  1
 13 22  1  0
 13 14  1  0
 14 15  1  0
 14 47  1  0
 14 48  1  0
 15 16  1  1
 15 17  1  0
 15 19  1  0
 16 49  1  0
 17 18  1  0
 17 50  1  0
 17 51  1  0
 19 20  1  0
 19 21  1  0
 19 22  1  0
 20 52  1  0
 20 53  1  0
 20 54  1  0
 21 55  1  0
 21 56  1  0
 21 57  1  0
 22 23  1  0
 22 58  1  1
 23 24  1  0
 23 59  1  0
 23 60  1  0
 24 25  1  0
 24 26  1  0
 24 61  1  6
 25 62  1  0
 26 27  1  1
 26 28  1  0
 27 63  1  0
 27 64  1  0
 27 65  1  0
 28 29  1  0
 28 66  1  1
 29 67  1  1
M  END
>  <i_m_ct_stereo_status>  (325) 
1

>  <s_m_source_file>  (325) 
/var/tmp/pbs.5076255.sched01/tmpulc5pjk6/123bob0etdf.sdf

>  <i_m_source_file_index>  (325) 
20

>  <i_lp_mmshare_version>  (325) 
48012

>  <i_f3d_flags>  (325) 
0

>  <s_epik_input>  (325) 
W09IXVtDQEBIXTEvW0NIXT1bQ0hdXFtDQEBIXShDMihbQ0gzXSlbQ0gzXSlbQ0BIXTJbQ0BASF0zW0NAQEhdKFtDSDJdNClbQ0BAXTEoW0NIM10pW0NAQF0zKFtDSDNdKVtDQEhdKFtPSF0pW0NIMl1bQ0BIXShbQ0BdNDU2KUMoW0NIM10pKFtDSDNdKVtDQF0oW0NIMl01KShbT0hdKVtDSDJdTzY=

>  <s_epik_cmdline>  (325) 
J2VwaWtfcHl0aG9uJywgJy1waHQnLCAnMi4wJywgJy1waCcsICc3LjAnLCAnLXRuJywgJzgnLCAnLW1hJywgJzIwMCcsICctaW1hZScsICc8aW5maWxlLm1hZT4nLCAnLW9tYWUnLCAnPG91dGZpbGUubWFlPic=

>  <r_lp_tautomer_probability>  (325) 
1

>  <r_epik_Ionization_Penalty>  (325) 
1.39114e-06

>  <r_epik_Ionization_Penalty_Charging>  (325) 
0

>  <r_epik_Ionization_Penalty_Neutral>  (325) 
1.39114e-06

>  <r_epik_State_Penalty>  (325) 
-0

>  <r_epik_Charging_Adjusted_Penalty>  (325) 
0

>  <i_epik_Tot_Q>  (325) 
0

>  <i_epik_Tot_abs_Q>  (325) 
0

>  <s_lp_Force_Field>  (325) 
OPLS3e

>  <r_lp_Energy>  (325) 
106.646

>  <b_lp_Chiralities_Consistent>  (325) 
1

>  <s_lp_Variant>  (325) 
91:0-1

>  <s_i_glide_gridfile>  (325) 
pfpi4k_grid

>  <i_i_glide_lignum>  (325) 
20

>  <i_i_glide_rotatable_bonds>  (325) 
3

>  <r_i_docking_score>  (325) 
-3.05893

>  <r_i_glide_ligand_efficiency>  (325) 
-0.10548

>  <r_i_glide_ligand_efficiency_sa>  (325) 
-0.324069

>  <r_i_glide_ligand_efficiency_ln>  (325) 
-0.700417

>  <r_i_glide_gscore>  (325) 
-3.05893

>  <r_i_glide_lipo>  (325) 
-0.800385

>  <r_i_glide_hbond>  (325) 
-0.226394

>  <r_i_glide_metal>  (325) 
-0

>  <r_i_glide_rewards>  (325) 
-0.664317

>  <r_i_glide_evdw>  (325) 
-8.35783

>  <r_i_glide_ecoul>  (325) 
-6.33295

>  <r_i_glide_erotb>  (325) 
0

>  <r_i_glide_esite>  (325) 
0

>  <r_i_glide_emodel>  (325) 
-17.9382

>  <r_i_glide_energy>  (325) 
-14.6908

>  <r_i_glide_einternal>  (325) 
1.02084

>  <r_i_glide_intrahb_reward>  (325) 
-0

>  <i_i_glide_confnum>  (325) 
1

>  <i_i_glide_posenum>  (325) 
1

>  <r_i_glide_eff_state_penalty>  (325) 
0

>  <ligand_id>  (325) 
91

>  <original_smiles>  (325) 
CC1(C)C2C=CC(O)C3(C)C4CC56CC(O)(CO5)C(C)(C)C6CC(O)C3(C)C4C21

>  <smiles>  (325) 
[H]OC1([H])C([H])=C([H])C2([H])C([H])(C3([H])C4([H])C([H])([H])C56OC([H])([H])C(O[H])(C5([H])[H])C(C([H])([H])[H])(C([H])([H])[H])C6([H])C([H])([H])C([H])(O[H])C3(C([H])([H])[H])C14C([H])([H])[H])C2(C([H])([H])[H])C([H])([H])[H]

$$$$
91:1:0
     RDKit          3D

 67 72  0  0  1  0  0  0  0  0999 V2000
    0.9750   -1.8987    3.9426 C   0  0  0  0  0  0  0  0  0  0  0  0
    1.7871   -1.4412    2.7425 C   0  0  0  0  0  0  0  0  0  0  0  0
    1.1823   -0.2072    2.1024 C   0  0  0  0  0  0  0  0  0  0  0  0
    3.3127   -1.5569    2.7559 C   0  0  1  0  0  0  0  0  0  0  0  0
    4.4521   -1.4625    1.8119 C   0  0  0  0  0  0  0  0  0  0  0  0
    5.4171   -2.3483    2.1170 C   0  0  0  0  0  0  0  0  0  0  0  0
    5.6605   -3.6290    1.3331 C   0  0  1  0  0  0  0  0  0  0  0  0
    6.9910   -4.0205    1.6220 O   0  0  0  0  0  0  0  0  0  0  0  0
    4.5943   -4.8023    1.6296 C   0  0  1  0  0  0  0  0  0  0  0  0
    5.3946   -6.1138    1.4246 C   0  0  0  0  0  0  0  0  0  0  0  0
    3.7200   -4.6501    2.9217 C   0  0  2  0  0  0  0  0  0  0  0  0
    3.4908   -5.8481    3.8571 C   0  0  0  0  0  0  0  0  0  0  0  0
    2.0580   -6.3763    4.0571 C   0  0  1  0  0  0  0  0  0  0  0  0
    2.0334   -7.5222    5.0631 C   0  0  0  0  0  0  0  0  0  0  0  0
    0.5357   -7.6663    4.9562 C   0  0  1  0  0  0  0  0  0  0  0  0
   -0.0156   -8.6091    5.8559 O   0  0  0  0  0  0  0  0  0  0  0  0
    0.1537   -6.2170    5.3303 C   0  0  0  0  0  0  0  0  0  0  0  0
    1.1973   -5.4513    4.7193 O   0  0  0  0  0  0  0  0  0  0  0  0
    0.3142   -7.9765    3.4460 C   0  0  0  0  0  0  0  0  0  0  0  0
    0.7231   -9.4368    3.1037 C   0  0  0  0  0  0  0  0  0  0  0  0
   -1.1592   -7.8057    3.0092 C   0  0  0  0  0  0  0  0  0  0  0  0
    1.2482   -6.8819    2.8228 C   0  0  2  0  0  0  0  0  0  0  0  0
    2.1078   -7.2571    1.5929 C   0  0  0  0  0  0  0  0  0  0  0  0
    2.4505   -6.1363    0.5461 C   0  0  1  0  0  0  0  0  0  0  0  0
    1.2049   -5.8557   -0.0778 O   0  0  0  0  0  0  0  0  0  0  0  0
    3.1940   -4.7824    0.8787 C   0  0  2  0  0  0  0  0  0  0  0  0
    3.2814   -4.0651   -0.4963 C   0  0  0  0  0  0  0  0  0  0  0  0
    2.5917   -3.9997    2.0775 C   0  0  2  0  0  0  0  0  0  0  0  0
    2.4252   -2.4859    1.9092 C   0  0  1  0  0  0  0  0  0  0  0  0
    0.8964   -1.1043    4.6850 H   0  0  0  0  0  0  0  0  0  0  0  0
    1.4580   -2.7581    4.4091 H   0  0  0  0  0  0  0  0  0  0  0  0
   -0.0277   -2.2069    3.6410 H   0  0  0  0  0  0  0  0  0  0  0  0
    1.7941    0.1149    1.2616 H   0  0  0  0  0  0  0  0  0  0  0  0
    1.1263    0.6092    2.8225 H   0  0  0  0  0  0  0  0  0  0  0  0
    0.1863   -0.4162    1.7230 H   0  0  0  0  0  0  0  0  0  0  0  0
    3.6486   -1.8147    3.7585 H   0  0  0  0  0  0  0  0  0  0  0  0
    4.1730   -1.3239    0.7769 H   0  0  0  0  0  0  0  0  0  0  0  0
    5.6152   -2.5150    3.1643 H   0  0  0  0  0  0  0  0  0  0  0  0
    5.6951   -3.3850    0.2728 H   0  0  0  0  0  0  0  0  0  0  0  0
    7.1839   -4.8146    1.1490 H   0  0  0  0  0  0  0  0  0  0  0  0
    4.7790   -7.0018    1.4120 H   0  0  0  0  0  0  0  0  0  0  0  0
    6.1206   -6.2772    2.2246 H   0  0  0  0  0  0  0  0  0  0  0  0
    5.9236   -6.1167    0.4682 H   0  0  0  0  0  0  0  0  0  0  0  0
    4.1371   -3.9000    3.5733 H   0  0  0  0  0  0  0  0  0  0  0  0
    4.1184   -6.6931    3.5804 H   0  0  0  0  0  0  0  0  0  0  0  0
    3.8663   -5.5780    4.8472 H   0  0  0  0  0  0  0  0  0  0  0  0
    2.6175   -8.3896    4.7592 H   0  0  0  0  0  0  0  0  0  0  0  0
    2.3699   -7.2191    6.0561 H   0  0  0  0  0  0  0  0  0  0  0  0
    0.1760   -9.4829    5.5476 H   0  0  0  0  0  0  0  0  0  0  0  0
   -0.8349   -5.9066    4.9934 H   0  0  0  0  0  0  0  0  0  0  0  0
    0.1922   -6.0637    6.4107 H   0  0  0  0  0  0  0  0  0  0  0  0
    0.4682   -9.6924    2.0771 H   0  0  0  0  0  0  0  0  0  0  0  0
    0.1903  -10.1542    3.7289 H   0  0  0  0  0  0  0  0  0  0  0  0
    1.7881   -9.6319    3.2184 H   0  0  0  0  0  0  0  0  0  0  0  0
   -1.2835   -8.0655    1.9579 H   0  0  0  0  0  0  0  0  0  0  0  0
   -1.5281   -6.7906    3.1317 H   0  0  0  0  0  0  0  0  0  0  0  0
   -1.8123   -8.4607    3.5867 H   0  0  0  0  0  0  0  0  0  0  0  0
    0.5707   -6.1009    2.4882 H   0  0  0  0  0  0  0  0  0  0  0  0
    2.9796   -7.8121    1.9205 H   0  0  0  0  0  0  0  0  0  0  0  0
    1.5459   -7.9978    1.0221 H   0  0  0  0  0  0  0  0  0  0  0  0
    3.0849   -6.6164   -0.1947 H   0  0  0  0  0  0  0  0  0  0  0  0
    1.4171   -5.4296   -0.9007 H   0  0  0  0  0  0  0  0  0  0  0  0
    2.3131   -3.8619   -0.9555 H   0  0  0  0  0  0  0  0  0  0  0  0
    3.8870   -4.6377   -1.1987 H   0  0  0  0  0  0  0  0  0  0  0  0
    3.7500   -3.0876   -0.4385 H   0  0  0  0  0  0  0  0  0  0  0  0
    1.6255   -4.3930    2.3496 H   0  0  0  0  0  0  0  0  0  0  0  0
    2.2030   -2.2346    0.8755 H   0  0  0  0  0  0  0  0  0  0  0  0
  1  2  1  0
  1 30  1  0
  1 31  1  0
  1 32  1  0
  2 29  1  0
  2  3  1  0
  2  4  1  0
  3 33  1  0
  3 34  1  0
  3 35  1  0
  4 29  1  0
  4  5  1  0
  4 36  1  1
  5  6  2  3
  5 37  1  0
  6  7  1  0
  6 38  1  0
  7  8  1  0
  7  9  1  0
  7 39  1  6
  8 40  1  0
  9 26  1  0
  9 10  1  1
  9 11  1  0
 10 41  1  0
 10 42  1  0
 10 43  1  0
 11 28  1  0
 11 12  1  0
 11 44  1  1
 12 13  1  0
 12 45  1  0
 12 46  1  0
 13 18  1  1
 13 22  1  0
 13 14  1  0
 14 15  1  0
 14 47  1  0
 14 48  1  0
 15 16  1  1
 15 17  1  0
 15 19  1  0
 16 49  1  0
 17 18  1  0
 17 50  1  0
 17 51  1  0
 19 20  1  0
 19 21  1  0
 19 22  1  0
 20 52  1  0
 20 53  1  0
 20 54  1  0
 21 55  1  0
 21 56  1  0
 21 57  1  0
 22 23  1  0
 22 58  1  6
 23 24  1  0
 23 59  1  0
 23 60  1  0
 24 25  1  0
 24 26  1  0
 24 61  1  6
 25 62  1  0
 26 27  1  6
 26 28  1  0
 27 63  1  0
 27 64  1  0
 27 65  1  0
 28 29  1  0
 28 66  1  1
 29 67  1  6
M  END
>  <i_m_ct_stereo_status>  (326) 
1

>  <s_m_source_file>  (326) 
/var/tmp/pbs.5076255.sched01/tmpulc5pjk6/123bob0etdf.sdf

>  <i_m_source_file_index>  (326) 
21

>  <i_lp_mmshare_version>  (326) 
48012

>  <i_f3d_flags>  (326) 
0

>  <s_epik_input>  (326) 
W09IXVtDQEBIXTEvW0NIXT1bQ0hdXFtDQEBIXShDMihbQ0gzXSlbQ0gzXSlbQ0BIXTJbQ0BASF0zW0NAQEhdKFtDSDJdNClbQ0BAXTEoW0NIM10pW0NAQF0zKFtDSDNdKVtDQEhdKFtPSF0pW0NIMl1bQ0BIXShbQ0BdNDU2KUMoW0NIM10pKFtDSDNdKVtDQF0oW0NIMl01KShbT0hdKVtDSDJdTzY=

>  <s_epik_cmdline>  (326) 
J2VwaWtfcHl0aG9uJywgJy1waHQnLCAnMi4wJywgJy1waCcsICc3LjAnLCAnLXRuJywgJzgnLCAnLW1hJywgJzIwMCcsICctaW1hZScsICc8aW5maWxlLm1hZT4nLCAnLW9tYWUnLCAnPG91dGZpbGUubWFlPic=

>  <r_lp_tautomer_probability>  (326) 
1

>  <r_epik_Ionization_Penalty>  (326) 
1.39114e-06

>  <r_epik_Ionization_Penalty_Charging>  (326) 
0

>  <r_epik_Ionization_Penalty_Neutral>  (326) 
1.39114e-06

>  <r_epik_State_Penalty>  (326) 
-0

>  <r_epik_Charging_Adjusted_Penalty>  (326) 
0

>  <i_epik_Tot_Q>  (326) 
0

>  <i_epik_Tot_abs_Q>  (326) 
0

>  <s_lp_Force_Field>  (326) 
OPLS3e

>  <r_lp_Energy>  (326) 
139.615

>  <b_lp_Chiralities_Consistent>  (326) 
1

>  <s_lp_Variant>  (326) 
91:0-2

>  <s_i_glide_gridfile>  (326) 
pfpi4k_grid

>  <i_i_glide_lignum>  (326) 
21

>  <i_i_glide_rotatable_bonds>  (326) 
3

>  <r_i_docking_score>  (326) 
-3.17617

>  <r_i_glide_ligand_efficiency>  (326) 
-0.109523

>  <r_i_glide_ligand_efficiency_sa>  (326) 
-0.33649

>  <r_i_glide_ligand_efficiency_ln>  (326) 
-0.727263

>  <r_i_glide_gscore>  (326) 
-3.17617

>  <r_i_glide_lipo>  (326) 
-0.252518

>  <r_i_glide_hbond>  (326) 
-0.449811

>  <r_i_glide_metal>  (326) 
-0

>  <r_i_glide_rewards>  (326) 
-0.664317

>  <r_i_glide_evdw>  (326) 
-18.4676

>  <r_i_glide_ecoul>  (326) 
-5.90764

>  <r_i_glide_erotb>  (326) 
0

>  <r_i_glide_esite>  (326) 
0

>  <r_i_glide_emodel>  (326) 
-29.3349

>  <r_i_glide_energy>  (326) 
-24.3752

>  <r_i_glide_einternal>  (326) 
1.1055

>  <r_i_glide_intrahb_reward>  (326) 
-0

>  <i_i_glide_confnum>  (326) 
1

>  <i_i_glide_posenum>  (326) 
10

>  <r_i_glide_eff_state_penalty>  (326) 
0

>  <ligand_id>  (326) 
91

>  <original_smiles>  (326) 
CC1(C)C2C=CC(O)C3(C)C4CC56CC(O)(CO5)C(C)(C)C6CC(O)C3(C)C4C21

>  <smiles>  (326) 
[H]OC1([H])C([H])=C([H])C2([H])C([H])(C3([H])C4([H])C([H])([H])C56OC([H])([H])C(O[H])(C5([H])[H])C(C([H])([H])[H])(C([H])([H])[H])C6([H])C([H])([H])C([H])(O[H])C3(C([H])([H])[H])C14C([H])([H])[H])C2(C([H])([H])[H])C([H])([H])[H]

$$$$
91:1:1
     RDKit          3D

 67 72  0  0  1  0  0  0  0  0999 V2000
    0.9437   -1.8772    3.9673 C   0  0  0  0  0  0  0  0  0  0  0  0
    1.7550   -1.4224    2.7730 C   0  0  0  0  0  0  0  0  0  0  0  0
    1.1482   -0.2008    2.1305 C   0  0  0  0  0  0  0  0  0  0  0  0
    3.2837   -1.5494    2.7705 C   0  0  1  0  0  0  0  0  0  0  0  0
    4.4243   -1.4492    1.8488 C   0  0  0  0  0  0  0  0  0  0  0  0
    5.3897   -2.3347    2.1483 C   0  0  0  0  0  0  0  0  0  0  0  0
    5.6283   -3.6200    1.3571 C   0  0  1  0  0  0  0  0  0  0  0  0
    6.9567   -4.0190    1.5953 O   0  0  0  0  0  0  0  0  0  0  0  0
    4.5633   -4.7831    1.6727 C   0  0  1  0  0  0  0  0  0  0  0  0
    5.3688   -6.0937    1.4714 C   0  0  0  0  0  0  0  0  0  0  0  0
    3.6776   -4.6533    2.9618 C   0  0  2  0  0  0  0  0  0  0  0  0
    3.4663   -5.8261    3.9039 C   0  0  0  0  0  0  0  0  0  0  0  0
    2.0318   -6.3558    4.1077 C   0  0  1  0  0  0  0  0  0  0  0  0
    2.0089   -7.5028    5.1186 C   0  0  0  0  0  0  0  0  0  0  0  0
    0.5124   -7.6440    5.0097 C   0  0  1  0  0  0  0  0  0  0  0  0
   -0.0408   -8.5920    5.9108 O   0  0  0  0  0  0  0  0  0  0  0  0
    0.1300   -6.1995    5.3775 C   0  0  0  0  0  0  0  0  0  0  0  0
    1.1666   -5.4314    4.7640 O   0  0  0  0  0  0  0  0  0  0  0  0
    0.2887   -7.9623    3.5046 C   0  0  0  0  0  0  0  0  0  0  0  0
    0.6991   -9.4230    3.1655 C   0  0  0  0  0  0  0  0  0  0  0  0
   -1.1831   -7.7950    3.0668 C   0  0  0  0  0  0  0  0  0  0  0  0
    1.2203   -6.8688    2.8763 C   0  0  2  0  0  0  0  0  0  0  0  0
    2.0809   -7.2513    1.6501 C   0  0  0  0  0  0  0  0  0  0  0  0
    2.4257   -6.1336    0.5944 C   0  0  1  0  0  0  0  0  0  0  0  0
    1.1807   -5.8657   -0.0367 O   0  0  0  0  0  0  0  0  0  0  0  0
    3.1575   -4.7817    0.9254 C   0  0  2  0  0  0  0  0  0  0  0  0
    3.2435   -4.0748   -0.4545 C   0  0  0  0  0  0  0  0  0  0  0  0
    2.5677   -3.9716    2.1122 C   0  0  2  0  0  0  0  0  0  0  0  0
    2.3983   -2.4863    1.9501 C   0  0  1  0  0  0  0  0  0  0  0  0
    0.8610   -1.0831    4.7089 H   0  0  0  0  0  0  0  0  0  0  0  0
    1.4263   -2.7378    4.4411 H   0  0  0  0  0  0  0  0  0  0  0  0
   -0.0582   -2.1898    3.6644 H   0  0  0  0  0  0  0  0  0  0  0  0
    1.7597    0.1217    1.2829 H   0  0  0  0  0  0  0  0  0  0  0  0
    1.0925    0.6225    2.8449 H   0  0  0  0  0  0  0  0  0  0  0  0
    0.1518   -0.4054    1.7516 H   0  0  0  0  0  0  0  0  0  0  0  0
    3.6195   -1.7990    3.7893 H   0  0  0  0  0  0  0  0  0  0  0  0
    4.1456   -1.3164    0.8073 H   0  0  0  0  0  0  0  0  0  0  0  0
    5.5840   -2.5015    3.1981 H   0  0  0  0  0  0  0  0  0  0  0  0
    5.6411   -3.3688    0.3002 H   0  0  0  0  0  0  0  0  0  0  0  0
    7.5291   -3.3123    1.3985 H   0  0  0  0  0  0  0  0  0  0  0  0
    4.7549   -6.9934    1.4629 H   0  0  0  0  0  0  0  0  0  0  0  0
    6.0984   -6.2528    2.2694 H   0  0  0  0  0  0  0  0  0  0  0  0
    5.9003   -6.1009    0.5178 H   0  0  0  0  0  0  0  0  0  0  0  0
    4.1078   -3.8806    3.6104 H   0  0  0  0  0  0  0  0  0  0  0  0
    4.0902   -6.6749    3.6322 H   0  0  0  0  0  0  0  0  0  0  0  0
    3.8384   -5.5530    4.8924 H   0  0  0  0  0  0  0  0  0  0  0  0
    2.5942   -8.3669    4.8173 H   0  0  0  0  0  0  0  0  0  0  0  0
    2.3445   -7.1924    6.1090 H   0  0  0  0  0  0  0  0  0  0  0  0
    0.1547   -9.4578    5.6149 H   0  0  0  0  0  0  0  0  0  0  0  0
   -0.8630   -5.8881    5.0446 H   0  0  0  0  0  0  0  0  0  0  0  0
    0.1666   -6.0371    6.4597 H   0  0  0  0  0  0  0  0  0  0  0  0
    0.4450   -9.6833    2.1364 H   0  0  0  0  0  0  0  0  0  0  0  0
    0.1666  -10.1389    3.7953 H   0  0  0  0  0  0  0  0  0  0  0  0
    1.7642   -9.6174    3.2837 H   0  0  0  0  0  0  0  0  0  0  0  0
   -1.3092   -8.0597    2.0170 H   0  0  0  0  0  0  0  0  0  0  0  0
   -1.5548   -6.7805    3.1867 H   0  0  0  0  0  0  0  0  0  0  0  0
   -1.8361   -8.4501    3.6484 H   0  0  0  0  0  0  0  0  0  0  0  0
    0.5437   -6.0916    2.5377 H   0  0  0  0  0  0  0  0  0  0  0  0
    2.9555   -7.8023    1.9790 H   0  0  0  0  0  0  0  0  0  0  0  0
    1.5213   -7.9922    1.0807 H   0  0  0  0  0  0  0  0  0  0  0  0
    3.0641   -6.6227   -0.1325 H   0  0  0  0  0  0  0  0  0  0  0  0
    1.3971   -5.4319   -0.8466 H   0  0  0  0  0  0  0  0  0  0  0  0
    2.2781   -3.8689   -0.9159 H   0  0  0  0  0  0  0  0  0  0  0  0
    3.8525   -4.6464   -1.1528 H   0  0  0  0  0  0  0  0  0  0  0  0
    3.7131   -3.0882   -0.4044 H   0  0  0  0  0  0  0  0  0  0  0  0
    1.5947   -4.3835    2.3936 H   0  0  0  0  0  0  0  0  0  0  0  0
    2.1704   -2.2284    0.9076 H   0  0  0  0  0  0  0  0  0  0  0  0
  1  2  1  0
  1 30  1  0
  1 31  1  0
  1 32  1  0
  2 29  1  0
  2  3  1  0
  2  4  1  0
  3 33  1  0
  3 34  1  0
  3 35  1  0
  4 29  1  0
  4  5  1  0
  4 36  1  1
  5  6  2  3
  5 37  1  0
  6  7  1  0
  6 38  1  0
  7  8  1  0
  7  9  1  0
  7 39  1  6
  8 40  1  0
  9 26  1  0
  9 10  1  1
  9 11  1  0
 10 41  1  0
 10 42  1  0
 10 43  1  0
 11 28  1  0
 11 12  1  0
 11 44  1  1
 12 13  1  0
 12 45  1  0
 12 46  1  0
 13 18  1  1
 13 22  1  0
 13 14  1  0
 14 15  1  0
 14 47  1  0
 14 48  1  0
 15 16  1  1
 15 17  1  0
 15 19  1  0
 16 49  1  0
 17 18  1  0
 17 50  1  0
 17 51  1  0
 19 20  1  0
 19 21  1  0
 19 22  1  0
 20 52  1  0
 20 53  1  0
 20 54  1  0
 21 55  1  0
 21 56  1  0
 21 57  1  0
 22 23  1  0
 22 58  1  6
 23 24  1  0
 23 59  1  0
 23 60  1  0
 24 25  1  0
 24 26  1  0
 24 61  1  6
 25 62  1  0
 26 27  1  6
 26 28  1  0
 27 63  1  0
 27 64  1  0
 27 65  1  0
 28 29  1  0
 28 66  1  1
 29 67  1  6
M  END
>  <i_m_ct_stereo_status>  (327) 
1

>  <s_m_source_file>  (327) 
/var/tmp/pbs.5076255.sched01/tmpulc5pjk6/123bob0etdf.sdf

>  <i_m_source_file_index>  (327) 
21

>  <i_lp_mmshare_version>  (327) 
48012

>  <i_f3d_flags>  (327) 
0

>  <s_epik_input>  (327) 
W09IXVtDQEBIXTEvW0NIXT1bQ0hdXFtDQEBIXShDMihbQ0gzXSlbQ0gzXSlbQ0BIXTJbQ0BASF0zW0NAQEhdKFtDSDJdNClbQ0BAXTEoW0NIM10pW0NAQF0zKFtDSDNdKVtDQEhdKFtPSF0pW0NIMl1bQ0BIXShbQ0BdNDU2KUMoW0NIM10pKFtDSDNdKVtDQF0oW0NIMl01KShbT0hdKVtDSDJdTzY=

>  <s_epik_cmdline>  (327) 
J2VwaWtfcHl0aG9uJywgJy1waHQnLCAnMi4wJywgJy1waCcsICc3LjAnLCAnLXRuJywgJzgnLCAnLW1hJywgJzIwMCcsICctaW1hZScsICc8aW5maWxlLm1hZT4nLCAnLW9tYWUnLCAnPG91dGZpbGUubWFlPic=

>  <r_lp_tautomer_probability>  (327) 
1

>  <r_epik_Ionization_Penalty>  (327) 
1.39114e-06

>  <r_epik_Ionization_Penalty_Charging>  (327) 
0

>  <r_epik_Ionization_Penalty_Neutral>  (327) 
1.39114e-06

>  <r_epik_State_Penalty>  (327) 
-0

>  <r_epik_Charging_Adjusted_Penalty>  (327) 
0

>  <i_epik_Tot_Q>  (327) 
0

>  <i_epik_Tot_abs_Q>  (327) 
0

>  <s_lp_Force_Field>  (327) 
OPLS3e

>  <r_lp_Energy>  (327) 
139.615

>  <b_lp_Chiralities_Consistent>  (327) 
1

>  <s_lp_Variant>  (327) 
91:0-2

>  <s_i_glide_gridfile>  (327) 
pfpi4k_grid

>  <i_i_glide_lignum>  (327) 
21

>  <i_i_glide_rotatable_bonds>  (327) 
3

>  <r_i_docking_score>  (327) 
-3.11887

>  <r_i_glide_ligand_efficiency>  (327) 
-0.107547

>  <r_i_glide_ligand_efficiency_sa>  (327) 
-0.330419

>  <r_i_glide_ligand_efficiency_ln>  (327) 
-0.714142

>  <r_i_glide_gscore>  (327) 
-3.11887

>  <r_i_glide_lipo>  (327) 
-0.242431

>  <r_i_glide_hbond>  (327) 
-0.415672

>  <r_i_glide_metal>  (327) 
-0

>  <r_i_glide_rewards>  (327) 
-0.664317

>  <r_i_glide_evdw>  (327) 
-18.767

>  <r_i_glide_ecoul>  (327) 
-5.72066

>  <r_i_glide_erotb>  (327) 
0

>  <r_i_glide_esite>  (327) 
0

>  <r_i_glide_emodel>  (327) 
-29.3388

>  <r_i_glide_energy>  (327) 
-24.4877

>  <r_i_glide_einternal>  (327) 
0.974408

>  <r_i_glide_intrahb_reward>  (327) 
-0

>  <i_i_glide_confnum>  (327) 
1

>  <i_i_glide_posenum>  (327) 
28

>  <r_i_glide_eff_state_penalty>  (327) 
0

>  <ligand_id>  (327) 
91

>  <original_smiles>  (327) 
CC1(C)C2C=CC(O)C3(C)C4CC56CC(O)(CO5)C(C)(C)C6CC(O)C3(C)C4C21

>  <smiles>  (327) 
[H]OC1([H])C([H])=C([H])C2([H])C([H])(C3([H])C4([H])C([H])([H])C56OC([H])([H])C(O[H])(C5([H])[H])C(C([H])([H])[H])(C([H])([H])[H])C6([H])C([H])([H])C([H])(O[H])C3(C([H])([H])[H])C14C([H])([H])[H])C2(C([H])([H])[H])C([H])([H])[H]

$$$$
91:1:2
     RDKit          3D

 67 72  0  0  1  0  0  0  0  0999 V2000
    1.5518   -1.2729    3.7652 C   0  0  0  0  0  0  0  0  0  0  0  0
    2.1952   -0.8831    2.4466 C   0  0  0  0  0  0  0  0  0  0  0  0
    1.4602    0.2809    1.8099 C   0  0  0  0  0  0  0  0  0  0  0  0
    3.7111   -0.9560    2.2746 C   0  0  1  0  0  0  0  0  0  0  0  0
    4.7285   -0.8915    1.1982 C   0  0  0  0  0  0  0  0  0  0  0  0
    5.7563   -1.7234    1.4398 C   0  0  0  0  0  0  0  0  0  0  0  0
    5.9507   -3.0547    0.7262 C   0  0  1  0  0  0  0  0  0  0  0  0
    7.3233   -3.3770    0.8697 O   0  0  0  0  0  0  0  0  0  0  0  0
    4.9644   -4.2317    1.2250 C   0  0  1  0  0  0  0  0  0  0  0  0
    5.7791   -5.5332    1.0148 C   0  0  0  0  0  0  0  0  0  0  0  0
    4.2457   -4.0135    2.6039 C   0  0  2  0  0  0  0  0  0  0  0  0
    4.1783   -5.1462    3.6386 C   0  0  0  0  0  0  0  0  0  0  0  0
    2.8002   -5.6939    4.0491 C   0  0  1  0  0  0  0  0  0  0  0  0
    2.9392   -6.7630    5.1282 C   0  0  0  0  0  0  0  0  0  0  0  0
    1.4474   -6.9551    5.2187 C   0  0  1  0  0  0  0  0  0  0  0  0
    1.0501   -7.8493    6.2416 O   0  0  0  0  0  0  0  0  0  0  0  0
    1.0613   -5.4943    5.5374 C   0  0  0  0  0  0  0  0  0  0  0  0
    1.9972   -4.7473    4.7543 O   0  0  0  0  0  0  0  0  0  0  0  0
    1.0562   -7.3811    3.7708 C   0  0  0  0  0  0  0  0  0  0  0  0
    1.4698   -8.8519    3.4808 C   0  0  0  0  0  0  0  0  0  0  0  0
   -0.4661   -7.2838    3.5131 C   0  0  0  0  0  0  0  0  0  0  0  0
    1.8658   -6.3108    2.9604 C   0  0  2  0  0  0  0  0  0  0  0  0
    2.5777   -6.7571    1.6613 C   0  0  0  0  0  0  0  0  0  0  0  0
    2.7530   -5.7170    0.4912 C   0  0  1  0  0  0  0  0  0  0  0  0
    1.4360   -5.5124    0.0039 O   0  0  0  0  0  0  0  0  0  0  0  0
    3.4847   -4.3153    0.6443 C   0  0  2  0  0  0  0  0  0  0  0  0
    3.3754   -3.6861   -0.7725 C   0  0  0  0  0  0  0  0  0  0  0  0
    3.0035   -3.4599    1.8545 C   0  0  2  0  0  0  0  0  0  0  0  0
    2.7629   -1.9685    1.6143 C   0  0  1  0  0  0  0  0  0  0  0  0
    1.5329   -0.4291    4.4556 H   0  0  0  0  0  0  0  0  0  0  0  0
    2.1161   -2.0829    4.2300 H   0  0  0  0  0  0  0  0  0  0  0  0
    0.5305   -1.6264    3.6053 H   0  0  0  0  0  0  0  0  0  0  0  0
    1.9495    0.5582    0.8784 H   0  0  0  0  0  0  0  0  0  0  0  0
    1.4690    1.1509    2.4677 H   0  0  0  0  0  0  0  0  0  0  0  0
    0.4255    0.0182    1.5833 H   0  0  0  0  0  0  0  0  0  0  0  0
    4.1748   -1.1229    3.2472 H   0  0  0  0  0  0  0  0  0  0  0  0
    4.3235   -0.8411    0.1974 H   0  0  0  0  0  0  0  0  0  0  0  0
    6.0829   -1.8020    2.4673 H   0  0  0  0  0  0  0  0  0  0  0  0
    5.8468   -2.8855   -0.3453 H   0  0  0  0  0  0  0  0  0  0  0  0
    7.4754   -3.6234    1.7702 H   0  0  0  0  0  0  0  0  0  0  0  0
    5.2001   -6.4385    1.1329 H   0  0  0  0  0  0  0  0  0  0  0  0
    6.6051   -5.6239    1.7248 H   0  0  0  0  0  0  0  0  0  0  0  0
    6.1928   -5.5868    0.0056 H   0  0  0  0  0  0  0  0  0  0  0  0
    4.7117   -3.2037    3.1457 H   0  0  0  0  0  0  0  0  0  0  0  0
    4.7982   -5.9904    3.3432 H   0  0  0  0  0  0  0  0  0  0  0  0
    4.6618   -4.7943    4.5532 H   0  0  0  0  0  0  0  0  0  0  0  0
    3.5107   -7.6345    4.8142 H   0  0  0  0  0  0  0  0  0  0  0  0
    3.3840   -6.3817    6.0483 H   0  0  0  0  0  0  0  0  0  0  0  0
    1.3972   -8.7078    6.0452 H   0  0  0  0  0  0  0  0  0  0  0  0
    0.0297   -5.2347    5.3033 H   0  0  0  0  0  0  0  0  0  0  0  0
    1.2242   -5.2633    6.5916 H   0  0  0  0  0  0  0  0  0  0  0  0
    1.0997   -9.1886    2.5118 H   0  0  0  0  0  0  0  0  0  0  0  0
    1.0454   -9.5361    4.2169 H   0  0  0  0  0  0  0  0  0  0  0  0
    2.5472   -9.0095    3.4759 H   0  0  0  0  0  0  0  0  0  0  0  0
   -0.7116   -7.6186    2.5048 H   0  0  0  0  0  0  0  0  0  0  0  0
   -0.8490   -6.2716    3.6172 H   0  0  0  0  0  0  0  0  0  0  0  0
   -1.0220   -7.9137    4.2094 H   0  0  0  0  0  0  0  0  0  0  0  0
    1.1220   -5.5755    2.6619 H   0  0  0  0  0  0  0  0  0  0  0  0
    3.5041   -7.2599    1.9186 H   0  0  0  0  0  0  0  0  0  0  0  0
    1.9800   -7.5543    1.2225 H   0  0  0  0  0  0  0  0  0  0  0  0
    3.2592   -6.2572   -0.3090 H   0  0  0  0  0  0  0  0  0  0  0  0
    1.5299   -5.1290   -0.8584 H   0  0  0  0  0  0  0  0  0  0  0  0
    2.3493   -3.5396   -1.1110 H   0  0  0  0  0  0  0  0  0  0  0  0
    3.9001   -4.2797   -1.5202 H   0  0  0  0  0  0  0  0  0  0  0  0
    3.8134   -2.6957   -0.8357 H   0  0  0  0  0  0  0  0  0  0  0  0
    2.0916   -3.8535    2.2682 H   0  0  0  0  0  0  0  0  0  0  0  0
    2.4081   -1.7987    0.6010 H   0  0  0  0  0  0  0  0  0  0  0  0
  1  2  1  0
  1 30  1  0
  1 31  1  0
  1 32  1  0
  2 29  1  0
  2  3  1  0
  2  4  1  0
  3 33  1  0
  3 34  1  0
  3 35  1  0
  4 29  1  0
  4  5  1  0
  4 36  1  1
  5  6  2  3
  5 37  1  0
  6  7  1  0
  6 38  1  0
  7  8  1  0
  7  9  1  0
  7 39  1  6
  8 40  1  0
  9 26  1  0
  9 10  1  1
  9 11  1  0
 10 41  1  0
 10 42  1  0
 10 43  1  0
 11 28  1  0
 11 12  1  0
 11 44  1  1
 12 13  1  0
 12 45  1  0
 12 46  1  0
 13 18  1  1
 13 22  1  0
 13 14  1  0
 14 15  1  0
 14 47  1  0
 14 48  1  0
 15 16  1  1
 15 17  1  0
 15 19  1  0
 16 49  1  0
 17 18  1  0
 17 50  1  0
 17 51  1  0
 19 20  1  0
 19 21  1  0
 19 22  1  0
 20 52  1  0
 20 53  1  0
 20 54  1  0
 21 55  1  0
 21 56  1  0
 21 57  1  0
 22 23  1  0
 22 58  1  6
 23 24  1  0
 23 59  1  0
 23 60  1  0
 24 25  1  0
 24 26  1  0
 24 61  1  6
 25 62  1  0
 26 27  1  6
 26 28  1  0
 27 63  1  0
 27 64  1  0
 27 65  1  0
 28 29  1  0
 28 66  1  1
 29 67  1  6
M  END
>  <i_m_ct_stereo_status>  (328) 
1

>  <s_m_source_file>  (328) 
/var/tmp/pbs.5076255.sched01/tmpulc5pjk6/123bob0etdf.sdf

>  <i_m_source_file_index>  (328) 
21

>  <i_lp_mmshare_version>  (328) 
48012

>  <i_f3d_flags>  (328) 
0

>  <s_epik_input>  (328) 
W09IXVtDQEBIXTEvW0NIXT1bQ0hdXFtDQEBIXShDMihbQ0gzXSlbQ0gzXSlbQ0BIXTJbQ0BASF0zW0NAQEhdKFtDSDJdNClbQ0BAXTEoW0NIM10pW0NAQF0zKFtDSDNdKVtDQEhdKFtPSF0pW0NIMl1bQ0BIXShbQ0BdNDU2KUMoW0NIM10pKFtDSDNdKVtDQF0oW0NIMl01KShbT0hdKVtDSDJdTzY=

>  <s_epik_cmdline>  (328) 
J2VwaWtfcHl0aG9uJywgJy1waHQnLCAnMi4wJywgJy1waCcsICc3LjAnLCAnLXRuJywgJzgnLCAnLW1hJywgJzIwMCcsICctaW1hZScsICc8aW5maWxlLm1hZT4nLCAnLW9tYWUnLCAnPG91dGZpbGUubWFlPic=

>  <r_lp_tautomer_probability>  (328) 
1

>  <r_epik_Ionization_Penalty>  (328) 
1.39114e-06

>  <r_epik_Ionization_Penalty_Charging>  (328) 
0

>  <r_epik_Ionization_Penalty_Neutral>  (328) 
1.39114e-06

>  <r_epik_State_Penalty>  (328) 
-0

>  <r_epik_Charging_Adjusted_Penalty>  (328) 
0

>  <i_epik_Tot_Q>  (328) 
0

>  <i_epik_Tot_abs_Q>  (328) 
0

>  <s_lp_Force_Field>  (328) 
OPLS3e

>  <r_lp_Energy>  (328) 
139.615

>  <b_lp_Chiralities_Consistent>  (328) 
1

>  <s_lp_Variant>  (328) 
91:0-2

>  <s_i_glide_gridfile>  (328) 
pfpi4k_grid

>  <i_i_glide_lignum>  (328) 
21

>  <i_i_glide_rotatable_bonds>  (328) 
3

>  <r_i_docking_score>  (328) 
-3.02095

>  <r_i_glide_ligand_efficiency>  (328) 
-0.104171

>  <r_i_glide_ligand_efficiency_sa>  (328) 
-0.320045

>  <r_i_glide_ligand_efficiency_ln>  (328) 
-0.691721

>  <r_i_glide_gscore>  (328) 
-3.02095

>  <r_i_glide_lipo>  (328) 
-0.441417

>  <r_i_glide_hbond>  (328) 
-0.118793

>  <r_i_glide_metal>  (328) 
-0

>  <r_i_glide_rewards>  (328) 
-0.664317

>  <r_i_glide_evdw>  (328) 
-19.3998

>  <r_i_glide_ecoul>  (328) 
-5.50952

>  <r_i_glide_erotb>  (328) 
0

>  <r_i_glide_esite>  (328) 
0

>  <r_i_glide_emodel>  (328) 
-30.0123

>  <r_i_glide_energy>  (328) 
-24.9094

>  <r_i_glide_einternal>  (328) 
0.436278

>  <r_i_glide_intrahb_reward>  (328) 
-0

>  <i_i_glide_confnum>  (328) 
1

>  <i_i_glide_posenum>  (328) 
23

>  <r_i_glide_eff_state_penalty>  (328) 
0

>  <ligand_id>  (328) 
91

>  <original_smiles>  (328) 
CC1(C)C2C=CC(O)C3(C)C4CC56CC(O)(CO5)C(C)(C)C6CC(O)C3(C)C4C21

>  <smiles>  (328) 
[H]OC1([H])C([H])=C([H])C2([H])C([H])(C3([H])C4([H])C([H])([H])C56OC([H])([H])C(O[H])(C5([H])[H])C(C([H])([H])[H])(C([H])([H])[H])C6([H])C([H])([H])C([H])(O[H])C3(C([H])([H])[H])C14C([H])([H])[H])C2(C([H])([H])[H])C([H])([H])[H]

$$$$
92:0:0
     RDKit          3D

 37 39  0  0  1  0  0  0  0  0999 V2000
    6.0837   -7.1528    1.9011 C   0  0  0  0  0  0  0  0  0  0  0  0
    4.7081   -6.6559    1.5205 C   0  0  0  0  0  0  0  0  0  0  0  0
    4.5083   -5.5707    0.6521 C   0  0  0  0  0  0  0  0  0  0  0  0
    3.1693   -5.1841    0.4192 C   0  0  0  0  0  0  0  0  0  0  0  0
    2.8004   -4.0537   -0.3314 N   0  0  0  0  0  0  0  0  0  0  0  0
    3.4213   -3.4450   -1.4368 C   0  0  0  0  0  0  0  0  0  0  0  0
    2.6156   -2.7190   -2.3360 C   0  0  0  0  0  0  0  0  0  0  0  0
    3.2612   -2.0499   -3.3838 C   0  0  0  0  0  0  0  0  0  0  0  0
    4.5910   -2.1213   -3.5474 N   0  0  0  0  0  0  0  0  0  0  0  0
    5.2614   -2.8616   -2.6686 C   0  0  0  0  0  0  0  0  0  0  0  0
    4.7608   -3.5116   -1.6208 N   0  0  0  0  0  0  0  0  0  0  0  0
    2.1380   -5.8559    0.9888 N   0  0  0  0  0  0  0  0  0  0  0  0
    2.4448   -6.8798    1.7994 C   0  0  0  0  0  0  0  0  0  0  0  0
    1.3940   -7.5263    2.3767 O   0  0  0  0  0  0  0  0  0  0  0  0
    1.6577   -8.6004    3.3077 C   0  0  0  0  0  0  0  0  0  0  0  0
    2.2349   -9.8709    2.6554 C   0  0  0  0  0  0  0  0  0  0  0  0
    1.7807  -11.0560    3.5134 C   0  0  0  0  0  0  0  0  0  0  0  0
    0.7275  -10.5159    4.4773 C   0  0  0  0  0  0  0  0  0  0  0  0
    0.3866   -9.0940    4.0073 C   0  0  0  0  0  0  0  0  0  0  0  0
    3.6809   -7.2914    2.1028 N   0  0  0  0  0  0  0  0  0  0  0  0
    1.8210   -3.8433   -0.2772 H   0  0  0  0  0  0  0  0  0  0  0  0
    6.8607   -6.5782    1.3978 H   0  0  0  0  0  0  0  0  0  0  0  0
    6.1913   -8.2045    1.6259 H   0  0  0  0  0  0  0  0  0  0  0  0
    6.2343   -7.0720    2.9814 H   0  0  0  0  0  0  0  0  0  0  0  0
    5.3392   -5.0386    0.2260 H   0  0  0  0  0  0  0  0  0  0  0  0
    1.5433   -2.6567   -2.2210 H   0  0  0  0  0  0  0  0  0  0  0  0
    2.7087   -1.4510   -4.0926 H   0  0  0  0  0  0  0  0  0  0  0  0
    6.3314   -2.8881   -2.8038 H   0  0  0  0  0  0  0  0  0  0  0  0
    2.3251   -8.2532    4.1008 H   0  0  0  0  0  0  0  0  0  0  0  0
    1.8439   -9.9722    1.6425 H   0  0  0  0  0  0  0  0  0  0  0  0
    3.3240   -9.8452    2.5858 H   0  0  0  0  0  0  0  0  0  0  0  0
    1.3731  -11.8454    2.8848 H   0  0  0  0  0  0  0  0  0  0  0  0
    2.6130  -11.4930    4.0630 H   0  0  0  0  0  0  0  0  0  0  0  0
   -0.1471  -11.1584    4.4945 H   0  0  0  0  0  0  0  0  0  0  0  0
    1.1359  -10.4940    5.4886 H   0  0  0  0  0  0  0  0  0  0  0  0
    0.0798   -8.4509    4.8370 H   0  0  0  0  0  0  0  0  0  0  0  0
   -0.4373   -9.1383    3.2924 H   0  0  0  0  0  0  0  0  0  0  0  0
  1 22  1  0
  1 23  1  0
  1 24  1  0
  1  2  1  0
  2 20  2  0
  2  3  1  0
  3 25  1  0
  3  4  2  0
  4  5  1  0
  4 12  1  0
  5  6  1  0
  5 21  1  0
  6 11  1  0
  6  7  2  0
  7  8  1  0
  7 26  1  0
  8  9  2  0
  8 27  1  0
  9 10  1  0
 10 11  2  0
 10 28  1  0
 12 13  2  0
 13 14  1  0
 13 20  1  0
 14 15  1  0
 15 19  1  0
 15 16  1  0
 15 29  1  0
 16 17  1  0
 16 30  1  0
 16 31  1  0
 17 18  1  0
 17 32  1  0
 17 33  1  0
 18 19  1  0
 18 34  1  0
 18 35  1  0
 19 36  1  0
 19 37  1  0
M  END
>  <i_m_ct_stereo_status>  (329) 
1

>  <s_m_source_file>  (329) 
/var/tmp/pbs.5076255.sched01/tmpulc5pjk6/123bob0etdf.sdf

>  <i_m_source_file_index>  (329) 
22

>  <i_lp_mmshare_version>  (329) 
48012

>  <i_f3d_flags>  (329) 
0

>  <s_epik_input>  (329) 
bjFbY0hdbltjSF1bY0hdYzEvTj1jKFxbY0hdYzJbQ0gzXSluYyhbbkhdMilPW0NIXTNbQ0gyXVtDSDJdW0NIMl1bQ0gyXTM=

>  <s_epik_cmdline>  (329) 
J2VwaWtfcHl0aG9uJywgJy1waHQnLCAnMi4wJywgJy1waCcsICc3LjAnLCAnLXRuJywgJzgnLCAnLW1hJywgJzIwMCcsICctaW1hZScsICc8aW5maWxlLm1hZT4nLCAnLW9tYWUnLCAnPG91dGZpbGUubWFlPic=

>  <r_lp_tautomer_probability>  (329) 
1

>  <r_epik_Ionization_Penalty>  (329) 
0.000146964

>  <r_epik_Ionization_Penalty_Charging>  (329) 
0

>  <r_epik_Ionization_Penalty_Neutral>  (329) 
0.000146964

>  <r_epik_State_Penalty>  (329) 
-0

>  <r_epik_Charging_Adjusted_Penalty>  (329) 
0

>  <i_epik_Tot_Q>  (329) 
0

>  <i_epik_Tot_abs_Q>  (329) 
0

>  <s_lp_Force_Field>  (329) 
OPLS3e

>  <r_lp_Energy>  (329) 
32.2026

>  <b_lp_Chiralities_Consistent>  (329) 
1

>  <s_lp_Variant>  (329) 
92:0-1

>  <s_i_glide_gridfile>  (329) 
pfpi4k_grid

>  <i_i_glide_lignum>  (329) 
22

>  <i_i_glide_rotatable_bonds>  (329) 
4

>  <r_i_docking_score>  (329) 
-3.20197

>  <r_i_glide_ligand_efficiency>  (329) 
-0.160099

>  <r_i_glide_ligand_efficiency_sa>  (329) 
-0.434574

>  <r_i_glide_ligand_efficiency_ln>  (329) 
-0.801347

>  <r_i_glide_gscore>  (329) 
-3.20197

>  <r_i_glide_lipo>  (329) 
-0.571855

>  <r_i_glide_hbond>  (329) 
0

>  <r_i_glide_metal>  (329) 
-0

>  <r_i_glide_rewards>  (329) 
-1.80852

>  <r_i_glide_evdw>  (329) 
-25.7781

>  <r_i_glide_ecoul>  (329) 
-3.06753

>  <r_i_glide_erotb>  (329) 
0.972752

>  <r_i_glide_esite>  (329) 
-0.0453183

>  <r_i_glide_emodel>  (329) 
-32.233

>  <r_i_glide_energy>  (329) 
-28.8456

>  <r_i_glide_einternal>  (329) 
3.97045

>  <r_i_glide_intrahb_reward>  (329) 
-0

>  <i_i_glide_confnum>  (329) 
2

>  <i_i_glide_posenum>  (329) 
31

>  <r_i_glide_eff_state_penalty>  (329) 
0

>  <ligand_id>  (329) 
92

>  <original_smiles>  (329) 
Cc1cc(=Nc2ccncn2)nc(OC2CCCC2)[nH]1

>  <smiles>  (329) 
[H]c1nc([H])c([H])c(N([H])c2nc(OC3([H])C([H])([H])C([H])([H])C([H])([H])C3([H])[H])nc(C([H])([H])[H])c2[H])n1

$$$$
92:0:1
     RDKit          3D

 37 39  0  0  1  0  0  0  0  0999 V2000
    1.5119   -2.4283    4.6226 C   0  0  0  0  0  0  0  0  0  0  0  0
    1.7339   -3.5188    3.6028 C   0  0  0  0  0  0  0  0  0  0  0  0
    2.6074   -3.3526    2.5144 C   0  0  0  0  0  0  0  0  0  0  0  0
    2.7276   -4.4371    1.6187 C   0  0  0  0  0  0  0  0  0  0  0  0
    3.5229   -4.4514    0.4639 N   0  0  0  0  0  0  0  0  0  0  0  0
    4.4839   -3.5555   -0.0400 C   0  0  0  0  0  0  0  0  0  0  0  0
    5.0662   -3.8553   -1.2856 C   0  0  0  0  0  0  0  0  0  0  0  0
    6.0367   -2.9650   -1.7761 C   0  0  0  0  0  0  0  0  0  0  0  0
    6.3948   -1.8634   -1.0938 N   0  0  0  0  0  0  0  0  0  0  0  0
    5.7852   -1.6718    0.0771 C   0  0  0  0  0  0  0  0  0  0  0  0
    4.8625   -2.4527    0.6421 N   0  0  0  0  0  0  0  0  0  0  0  0
    2.0076   -5.5671    1.8118 N   0  0  0  0  0  0  0  0  0  0  0  0
    1.2261   -5.6289    2.9000 C   0  0  0  0  0  0  0  0  0  0  0  0
    0.4594   -6.7288    3.1178 O   0  0  0  0  0  0  0  0  0  0  0  0
    0.7038   -7.9353    2.3845 C   0  0  0  0  0  0  0  0  0  0  0  0
   -0.3629   -8.9932    2.7133 C   0  0  0  0  0  0  0  0  0  0  0  0
    0.3244  -10.3607    2.5771 C   0  0  0  0  0  0  0  0  0  0  0  0
    1.8281  -10.0833    2.4587 C   0  0  0  0  0  0  0  0  0  0  0  0
    2.0217   -8.6042    2.7870 C   0  0  0  0  0  0  0  0  0  0  0  0
    1.0394   -4.6576    3.7916 N   0  0  0  0  0  0  0  0  0  0  0  0
    3.3906   -5.2660   -0.1144 H   0  0  0  0  0  0  0  0  0  0  0  0
    2.1298   -1.5611    4.3933 H   0  0  0  0  0  0  0  0  0  0  0  0
    1.7774   -2.7865    5.6200 H   0  0  0  0  0  0  0  0  0  0  0  0
    0.4647   -2.1154    4.6312 H   0  0  0  0  0  0  0  0  0  0  0  0
    3.1373   -2.4255    2.3773 H   0  0  0  0  0  0  0  0  0  0  0  0
    4.7845   -4.7362   -1.8466 H   0  0  0  0  0  0  0  0  0  0  0  0
    6.5232   -3.1392   -2.7232 H   0  0  0  0  0  0  0  0  0  0  0  0
    6.0847   -0.7852    0.6175 H   0  0  0  0  0  0  0  0  0  0  0  0
    0.6826   -7.7706    1.3062 H   0  0  0  0  0  0  0  0  0  0  0  0
   -0.7137   -8.8819    3.7405 H   0  0  0  0  0  0  0  0  0  0  0  0
   -1.2360   -8.9130    2.0640 H   0  0  0  0  0  0  0  0  0  0  0  0
    0.1070  -10.9834    3.4455 H   0  0  0  0  0  0  0  0  0  0  0  0
   -0.0390  -10.9072    1.7060 H   0  0  0  0  0  0  0  0  0  0  0  0
    2.4183  -10.7366    3.1012 H   0  0  0  0  0  0  0  0  0  0  0  0
    2.1558  -10.2526    1.4351 H   0  0  0  0  0  0  0  0  0  0  0  0
    2.8891   -8.1797    2.2769 H   0  0  0  0  0  0  0  0  0  0  0  0
    2.1750   -8.4976    3.8600 H   0  0  0  0  0  0  0  0  0  0  0  0
  1 22  1  0
  1 23  1  0
  1 24  1  0
  1  2  1  0
  2 20  2  0
  2  3  1  0
  3 25  1  0
  3  4  2  0
  4  5  1  0
  4 12  1  0
  5  6  1  0
  5 21  1  0
  6 11  1  0
  6  7  2  0
  7  8  1  0
  7 26  1  0
  8  9  2  0
  8 27  1  0
  9 10  1  0
 10 11  2  0
 10 28  1  0
 12 13  2  0
 13 14  1  0
 13 20  1  0
 14 15  1  0
 15 19  1  0
 15 16  1  0
 15 29  1  0
 16 17  1  0
 16 30  1  0
 16 31  1  0
 17 18  1  0
 17 32  1  0
 17 33  1  0
 18 19  1  0
 18 34  1  0
 18 35  1  0
 19 36  1  0
 19 37  1  0
M  END
>  <i_m_ct_stereo_status>  (330) 
1

>  <s_m_source_file>  (330) 
/var/tmp/pbs.5076255.sched01/tmpulc5pjk6/123bob0etdf.sdf

>  <i_m_source_file_index>  (330) 
22

>  <i_lp_mmshare_version>  (330) 
48012

>  <i_f3d_flags>  (330) 
0

>  <s_epik_input>  (330) 
bjFbY0hdbltjSF1bY0hdYzEvTj1jKFxbY0hdYzJbQ0gzXSluYyhbbkhdMilPW0NIXTNbQ0gyXVtDSDJdW0NIMl1bQ0gyXTM=

>  <s_epik_cmdline>  (330) 
J2VwaWtfcHl0aG9uJywgJy1waHQnLCAnMi4wJywgJy1waCcsICc3LjAnLCAnLXRuJywgJzgnLCAnLW1hJywgJzIwMCcsICctaW1hZScsICc8aW5maWxlLm1hZT4nLCAnLW9tYWUnLCAnPG91dGZpbGUubWFlPic=

>  <r_lp_tautomer_probability>  (330) 
1

>  <r_epik_Ionization_Penalty>  (330) 
0.000146964

>  <r_epik_Ionization_Penalty_Charging>  (330) 
0

>  <r_epik_Ionization_Penalty_Neutral>  (330) 
0.000146964

>  <r_epik_State_Penalty>  (330) 
-0

>  <r_epik_Charging_Adjusted_Penalty>  (330) 
0

>  <i_epik_Tot_Q>  (330) 
0

>  <i_epik_Tot_abs_Q>  (330) 
0

>  <s_lp_Force_Field>  (330) 
OPLS3e

>  <r_lp_Energy>  (330) 
32.2026

>  <b_lp_Chiralities_Consistent>  (330) 
1

>  <s_lp_Variant>  (330) 
92:0-1

>  <s_i_glide_gridfile>  (330) 
pfpi4k_grid

>  <i_i_glide_lignum>  (330) 
22

>  <i_i_glide_rotatable_bonds>  (330) 
4

>  <r_i_docking_score>  (330) 
-2.97591

>  <r_i_glide_ligand_efficiency>  (330) 
-0.148796

>  <r_i_glide_ligand_efficiency_sa>  (330) 
-0.403893

>  <r_i_glide_ligand_efficiency_ln>  (330) 
-0.744773

>  <r_i_glide_gscore>  (330) 
-2.97591

>  <r_i_glide_lipo>  (330) 
-0.412617

>  <r_i_glide_hbond>  (330) 
-0.158052

>  <r_i_glide_metal>  (330) 
-0

>  <r_i_glide_rewards>  (330) 
-1.56962

>  <r_i_glide_evdw>  (330) 
-21.0166

>  <r_i_glide_ecoul>  (330) 
-4.76706

>  <r_i_glide_erotb>  (330) 
0.972752

>  <r_i_glide_esite>  (330) 
-0.042485

>  <r_i_glide_emodel>  (330) 
-30.9338

>  <r_i_glide_energy>  (330) 
-25.7837

>  <r_i_glide_einternal>  (330) 
0.407999

>  <r_i_glide_intrahb_reward>  (330) 
-0

>  <i_i_glide_confnum>  (330) 
3

>  <i_i_glide_posenum>  (330) 
30

>  <r_i_glide_eff_state_penalty>  (330) 
0

>  <ligand_id>  (330) 
92

>  <original_smiles>  (330) 
Cc1cc(=Nc2ccncn2)nc(OC2CCCC2)[nH]1

>  <smiles>  (330) 
[H]c1nc([H])c([H])c(N([H])c2nc(OC3([H])C([H])([H])C([H])([H])C([H])([H])C3([H])[H])nc(C([H])([H])[H])c2[H])n1

$$$$
92:0:2
     RDKit          3D

 37 39  0  0  1  0  0  0  0  0999 V2000
    4.8372   -4.8628    3.1637 C   0  0  0  0  0  0  0  0  0  0  0  0
    3.7786   -5.0845    2.1121 C   0  0  0  0  0  0  0  0  0  0  0  0
    3.6686   -4.2691    0.9727 C   0  0  0  0  0  0  0  0  0  0  0  0
    2.6144   -4.5570    0.0829 C   0  0  0  0  0  0  0  0  0  0  0  0
    2.3304   -3.8387   -1.0962 N   0  0  0  0  0  0  0  0  0  0  0  0
    3.0120   -2.8015   -1.7580 C   0  0  0  0  0  0  0  0  0  0  0  0
    2.6124   -2.4792   -3.0655 C   0  0  0  0  0  0  0  0  0  0  0  0
    3.2410   -1.3828   -3.6797 C   0  0  0  0  0  0  0  0  0  0  0  0
    4.2151   -0.6935   -3.0637 N   0  0  0  0  0  0  0  0  0  0  0  0
    4.5234   -1.0819   -1.8330 C   0  0  0  0  0  0  0  0  0  0  0  0
    3.9965   -2.0989   -1.1526 N   0  0  0  0  0  0  0  0  0  0  0  0
    1.7664   -5.5869    0.3355 N   0  0  0  0  0  0  0  0  0  0  0  0
    1.9786   -6.3139    1.4380 C   0  0  0  0  0  0  0  0  0  0  0  0
    1.0969   -7.3251    1.6558 O   0  0  0  0  0  0  0  0  0  0  0  0
    1.3516   -8.2542    2.7301 C   0  0  0  0  0  0  0  0  0  0  0  0
    2.5096   -9.2081    2.4040 C   0  0  0  0  0  0  0  0  0  0  0  0
    2.2247  -10.5104    3.1561 C   0  0  0  0  0  0  0  0  0  0  0  0
    0.7888  -10.4074    3.6826 C   0  0  0  0  0  0  0  0  0  0  0  0
    0.1647   -9.1764    3.0156 C   0  0  0  0  0  0  0  0  0  0  0  0
    2.9333   -6.1007    2.3412 N   0  0  0  0  0  0  0  0  0  0  0  0
    1.5977   -4.2503   -1.6559 H   0  0  0  0  0  0  0  0  0  0  0  0
    5.4875   -4.0316    2.8895 H   0  0  0  0  0  0  0  0  0  0  0  0
    5.4412   -5.7658    3.2736 H   0  0  0  0  0  0  0  0  0  0  0  0
    4.3674   -4.6428    4.1255 H   0  0  0  0  0  0  0  0  0  0  0  0
    4.3565   -3.4565    0.8132 H   0  0  0  0  0  0  0  0  0  0  0  0
    1.8133   -3.0118   -3.5648 H   0  0  0  0  0  0  0  0  0  0  0  0
    2.9605   -1.0596   -4.6700 H   0  0  0  0  0  0  0  0  0  0  0  0
    5.3141   -0.5251   -1.3544 H   0  0  0  0  0  0  0  0  0  0  0  0
    1.5466   -7.7309    3.6668 H   0  0  0  0  0  0  0  0  0  0  0  0
    2.5288   -9.4072    1.3322 H   0  0  0  0  0  0  0  0  0  0  0  0
    3.4770   -8.7857    2.6760 H   0  0  0  0  0  0  0  0  0  0  0  0
    2.3484  -11.3598    2.4868 H   0  0  0  0  0  0  0  0  0  0  0  0
    2.9221  -10.6567    3.9801 H   0  0  0  0  0  0  0  0  0  0  0  0
    0.2157  -11.3113    3.4891 H   0  0  0  0  0  0  0  0  0  0  0  0
    0.8113  -10.2747    4.7648 H   0  0  0  0  0  0  0  0  0  0  0  0
   -0.5909   -8.7073    3.6509 H   0  0  0  0  0  0  0  0  0  0  0  0
   -0.3095   -9.4671    2.0783 H   0  0  0  0  0  0  0  0  0  0  0  0
  1 22  1  0
  1 23  1  0
  1 24  1  0
  1  2  1  0
  2 20  2  0
  2  3  1  0
  3 25  1  0
  3  4  2  0
  4  5  1  0
  4 12  1  0
  5  6  1  0
  5 21  1  0
  6 11  1  0
  6  7  2  0
  7  8  1  0
  7 26  1  0
  8  9  2  0
  8 27  1  0
  9 10  1  0
 10 11  2  0
 10 28  1  0
 12 13  2  0
 13 14  1  0
 13 20  1  0
 14 15  1  0
 15 19  1  0
 15 16  1  0
 15 29  1  0
 16 17  1  0
 16 30  1  0
 16 31  1  0
 17 18  1  0
 17 32  1  0
 17 33  1  0
 18 19  1  0
 18 34  1  0
 18 35  1  0
 19 36  1  0
 19 37  1  0
M  END
>  <i_m_ct_stereo_status>  (331) 
1

>  <s_m_source_file>  (331) 
/var/tmp/pbs.5076255.sched01/tmpulc5pjk6/123bob0etdf.sdf

>  <i_m_source_file_index>  (331) 
22

>  <i_lp_mmshare_version>  (331) 
48012

>  <i_f3d_flags>  (331) 
0

>  <s_epik_input>  (331) 
bjFbY0hdbltjSF1bY0hdYzEvTj1jKFxbY0hdYzJbQ0gzXSluYyhbbkhdMilPW0NIXTNbQ0gyXVtDSDJdW0NIMl1bQ0gyXTM=

>  <s_epik_cmdline>  (331) 
J2VwaWtfcHl0aG9uJywgJy1waHQnLCAnMi4wJywgJy1waCcsICc3LjAnLCAnLXRuJywgJzgnLCAnLW1hJywgJzIwMCcsICctaW1hZScsICc8aW5maWxlLm1hZT4nLCAnLW9tYWUnLCAnPG91dGZpbGUubWFlPic=

>  <r_lp_tautomer_probability>  (331) 
1

>  <r_epik_Ionization_Penalty>  (331) 
0.000146964

>  <r_epik_Ionization_Penalty_Charging>  (331) 
0

>  <r_epik_Ionization_Penalty_Neutral>  (331) 
0.000146964

>  <r_epik_State_Penalty>  (331) 
-0

>  <r_epik_Charging_Adjusted_Penalty>  (331) 
0

>  <i_epik_Tot_Q>  (331) 
0

>  <i_epik_Tot_abs_Q>  (331) 
0

>  <s_lp_Force_Field>  (331) 
OPLS3e

>  <r_lp_Energy>  (331) 
32.2026

>  <b_lp_Chiralities_Consistent>  (331) 
1

>  <s_lp_Variant>  (331) 
92:0-1

>  <s_i_glide_gridfile>  (331) 
pfpi4k_grid

>  <i_i_glide_lignum>  (331) 
22

>  <i_i_glide_rotatable_bonds>  (331) 
4

>  <r_i_docking_score>  (331) 
-2.96919

>  <r_i_glide_ligand_efficiency>  (331) 
-0.14846

>  <r_i_glide_ligand_efficiency_sa>  (331) 
-0.402981

>  <r_i_glide_ligand_efficiency_ln>  (331) 
-0.743091

>  <r_i_glide_gscore>  (331) 
-2.96919

>  <r_i_glide_lipo>  (331) 
-0.309426

>  <r_i_glide_hbond>  (331) 
-0.100141

>  <r_i_glide_metal>  (331) 
-0

>  <r_i_glide_rewards>  (331) 
-1.5592

>  <r_i_glide_evdw>  (331) 
-25.647

>  <r_i_glide_ecoul>  (331) 
-3.90894

>  <r_i_glide_erotb>  (331) 
0.972752

>  <r_i_glide_esite>  (331) 
-0.10449

>  <r_i_glide_emodel>  (331) 
-33.4591

>  <r_i_glide_energy>  (331) 
-29.5559

>  <r_i_glide_einternal>  (331) 
2.48023

>  <r_i_glide_intrahb_reward>  (331) 
-0

>  <i_i_glide_confnum>  (331) 
2

>  <i_i_glide_posenum>  (331) 
39

>  <r_i_glide_eff_state_penalty>  (331) 
0

>  <ligand_id>  (331) 
92

>  <original_smiles>  (331) 
Cc1cc(=Nc2ccncn2)nc(OC2CCCC2)[nH]1

>  <smiles>  (331) 
[H]c1nc([H])c([H])c(N([H])c2nc(OC3([H])C([H])([H])C([H])([H])C([H])([H])C3([H])[H])nc(C([H])([H])[H])c2[H])n1

$$$$
93:0:0
     RDKit          3D

 76 81  0  0  1  0  0  0  0  0999 V2000
    0.4731   -2.2963    7.2834 C   0  0  0  0  0  0  0  0  0  0  0  0
   -0.2918   -2.5013    5.9725 C   0  0  0  0  0  0  0  0  0  0  0  0
   -1.5212   -2.4288    5.9591 O   0  0  0  0  0  0  0  0  0  0  0  0
    0.4676   -2.7553    4.8719 O   0  0  0  0  0  0  0  0  0  0  0  0
    1.8742   -2.5146    4.8247 C   0  0  2  0  0  0  0  0  0  0  0  0
    2.1276   -1.1253    4.2567 C   0  0  0  0  0  0  0  0  0  0  0  0
    1.6593   -0.0204    4.9014 C   0  0  0  0  0  0  0  0  0  0  0  0
    1.7607    1.3217    4.3737 C   0  0  0  0  0  0  0  0  0  0  0  0
    1.2546    2.4186    4.7721 N   0  0  0  0  0  0  0  0  0  0  0  0
    1.4906    3.2503    3.7419 N   0  0  0  0  0  0  0  0  0  0  0  0
    0.8760    4.5619    3.6608 C   0  0  0  0  0  0  0  0  0  0  0  0
   -0.6764    4.5627    3.8622 C   0  0  2  0  0  0  0  0  0  0  0  0
   -1.3585    3.1835    3.9103 C   0  0  0  0  0  0  0  0  0  0  0  0
   -1.3195    5.2591    2.7970 O   0  0  0  0  0  0  0  0  0  0  0  0
    2.2132    2.6977    2.7236 N   0  0  0  0  0  0  0  0  0  0  0  0
    2.4015    1.4812    3.1265 C   0  0  0  0  0  0  0  0  0  0  0  0
    3.1947    0.4055    2.4265 C   0  0  0  0  0  0  0  0  0  0  0  0
    2.8584   -1.0420    2.9071 C   0  0  1  0  0  0  0  0  0  0  0  0
    4.1350   -1.9445    2.8794 C   0  0  2  0  0  0  0  0  0  0  0  0
    4.6035   -2.2846    1.4265 C   0  0  0  0  0  0  0  0  0  0  0  0
    4.4020   -3.7994    1.2718 C   0  0  1  0  0  0  0  0  0  0  0  0
    2.9636   -4.0781    0.7551 C   0  0  0  0  0  0  0  0  0  0  0  0
    5.3640   -4.7259    0.4839 C   0  0  1  0  0  0  0  0  0  0  0  0
    6.7758   -4.1915    0.3079 C   0  0  0  0  0  0  0  0  0  0  0  0
    7.1878   -3.1527   -0.5714 C   0  0  0  0  0  0  0  0  0  0  0  0
    8.5334   -2.9975   -0.3874 C   0  0  0  0  0  0  0  0  0  0  0  0
    9.0120   -3.8810    0.5207 O   0  0  0  0  0  0  0  0  0  0  0  0
    7.9316   -4.5938    0.9324 C   0  0  0  0  0  0  0  0  0  0  0  0
    5.2765   -6.0786    1.2654 C   0  0  0  0  0  0  0  0  0  0  0  0
    4.7038   -5.7621    2.6686 C   0  0  1  0  0  0  0  0  0  0  0  0
    5.4901   -6.3189    3.6950 O   0  0  0  0  0  0  0  0  0  0  0  0
    4.7417   -4.2352    2.6907 C   0  0  2  0  0  0  0  0  0  0  0  0
    4.0588   -3.2846    3.6983 C   0  0  1  0  0  0  0  0  0  0  0  0
    4.8874   -3.1715    5.0046 C   0  0  0  0  0  0  0  0  0  0  0  0
    2.5841   -3.6319    4.0345 C   0  0  1  0  0  0  0  0  0  0  0  0
    2.5329   -4.8588    4.7867 O   0  0  0  0  0  0  0  0  0  0  0  0
    1.6846   -5.8819    4.5092 C   0  0  0  0  0  0  0  0  0  0  0  0
    0.7377   -5.6472    3.3330 C   0  0  0  0  0  0  0  0  0  0  0  0
    1.6760   -6.9491    5.1206 O   0  0  0  0  0  0  0  0  0  0  0  0
    1.0741   -1.3824    7.2488 H   0  0  0  0  0  0  0  0  0  0  0  0
    1.1253   -3.1422    7.4659 H   0  0  0  0  0  0  0  0  0  0  0  0
   -0.2187   -2.1976    8.1346 H   0  0  0  0  0  0  0  0  0  0  0  0
    2.3217   -2.5442    5.8105 H   0  0  0  0  0  0  0  0  0  0  0  0
    1.0804   -0.0983    5.8087 H   0  0  0  0  0  0  0  0  0  0  0  0
    1.3806    5.1996    4.3949 H   0  0  0  0  0  0  0  0  0  0  0  0
    1.1420    4.9960    2.6919 H   0  0  0  0  0  0  0  0  0  0  0  0
   -0.8700    5.0584    4.8164 H   0  0  0  0  0  0  0  0  0  0  0  0
   -0.9652    2.5811    4.7137 H   0  0  0  0  0  0  0  0  0  0  0  0
   -1.1646    2.6553    2.9811 H   0  0  0  0  0  0  0  0  0  0  0  0
   -2.4682    3.2920    3.9829 H   0  0  0  0  0  0  0  0  0  0  0  0
   -0.8580    5.0557    1.9946 H   0  0  0  0  0  0  0  0  0  0  0  0
    3.1272    0.4906    1.3403 H   0  0  0  0  0  0  0  0  0  0  0  0
    4.2235    0.6175    2.6846 H   0  0  0  0  0  0  0  0  0  0  0  0
    2.1244   -1.4346    2.2064 H   0  0  0  0  0  0  0  0  0  0  0  0
    4.9409   -1.3529    3.3237 H   0  0  0  0  0  0  0  0  0  0  0  0
    4.0608   -1.7272    0.6579 H   0  0  0  0  0  0  0  0  0  0  0  0
    5.6532   -2.0110    1.3405 H   0  0  0  0  0  0  0  0  0  0  0  0
    2.6456   -5.0963    0.9802 H   0  0  0  0  0  0  0  0  0  0  0  0
    2.9031   -3.9869   -0.3282 H   0  0  0  0  0  0  0  0  0  0  0  0
    2.2257   -3.3806    1.1421 H   0  0  0  0  0  0  0  0  0  0  0  0
    4.9973   -4.8841   -0.5254 H   0  0  0  0  0  0  0  0  0  0  0  0
    6.5681   -2.5813   -1.2467 H   0  0  0  0  0  0  0  0  0  0  0  0
    9.2806   -2.3358   -0.8096 H   0  0  0  0  0  0  0  0  0  0  0  0
    8.1510   -5.3497    1.6828 H   0  0  0  0  0  0  0  0  0  0  0  0
    4.5747   -6.7376    0.7605 H   0  0  0  0  0  0  0  0  0  0  0  0
    6.2169   -6.6285    1.2877 H   0  0  0  0  0  0  0  0  0  0  0  0
    3.6829   -6.1467    2.7293 H   0  0  0  0  0  0  0  0  0  0  0  0
    5.0812   -6.1253    4.5285 H   0  0  0  0  0  0  0  0  0  0  0  0
    5.8018   -4.0073    2.8203 H   0  0  0  0  0  0  0  0  0  0  0  0
    4.9116   -4.1160    5.5470 H   0  0  0  0  0  0  0  0  0  0  0  0
    4.4881   -2.4122    5.6784 H   0  0  0  0  0  0  0  0  0  0  0  0
    5.9193   -2.8909    4.8007 H   0  0  0  0  0  0  0  0  0  0  0  0
    2.0657   -3.7222    3.0930 H   0  0  0  0  0  0  0  0  0  0  0  0
    1.3158   -5.5421    2.4202 H   0  0  0  0  0  0  0  0  0  0  0  0
    0.1761   -4.7395    3.4917 H   0  0  0  0  0  0  0  0  0  0  0  0
    0.0398   -6.4892    3.1798 H   0  0  0  0  0  0  0  0  0  0  0  0
  1  2  1  0
  1 40  1  0
  1 41  1  0
  1 42  1  0
  2  3  2  0
  2  4  1  0
  4  5  1  0
  5 35  1  0
  5  6  1  0
  5 43  1  1
  6 18  1  0
  6  7  2  0
  7  8  1  0
  7 44  1  0
  8 16  1  0
  8  9  2  0
  9 10  1  0
 10 11  1  0
 10 15  1  0
 11 12  1  0
 11 45  1  0
 11 46  1  0
 12 13  1  0
 12 14  1  0
 12 47  1  1
 13 48  1  0
 13 49  1  0
 13 50  1  0
 14 51  1  0
 15 16  2  0
 16 17  1  0
 17 18  1  0
 17 52  1  0
 17 53  1  0
 18 19  1  0
 18 54  1  6
 19 33  1  0
 19 20  1  0
 19 55  1  1
 20 21  1  0
 20 56  1  0
 20 57  1  0
 21 32  1  0
 21 22  1  6
 21 23  1  0
 22 58  1  0
 22 59  1  0
 22 60  1  0
 23 24  1  0
 23 29  1  0
 23 61  1  6
 24 28  2  0
 24 25  1  0
 25 26  2  0
 25 62  1  0
 26 27  1  0
 26 63  1  0
 27 28  1  0
 28 64  1  0
 29 30  1  0
 29 65  1  0
 29 66  1  0
 30 31  1  0
 30 32  1  0
 30 67  1  6
 31 68  1  0
 32 33  1  0
 32 69  1  6
 33 34  1  1
 33 35  1  0
 34 70  1  0
 34 71  1  0
 34 72  1  0
 35 36  1  0
 35 73  1  6
 36 37  1  0
 37 38  1  0
 37 39  2  0
 38 74  1  0
 38 75  1  0
 38 76  1  0
M  END
>  <i_m_ct_stereo_status>  (332) 
1

>  <s_m_source_file>  (332) 
/var/tmp/pbs.5076255.sched01/tmpulc5pjk6/123bob0etdf.sdf

>  <i_m_source_file_index>  (332) 
23

>  <i_lp_mmshare_version>  (332) 
48012

>  <i_f3d_flags>  (332) 
0

>  <s_epik_input>  (332) 
W0NIM11bQ0BIXShbT0hdKVtDSDJdbihuMSluYyhbQ0gyXTIpYzFbQ0hdPUMoW0NAQEhdKE9DKD1PKVtDSDNdKVtDQEBIXTNPQyg9TylbQ0gzXSlbQ0BASF0yW0NASF0oW0NIMl00KVtDQF0zKFtDSDNdKVtDQEhdKFtDQEBdNDVbQ0gzXSlbQ0BIXShbT0hdKVtDSDJdW0NAQEhdNWM2W2NIXVtjSF1vW2NIXTY=

>  <s_epik_cmdline>  (332) 
J2VwaWtfcHl0aG9uJywgJy1waHQnLCAnMi4wJywgJy1waCcsICc3LjAnLCAnLXRuJywgJzgnLCAnLW1hJywgJzIwMCcsICctaW1hZScsICc8aW5maWxlLm1hZT4nLCAnLW9tYWUnLCAnPG91dGZpbGUubWFlPic=

>  <r_lp_tautomer_probability>  (332) 
1

>  <r_epik_Ionization_Penalty>  (332) 
5.72419e-07

>  <r_epik_Ionization_Penalty_Charging>  (332) 
0

>  <r_epik_Ionization_Penalty_Neutral>  (332) 
5.72419e-07

>  <r_epik_State_Penalty>  (332) 
-0

>  <r_epik_Charging_Adjusted_Penalty>  (332) 
0

>  <i_epik_Tot_Q>  (332) 
0

>  <i_epik_Tot_abs_Q>  (332) 
0

>  <s_epik_Chemistry_Notes>  (332) 
This compound has an ester and may undergo hydrolysis at high or low pH.

>  <s_lp_Force_Field>  (332) 
OPLS3e

>  <r_lp_Energy>  (332) 
46.5426

>  <b_lp_Chiralities_Consistent>  (332) 
1

>  <s_lp_Variant>  (332) 
93:0-1

>  <s_i_glide_gridfile>  (332) 
pfpi4k_grid

>  <i_i_glide_lignum>  (332) 
23

>  <i_i_glide_rotatable_bonds>  (332) 
9

>  <r_i_docking_score>  (332) 
-3.47984

>  <r_i_glide_ligand_efficiency>  (332) 
-0.0892266

>  <r_i_glide_ligand_efficiency_sa>  (332) 
-0.302586

>  <r_i_glide_ligand_efficiency_ln>  (332) 
-0.746176

>  <r_i_glide_gscore>  (332) 
-3.47984

>  <r_i_glide_lipo>  (332) 
-0.673632

>  <r_i_glide_hbond>  (332) 
-0.365856

>  <r_i_glide_metal>  (332) 
-0

>  <r_i_glide_rewards>  (332) 
0

>  <r_i_glide_evdw>  (332) 
-26.8631

>  <r_i_glide_ecoul>  (332) 
-9.19938

>  <r_i_glide_erotb>  (332) 
0.354916

>  <r_i_glide_esite>  (332) 
-0.0722053

>  <r_i_glide_emodel>  (332) 
-33.0194

>  <r_i_glide_energy>  (332) 
-36.0625

>  <r_i_glide_einternal>  (332) 
18.8342

>  <r_i_glide_intrahb_reward>  (332) 
-0

>  <i_i_glide_confnum>  (332) 
3

>  <i_i_glide_posenum>  (332) 
6

>  <r_i_glide_eff_state_penalty>  (332) 
0

>  <ligand_id>  (332) 
93

>  <original_smiles>  (332) 
CC(=O)OC1C2=Cc3nn(CC(C)O)nc3CC2C2CC3(C)C(c4ccoc4)CC(O)C3C2(C)C1OC(C)=O

>  <smiles>  (332) 
[H]OC([H])(C([H])([H])[H])C([H])([H])n1nc2c(n1)C([H])([H])C1([H])C(=C2[H])C([H])(OC(=O)C([H])([H])[H])C([H])(OC(=O)C([H])([H])[H])C2(C([H])([H])[H])C1([H])C([H])([H])C1(C([H])([H])[H])C([H])(c3c([H])oc([H])c3[H])C([H])([H])C([H])(O[H])C12[H]

$$$$
93:0:1
     RDKit          3D

 76 81  0  0  1  0  0  0  0  0999 V2000
    4.0639   -4.0911   -0.7969 C   0  0  0  0  0  0  0  0  0  0  0  0
    3.5008   -3.7854    0.5751 C   0  0  0  0  0  0  0  0  0  0  0  0
    2.2867   -3.7567    0.7490 O   0  0  0  0  0  0  0  0  0  0  0  0
    4.4551   -3.5218    1.4977 O   0  0  0  0  0  0  0  0  0  0  0  0
    4.1586   -3.0604    2.8273 C   0  0  2  0  0  0  0  0  0  0  0  0
    3.2229   -4.0168    3.5566 C   0  0  0  0  0  0  0  0  0  0  0  0
    3.5915   -5.3002    3.7171 C   0  0  0  0  0  0  0  0  0  0  0  0
    2.6666   -6.2955    4.1996 C   0  0  0  0  0  0  0  0  0  0  0  0
    2.7507   -7.5936    4.2112 N   0  0  0  0  0  0  0  0  0  0  0  0
    1.5265   -7.9508    4.6872 N   0  0  0  0  0  0  0  0  0  0  0  0
    1.1045   -9.3431    4.7692 C   0  0  0  0  0  0  0  0  0  0  0  0
   -0.0060   -9.7037    3.7645 C   0  0  2  0  0  0  0  0  0  0  0  0
    0.2907   -9.2950    2.3302 C   0  0  0  0  0  0  0  0  0  0  0  0
   -1.2261   -9.0500    4.0641 O   0  0  0  0  0  0  0  0  0  0  0  0
    0.6908   -6.9246    4.9885 N   0  0  0  0  0  0  0  0  0  0  0  0
    1.3964   -5.8818    4.6413 C   0  0  0  0  0  0  0  0  0  0  0  0
    0.9334   -4.4578    4.7345 C   0  0  0  0  0  0  0  0  0  0  0  0
    1.8255   -3.4687    3.9397 C   0  0  1  0  0  0  0  0  0  0  0  0
    1.8964   -2.0831    4.6368 C   0  0  2  0  0  0  0  0  0  0  0  0
    0.5561   -1.2777    4.5349 C   0  0  0  0  0  0  0  0  0  0  0  0
    0.8803   -0.0482    3.6681 C   0  0  1  0  0  0  0  0  0  0  0  0
    0.6612   -0.3785    2.1657 C   0  0  0  0  0  0  0  0  0  0  0  0
    0.2818    1.3605    3.9303 C   0  0  1  0  0  0  0  0  0  0  0  0
   -0.2161    1.6171    5.3485 C   0  0  0  0  0  0  0  0  0  0  0  0
   -1.5695    1.7727    5.7616 C   0  0  0  0  0  0  0  0  0  0  0  0
   -1.5455    1.9733    7.1147 C   0  0  0  0  0  0  0  0  0  0  0  0
   -0.2795    1.9585    7.5797 O   0  0  0  0  0  0  0  0  0  0  0  0
    0.5125    1.7684    6.5028 C   0  0  0  0  0  0  0  0  0  0  0  0
    1.4185    2.3232    3.4655 C   0  0  0  0  0  0  0  0  0  0  0  0
    2.7335    1.4947    3.4093 C   0  0  1  0  0  0  0  0  0  0  0  0
    3.7783    2.1397    4.0876 O   0  0  0  0  0  0  0  0  0  0  0  0
    2.3162    0.1948    4.0963 C   0  0  2  0  0  0  0  0  0  0  0  0
    3.0709   -1.1445    4.1706 C   0  0  1  0  0  0  0  0  0  0  0  0
    4.1758   -1.0980    5.2544 C   0  0  0  0  0  0  0  0  0  0  0  0
    3.6650   -1.6034    2.8162 C   0  0  1  0  0  0  0  0  0  0  0  0
    4.7879   -0.8063    2.4193 O   0  0  0  0  0  0  0  0  0  0  0  0
    5.0634   -0.5022    1.1147 C   0  0  0  0  0  0  0  0  0  0  0  0
    3.8552   -0.3976    0.1722 C   0  0  0  0  0  0  0  0  0  0  0  0
    6.1906   -0.2834    0.6896 O   0  0  0  0  0  0  0  0  0  0  0  0
    4.5501   -5.0670   -0.8053 H   0  0  0  0  0  0  0  0  0  0  0  0
    4.7549   -3.3029   -1.0914 H   0  0  0  0  0  0  0  0  0  0  0  0
    3.2315   -4.0998   -1.5002 H   0  0  0  0  0  0  0  0  0  0  0  0
    5.0929   -3.0906    3.3736 H   0  0  0  0  0  0  0  0  0  0  0  0
    4.5715   -5.6390    3.3928 H   0  0  0  0  0  0  0  0  0  0  0  0
    1.9613   -9.9733    4.5558 H   0  0  0  0  0  0  0  0  0  0  0  0
    0.8192   -9.5730    5.7996 H   0  0  0  0  0  0  0  0  0  0  0  0
   -0.1708  -10.7775    3.8122 H   0  0  0  0  0  0  0  0  0  0  0  0
    1.1728   -9.8090    1.9604 H   0  0  0  0  0  0  0  0  0  0  0  0
    0.4432   -8.2195    2.2374 H   0  0  0  0  0  0  0  0  0  0  0  0
   -0.5648   -9.5508    1.6999 H   0  0  0  0  0  0  0  0  0  0  0  0
   -1.7244   -9.6849    4.5932 H   0  0  0  0  0  0  0  0  0  0  0  0
   -0.1090   -4.3687    4.4278 H   0  0  0  0  0  0  0  0  0  0  0  0
    0.9581   -4.2069    5.7842 H   0  0  0  0  0  0  0  0  0  0  0  0
    1.3236   -3.3353    2.9899 H   0  0  0  0  0  0  0  0  0  0  0  0
    2.0485   -2.2801    5.7019 H   0  0  0  0  0  0  0  0  0  0  0  0
   -0.2711   -1.8577    4.1137 H   0  0  0  0  0  0  0  0  0  0  0  0
    0.2537   -0.9791    5.5390 H   0  0  0  0  0  0  0  0  0  0  0  0
    1.2472    0.2500    1.4957 H   0  0  0  0  0  0  0  0  0  0  0  0
   -0.3748   -0.2203    1.8861 H   0  0  0  0  0  0  0  0  0  0  0  0
    0.8630   -1.4167    1.9206 H   0  0  0  0  0  0  0  0  0  0  0  0
   -0.5829    1.5225    3.2952 H   0  0  0  0  0  0  0  0  0  0  0  0
   -2.4608    1.7463    5.1478 H   0  0  0  0  0  0  0  0  0  0  0  0
   -2.3023    2.1483    7.8724 H   0  0  0  0  0  0  0  0  0  0  0  0
    1.5726    1.7531    6.7333 H   0  0  0  0  0  0  0  0  0  0  0  0
    1.1982    2.6689    2.4580 H   0  0  0  0  0  0  0  0  0  0  0  0
    1.4783    3.2240    4.0800 H   0  0  0  0  0  0  0  0  0  0  0  0
    3.0361    1.3262    2.3712 H   0  0  0  0  0  0  0  0  0  0  0  0
    4.3260    2.5438    3.4289 H   0  0  0  0  0  0  0  0  0  0  0  0
    2.2783    0.4652    5.1477 H   0  0  0  0  0  0  0  0  0  0  0  0
    4.9552   -0.3820    4.9912 H   0  0  0  0  0  0  0  0  0  0  0  0
    4.6456   -2.0751    5.3808 H   0  0  0  0  0  0  0  0  0  0  0  0
    3.7770   -0.8049    6.2288 H   0  0  0  0  0  0  0  0  0  0  0  0
    2.8532   -1.5104    2.1061 H   0  0  0  0  0  0  0  0  0  0  0  0
    3.2128    0.4227    0.4829 H   0  0  0  0  0  0  0  0  0  0  0  0
    3.2563   -1.2993    0.1232 H   0  0  0  0  0  0  0  0  0  0  0  0
    4.2247   -0.2163   -0.8400 H   0  0  0  0  0  0  0  0  0  0  0  0
  1  2  1  0
  1 40  1  0
  1 41  1  0
  1 42  1  0
  2  3  2  0
  2  4  1  0
  4  5  1  0
  5 35  1  0
  5  6  1  0
  5 43  1  1
  6 18  1  0
  6  7  2  0
  7  8  1  0
  7 44  1  0
  8 16  1  0
  8  9  2  0
  9 10  1  0
 10 11  1  0
 10 15  1  0
 11 12  1  0
 11 45  1  0
 11 46  1  0
 12 13  1  0
 12 14  1  0
 12 47  1  6
 13 48  1  0
 13 49  1  0
 13 50  1  0
 14 51  1  0
 15 16  2  0
 16 17  1  0
 17 18  1  0
 17 52  1  0
 17 53  1  0
 18 19  1  0
 18 54  1  6
 19 33  1  0
 19 20  1  0
 19 55  1  1
 20 21  1  0
 20 56  1  0
 20 57  1  0
 21 32  1  0
 21 22  1  6
 21 23  1  0
 22 58  1  0
 22 59  1  0
 22 60  1  0
 23 24  1  0
 23 29  1  0
 23 61  1  6
 24 28  2  0
 24 25  1  0
 25 26  2  0
 25 62  1  0
 26 27  1  0
 26 63  1  0
 27 28  1  0
 28 64  1  0
 29 30  1  0
 29 65  1  0
 29 66  1  0
 30 31  1  0
 30 32  1  0
 30 67  1  6
 31 68  1  0
 32 33  1  0
 32 69  1  1
 33 34  1  1
 33 35  1  0
 34 70  1  0
 34 71  1  0
 34 72  1  0
 35 36  1  0
 35 73  1  6
 36 37  1  0
 37 38  1  0
 37 39  2  0
 38 74  1  0
 38 75  1  0
 38 76  1  0
M  END
>  <i_m_ct_stereo_status>  (333) 
1

>  <s_m_source_file>  (333) 
/var/tmp/pbs.5076255.sched01/tmpulc5pjk6/123bob0etdf.sdf

>  <i_m_source_file_index>  (333) 
23

>  <i_lp_mmshare_version>  (333) 
48012

>  <i_f3d_flags>  (333) 
0

>  <s_epik_input>  (333) 
W0NIM11bQ0BIXShbT0hdKVtDSDJdbihuMSluYyhbQ0gyXTIpYzFbQ0hdPUMoW0NAQEhdKE9DKD1PKVtDSDNdKVtDQEBIXTNPQyg9TylbQ0gzXSlbQ0BASF0yW0NASF0oW0NIMl00KVtDQF0zKFtDSDNdKVtDQEhdKFtDQEBdNDVbQ0gzXSlbQ0BIXShbT0hdKVtDSDJdW0NAQEhdNWM2W2NIXVtjSF1vW2NIXTY=

>  <s_epik_cmdline>  (333) 
J2VwaWtfcHl0aG9uJywgJy1waHQnLCAnMi4wJywgJy1waCcsICc3LjAnLCAnLXRuJywgJzgnLCAnLW1hJywgJzIwMCcsICctaW1hZScsICc8aW5maWxlLm1hZT4nLCAnLW9tYWUnLCAnPG91dGZpbGUubWFlPic=

>  <r_lp_tautomer_probability>  (333) 
1

>  <r_epik_Ionization_Penalty>  (333) 
5.72419e-07

>  <r_epik_Ionization_Penalty_Charging>  (333) 
0

>  <r_epik_Ionization_Penalty_Neutral>  (333) 
5.72419e-07

>  <r_epik_State_Penalty>  (333) 
-0

>  <r_epik_Charging_Adjusted_Penalty>  (333) 
0

>  <i_epik_Tot_Q>  (333) 
0

>  <i_epik_Tot_abs_Q>  (333) 
0

>  <s_epik_Chemistry_Notes>  (333) 
This compound has an ester and may undergo hydrolysis at high or low pH.

>  <s_lp_Force_Field>  (333) 
OPLS3e

>  <r_lp_Energy>  (333) 
46.5426

>  <b_lp_Chiralities_Consistent>  (333) 
1

>  <s_lp_Variant>  (333) 
93:0-1

>  <s_i_glide_gridfile>  (333) 
pfpi4k_grid

>  <i_i_glide_lignum>  (333) 
23

>  <i_i_glide_rotatable_bonds>  (333) 
9

>  <r_i_docking_score>  (333) 
-3.04915

>  <r_i_glide_ligand_efficiency>  (333) 
-0.0781833

>  <r_i_glide_ligand_efficiency_sa>  (333) 
-0.265136

>  <r_i_glide_ligand_efficiency_ln>  (333) 
-0.653824

>  <r_i_glide_gscore>  (333) 
-3.04915

>  <r_i_glide_lipo>  (333) 
-0.02021

>  <r_i_glide_hbond>  (333) 
-0.486506

>  <r_i_glide_metal>  (333) 
-0

>  <r_i_glide_rewards>  (333) 
-0.22795

>  <r_i_glide_evdw>  (333) 
-19.2407

>  <r_i_glide_ecoul>  (333) 
-11.3

>  <r_i_glide_erotb>  (333) 
0.354916

>  <r_i_glide_esite>  (333) 
-0.0123588

>  <r_i_glide_emodel>  (333) 
-30.319

>  <r_i_glide_energy>  (333) 
-30.5408

>  <r_i_glide_einternal>  (333) 
13.3024

>  <r_i_glide_intrahb_reward>  (333) 
-0

>  <i_i_glide_confnum>  (333) 
5

>  <i_i_glide_posenum>  (333) 
1

>  <r_i_glide_eff_state_penalty>  (333) 
0

>  <ligand_id>  (333) 
93

>  <original_smiles>  (333) 
CC(=O)OC1C2=Cc3nn(CC(C)O)nc3CC2C2CC3(C)C(c4ccoc4)CC(O)C3C2(C)C1OC(C)=O

>  <smiles>  (333) 
[H]OC([H])(C([H])([H])[H])C([H])([H])n1nc2c(n1)C([H])([H])C1([H])C(=C2[H])C([H])(OC(=O)C([H])([H])[H])C([H])(OC(=O)C([H])([H])[H])C2(C([H])([H])[H])C1([H])C([H])([H])C1(C([H])([H])[H])C([H])(c3c([H])oc([H])c3[H])C([H])([H])C([H])(O[H])C12[H]

$$$$
93:0:2
     RDKit          3D

 76 81  0  0  1  0  0  0  0  0999 V2000
    5.0795    0.1227    3.4527 C   0  0  0  0  0  0  0  0  0  0  0  0
    4.5903   -1.2193    2.9625 C   0  0  0  0  0  0  0  0  0  0  0  0
    3.3954   -1.4362    2.7161 O   0  0  0  0  0  0  0  0  0  0  0  0
    5.6078   -2.1343    2.8464 O   0  0  0  0  0  0  0  0  0  0  0  0
    5.4033   -3.5089    2.5084 C   0  0  2  0  0  0  0  0  0  0  0  0
    4.7857   -3.6192    1.1246 C   0  0  0  0  0  0  0  0  0  0  0  0
    5.4179   -3.0707    0.0899 C   0  0  0  0  0  0  0  0  0  0  0  0
    4.7635   -2.8701   -1.1857 C   0  0  0  0  0  0  0  0  0  0  0  0
    5.1318   -2.1908   -2.2229 N   0  0  0  0  0  0  0  0  0  0  0  0
    4.0459   -2.3003   -3.0324 N   0  0  0  0  0  0  0  0  0  0  0  0
    3.9464   -1.6312   -4.3181 C   0  0  0  0  0  0  0  0  0  0  0  0
    3.2115   -0.3006   -4.2210 C   0  0  2  0  0  0  0  0  0  0  0  0
    3.1455    0.4692   -5.5401 C   0  0  0  0  0  0  0  0  0  0  0  0
    3.9156    0.5317   -3.3449 O   0  0  0  0  0  0  0  0  0  0  0  0
    3.0223   -3.0434   -2.5269 N   0  0  0  0  0  0  0  0  0  0  0  0
    3.4804   -3.4145   -1.3585 C   0  0  0  0  0  0  0  0  0  0  0  0
    2.7739   -4.2854   -0.3721 C   0  0  0  0  0  0  0  0  0  0  0  0
    3.3549   -4.1975    1.0686 C   0  0  1  0  0  0  0  0  0  0  0  0
    3.2312   -5.5435    1.8444 C   0  0  2  0  0  0  0  0  0  0  0  0
    1.7559   -5.8980    2.2388 C   0  0  0  0  0  0  0  0  0  0  0  0
    1.7135   -5.8442    3.7759 C   0  0  1  0  0  0  0  0  0  0  0  0
    1.3766   -4.4000    4.2447 C   0  0  0  0  0  0  0  0  0  0  0  0
    0.8795   -6.8223    4.6435 C   0  0  1  0  0  0  0  0  0  0  0  0
    0.5217   -8.1392    3.9736 C   0  0  0  0  0  0  0  0  0  0  0  0
   -0.5607   -8.3775    3.0809 C   0  0  0  0  0  0  0  0  0  0  0  0
   -0.4876   -9.6951    2.7165 C   0  0  0  0  0  0  0  0  0  0  0  0
    0.5563  -10.3103    3.3231 O   0  0  0  0  0  0  0  0  0  0  0  0
    1.1518   -9.3585    4.0893 C   0  0  0  0  0  0  0  0  0  0  0  0
    1.7342   -6.9770    5.9381 C   0  0  0  0  0  0  0  0  0  0  0  0
    3.1752   -6.5130    5.6000 C   0  0  1  0  0  0  0  0  0  0  0  0
    4.1552   -7.4365    6.0304 O   0  0  0  0  0  0  0  0  0  0  0  0
    3.1129   -6.3742    4.0758 C   0  0  2  0  0  0  0  0  0  0  0  0
    4.1276   -5.6759    3.1333 C   0  0  1  0  0  0  0  0  0  0  0  0
    5.3219   -6.6225    2.8410 C   0  0  0  0  0  0  0  0  0  0  0  0
    4.6382   -4.2836    3.6218 C   0  0  1  0  0  0  0  0  0  0  0  0
    5.4683   -4.4690    4.7893 O   0  0  0  0  0  0  0  0  0  0  0  0
    5.4228   -3.6713    5.9203 C   0  0  0  0  0  0  0  0  0  0  0  0
    4.4546   -2.4735    5.8281 C   0  0  0  0  0  0  0  0  0  0  0  0
    6.1877   -3.8491    6.8828 O   0  0  0  0  0  0  0  0  0  0  0  0
    5.6891    0.6632    2.7207 H   0  0  0  0  0  0  0  0  0  0  0  0
    5.6582   -0.0606    4.3459 H   0  0  0  0  0  0  0  0  0  0  0  0
    4.2121    0.7113    3.7107 H   0  0  0  0  0  0  0  0  0  0  0  0
    6.3859   -3.9632    2.4326 H   0  0  0  0  0  0  0  0  0  0  0  0
    6.3789   -2.5961    0.2320 H   0  0  0  0  0  0  0  0  0  0  0  0
    4.9329   -1.4449   -4.7322 H   0  0  0  0  0  0  0  0  0  0  0  0
    3.4091   -2.2871   -4.9928 H   0  0  0  0  0  0  0  0  0  0  0  0
    2.2071   -0.4564   -3.8195 H   0  0  0  0  0  0  0  0  0  0  0  0
    2.6177   -0.1230   -6.2823 H   0  0  0  0  0  0  0  0  0  0  0  0
    4.1424    0.6960   -5.9245 H   0  0  0  0  0  0  0  0  0  0  0  0
    2.6149    1.4154   -5.4094 H   0  0  0  0  0  0  0  0  0  0  0  0
    3.3149    1.2327   -3.1197 H   0  0  0  0  0  0  0  0  0  0  0  0
    1.7017   -4.0933   -0.3805 H   0  0  0  0  0  0  0  0  0  0  0  0
    2.8904   -5.3103   -0.7083 H   0  0  0  0  0  0  0  0  0  0  0  0
    2.7350   -3.4567    1.5698 H   0  0  0  0  0  0  0  0  0  0  0  0
    3.5477   -6.3198    1.1444 H   0  0  0  0  0  0  0  0  0  0  0  0
    1.0241   -5.2176    1.8016 H   0  0  0  0  0  0  0  0  0  0  0  0
    1.5327   -6.9007    1.8670 H   0  0  0  0  0  0  0  0  0  0  0  0
    1.7342   -4.1948    5.2519 H   0  0  0  0  0  0  0  0  0  0  0  0
    0.3007   -4.2277    4.2587 H   0  0  0  0  0  0  0  0  0  0  0  0
    1.7759   -3.6353    3.5863 H   0  0  0  0  0  0  0  0  0  0  0  0
   -0.0841   -6.3876    4.9061 H   0  0  0  0  0  0  0  0  0  0  0  0
   -1.3049   -7.6792    2.7257 H   0  0  0  0  0  0  0  0  0  0  0  0
   -1.0708  -10.3215    2.0623 H   0  0  0  0  0  0  0  0  0  0  0  0
    2.0093   -9.7133    4.6446 H   0  0  0  0  0  0  0  0  0  0  0  0
    1.3447   -6.3083    6.7042 H   0  0  0  0  0  0  0  0  0  0  0  0
    1.6844   -7.9769    6.3708 H   0  0  0  0  0  0  0  0  0  0  0  0
    3.3709   -5.5495    6.0636 H   0  0  0  0  0  0  0  0  0  0  0  0
    3.9589   -8.2872    5.6682 H   0  0  0  0  0  0  0  0  0  0  0  0
    3.1110   -7.4102    3.7178 H   0  0  0  0  0  0  0  0  0  0  0  0
    5.9077   -6.8059    3.7416 H   0  0  0  0  0  0  0  0  0  0  0  0
    5.9903   -6.2006    2.0902 H   0  0  0  0  0  0  0  0  0  0  0  0
    4.9936   -7.5955    2.4645 H   0  0  0  0  0  0  0  0  0  0  0  0
    3.7584   -3.7148    3.8868 H   0  0  0  0  0  0  0  0  0  0  0  0
    3.4062   -2.7904    5.6969 H   0  0  0  0  0  0  0  0  0  0  0  0
    4.8323   -1.9297    5.0110 H   0  0  0  0  0  0  0  0  0  0  0  0
    4.5163   -1.8254    6.7042 H   0  0  0  0  0  0  0  0  0  0  0  0
  1  2  1  0
  1 40  1  0
  1 41  1  0
  1 42  1  0
  2  3  2  0
  2  4  1  0
  4  5  1  0
  5 35  1  0
  5  6  1  0
  5 43  1  6
  6 18  1  0
  6  7  2  0
  7  8  1  0
  7 44  1  0
  8 16  1  0
  8  9  2  0
  9 10  1  0
 10 11  1  0
 10 15  1  0
 11 12  1  0
 11 45  1  0
 11 46  1  0
 12 13  1  0
 12 14  1  0
 12 47  1  1
 13 48  1  0
 13 49  1  0
 13 50  1  0
 14 51  1  0
 15 16  2  0
 16 17  1  0
 17 18  1  0
 17 52  1  0
 17 53  1  0
 18 19  1  0
 18 54  1  1
 19 33  1  0
 19 20  1  0
 19 55  1  6
 20 21  1  0
 20 56  1  0
 20 57  1  0
 21 32  1  0
 21 22  1  6
 21 23  1  0
 22 58  1  0
 22 59  1  0
 22 60  1  0
 23 24  1  0
 23 29  1  0
 23 61  1  1
 24 28  2  0
 24 25  1  0
 25 26  2  0
 25 62  1  0
 26 27  1  0
 26 63  1  0
 27 28  1  0
 28 64  1  0
 29 30  1  0
 29 65  1  0
 29 66  1  0
 30 31  1  0
 30 32  1  0
 30 67  1  1
 31 68  1  0
 32 33  1  0
 32 69  1  6
 33 34  1  6
 33 35  1  0
 34 70  1  0
 34 71  1  0
 34 72  1  0
 35 36  1  0
 35 73  1  1
 36 37  1  0
 37 38  1  0
 37 39  2  0
 38 74  1  0
 38 75  1  0
 38 76  1  0
M  END
>  <i_m_ct_stereo_status>  (334) 
1

>  <s_m_source_file>  (334) 
/var/tmp/pbs.5076255.sched01/tmpulc5pjk6/123bob0etdf.sdf

>  <i_m_source_file_index>  (334) 
23

>  <i_lp_mmshare_version>  (334) 
48012

>  <i_f3d_flags>  (334) 
0

>  <s_epik_input>  (334) 
W0NIM11bQ0BIXShbT0hdKVtDSDJdbihuMSluYyhbQ0gyXTIpYzFbQ0hdPUMoW0NAQEhdKE9DKD1PKVtDSDNdKVtDQEBIXTNPQyg9TylbQ0gzXSlbQ0BASF0yW0NASF0oW0NIMl00KVtDQF0zKFtDSDNdKVtDQEhdKFtDQEBdNDVbQ0gzXSlbQ0BIXShbT0hdKVtDSDJdW0NAQEhdNWM2W2NIXVtjSF1vW2NIXTY=

>  <s_epik_cmdline>  (334) 
J2VwaWtfcHl0aG9uJywgJy1waHQnLCAnMi4wJywgJy1waCcsICc3LjAnLCAnLXRuJywgJzgnLCAnLW1hJywgJzIwMCcsICctaW1hZScsICc8aW5maWxlLm1hZT4nLCAnLW9tYWUnLCAnPG91dGZpbGUubWFlPic=

>  <r_lp_tautomer_probability>  (334) 
1

>  <r_epik_Ionization_Penalty>  (334) 
5.72419e-07

>  <r_epik_Ionization_Penalty_Charging>  (334) 
0

>  <r_epik_Ionization_Penalty_Neutral>  (334) 
5.72419e-07

>  <r_epik_State_Penalty>  (334) 
-0

>  <r_epik_Charging_Adjusted_Penalty>  (334) 
0

>  <i_epik_Tot_Q>  (334) 
0

>  <i_epik_Tot_abs_Q>  (334) 
0

>  <s_epik_Chemistry_Notes>  (334) 
This compound has an ester and may undergo hydrolysis at high or low pH.

>  <s_lp_Force_Field>  (334) 
OPLS3e

>  <r_lp_Energy>  (334) 
46.5426

>  <b_lp_Chiralities_Consistent>  (334) 
1

>  <s_lp_Variant>  (334) 
93:0-1

>  <s_i_glide_gridfile>  (334) 
pfpi4k_grid

>  <i_i_glide_lignum>  (334) 
23

>  <i_i_glide_rotatable_bonds>  (334) 
9

>  <r_i_docking_score>  (334) 
-2.79222

>  <r_i_glide_ligand_efficiency>  (334) 
-0.0715955

>  <r_i_glide_ligand_efficiency_sa>  (334) 
-0.242795

>  <r_i_glide_ligand_efficiency_ln>  (334) 
-0.598732

>  <r_i_glide_gscore>  (334) 
-2.79222

>  <r_i_glide_lipo>  (334) 
-0.878998

>  <r_i_glide_hbond>  (334) 
-0.32

>  <r_i_glide_metal>  (334) 
-0

>  <r_i_glide_rewards>  (334) 
-0.273423

>  <r_i_glide_evdw>  (334) 
-28.4308

>  <r_i_glide_ecoul>  (334) 
-1.68786

>  <r_i_glide_erotb>  (334) 
0.354916

>  <r_i_glide_esite>  (334) 
0

>  <r_i_glide_emodel>  (334) 
-32.3757

>  <r_i_glide_energy>  (334) 
-30.1187

>  <r_i_glide_einternal>  (334) 
6.95482

>  <r_i_glide_intrahb_reward>  (334) 
-0

>  <i_i_glide_confnum>  (334) 
4

>  <i_i_glide_posenum>  (334) 
19

>  <r_i_glide_eff_state_penalty>  (334) 
0

>  <ligand_id>  (334) 
93

>  <original_smiles>  (334) 
CC(=O)OC1C2=Cc3nn(CC(C)O)nc3CC2C2CC3(C)C(c4ccoc4)CC(O)C3C2(C)C1OC(C)=O

>  <smiles>  (334) 
[H]OC([H])(C([H])([H])[H])C([H])([H])n1nc2c(n1)C([H])([H])C1([H])C(=C2[H])C([H])(OC(=O)C([H])([H])[H])C([H])(OC(=O)C([H])([H])[H])C2(C([H])([H])[H])C1([H])C([H])([H])C1(C([H])([H])[H])C([H])(c3c([H])oc([H])c3[H])C([H])([H])C([H])(O[H])C12[H]

$$$$
94:0:0
     RDKit          3D

 69 72  0  0  1  0  0  0  0  0999 V2000
   -1.8525    3.2024    3.5216 C   0  0  0  0  0  0  0  0  0  0  0  0
   -1.1321    3.0026    4.6480 C   0  0  0  0  0  0  0  0  0  0  0  0
   -0.2273    4.0683    5.1167 C   0  0  0  0  0  0  0  0  0  0  0  0
   -0.3800    5.2512    4.8180 O   0  0  0  0  0  0  0  0  0  0  0  0
    0.8675    3.6576    5.9924 C   0  0  0  0  0  0  0  0  0  0  0  0
    1.0480    2.3614    6.3564 C   0  0  0  0  0  0  0  0  0  0  0  0
    2.2390    1.7887    7.1569 C   0  0  1  0  0  0  0  0  0  0  0  0
    3.4637    2.7468    7.0890 C   0  0  0  0  0  0  0  0  0  0  0  0
    1.8583    1.7384    8.6698 C   0  0  1  0  0  0  0  0  0  0  0  0
    1.3203    2.9777    9.1113 O   0  0  0  0  0  0  0  0  0  0  0  0
    0.8429    0.6558    9.0356 C   0  0  0  0  0  0  0  0  0  0  0  0
    1.3282   -0.7282    8.6290 C   0  0  1  0  0  0  0  0  0  0  0  0
    0.2609   -1.6139    8.9171 O   0  0  0  0  0  0  0  0  0  0  0  0
    1.7310   -0.8287    7.1312 C   0  0  2  0  0  0  0  0  0  0  0  0
    2.4106   -2.1711    6.7588 C   0  0  1  0  0  0  0  0  0  0  0  0
    1.7915   -3.3016    7.3406 O   0  0  0  0  0  0  0  0  0  0  0  0
    2.2914   -2.3376    5.2481 C   0  0  0  0  0  0  0  0  0  0  0  0
    3.0262   -1.2246    4.4722 C   0  0  1  0  0  0  0  0  0  0  0  0
    2.4062   -0.8321    3.0972 C   0  0  0  0  0  0  0  0  0  0  0  0
    2.6603   -1.8936    2.0007 C   0  0  0  0  0  0  0  0  0  0  0  0
    0.8946   -0.5874    3.1664 C   0  0  0  0  0  0  0  0  0  0  0  0
    3.1558    0.4785    2.8093 C   0  0  1  0  0  0  0  0  0  0  0  0
    2.5745    1.2814    1.7933 O   0  0  0  0  0  0  0  0  0  0  0  0
    3.1792    1.1917    4.1638 C   0  0  0  0  0  0  0  0  0  0  0  0
    3.3929    0.1009    5.2513 C   0  0  2  0  0  0  0  0  0  0  0  0
    4.9327    0.0338    5.5003 C   0  0  0  0  0  0  0  0  0  0  0  0
    2.6879    0.3258    6.6884 C   0  0  1  0  0  0  0  0  0  0  0  0
    0.1988    1.3615    5.9667 O   0  0  0  0  0  0  0  0  0  0  0  0
   -1.1080    1.7135    5.4970 C   0  0  0  0  0  0  0  0  0  0  0  0
   -1.9909    1.8999    6.7338 C   0  0  0  0  0  0  0  0  0  0  0  0
   -1.5572    0.5005    4.6794 C   0  0  0  0  0  0  0  0  0  0  0  0
   -2.5160    2.4415    3.1167 H   0  0  0  0  0  0  0  0  0  0  0  0
   -1.7871    4.1119    2.9438 H   0  0  0  0  0  0  0  0  0  0  0  0
    1.5609    4.4189    6.3152 H   0  0  0  0  0  0  0  0  0  0  0  0
    4.3111    2.3571    7.6476 H   0  0  0  0  0  0  0  0  0  0  0  0
    3.2509    3.7250    7.5243 H   0  0  0  0  0  0  0  0  0  0  0  0
    3.7990    2.9405    6.0757 H   0  0  0  0  0  0  0  0  0  0  0  0
    2.7555    1.5559    9.2636 H   0  0  0  0  0  0  0  0  0  0  0  0
    1.1330    2.9270   10.0358 H   0  0  0  0  0  0  0  0  0  0  0  0
    0.6809    0.6617   10.1182 H   0  0  0  0  0  0  0  0  0  0  0  0
   -0.1320    0.8800    8.5961 H   0  0  0  0  0  0  0  0  0  0  0  0
    2.1747   -1.0123    9.2553 H   0  0  0  0  0  0  0  0  0  0  0  0
    0.6124   -2.4916    8.8165 H   0  0  0  0  0  0  0  0  0  0  0  0
    0.8022   -0.7899    6.5625 H   0  0  0  0  0  0  0  0  0  0  0  0
    3.4564   -2.1748    7.0680 H   0  0  0  0  0  0  0  0  0  0  0  0
    2.2975   -4.0683    7.1159 H   0  0  0  0  0  0  0  0  0  0  0  0
    2.6993   -3.2924    4.9510 H   0  0  0  0  0  0  0  0  0  0  0  0
    1.2261   -2.4096    4.9949 H   0  0  0  0  0  0  0  0  0  0  0  0
    3.9737   -1.7042    4.2087 H   0  0  0  0  0  0  0  0  0  0  0  0
    2.2433   -1.5607    1.0437 H   0  0  0  0  0  0  0  0  0  0  0  0
    2.1588   -2.8314    2.2520 H   0  0  0  0  0  0  0  0  0  0  0  0
    3.7229   -2.0963    1.8536 H   0  0  0  0  0  0  0  0  0  0  0  0
    0.5351   -0.1229    2.2501 H   0  0  0  0  0  0  0  0  0  0  0  0
    0.6694    0.0711    3.9883 H   0  0  0  0  0  0  0  0  0  0  0  0
    0.3372   -1.5112    3.3064 H   0  0  0  0  0  0  0  0  0  0  0  0
    4.1735    0.2504    2.5112 H   0  0  0  0  0  0  0  0  0  0  0  0
    1.7065    1.5391    2.0601 H   0  0  0  0  0  0  0  0  0  0  0  0
    3.9601    1.9432    4.1543 H   0  0  0  0  0  0  0  0  0  0  0  0
    2.2434    1.7318    4.2899 H   0  0  0  0  0  0  0  0  0  0  0  0
    5.3144    0.9312    5.9832 H   0  0  0  0  0  0  0  0  0  0  0  0
    5.4866   -0.0779    4.5676 H   0  0  0  0  0  0  0  0  0  0  0  0
    5.2004   -0.8163    6.1283 H   0  0  0  0  0  0  0  0  0  0  0  0
    3.5077    0.1479    7.3876 H   0  0  0  0  0  0  0  0  0  0  0  0
   -3.0227    2.1670    6.4619 H   0  0  0  0  0  0  0  0  0  0  0  0
   -1.5951    2.6834    7.3848 H   0  0  0  0  0  0  0  0  0  0  0  0
   -2.0158    0.9643    7.3031 H   0  0  0  0  0  0  0  0  0  0  0  0
   -2.6144    0.5669    4.5357 H   0  0  0  0  0  0  0  0  0  0  0  0
   -1.3945   -0.4306    5.2063 H   0  0  0  0  0  0  0  0  0  0  0  0
   -1.0831    0.4834    3.7044 H   0  0  0  0  0  0  0  0  0  0  0  0
  1  2  2  0
  1 32  1  0
  1 33  1  0
  2 29  1  0
  2  3  1  0
  3  4  2  0
  3  5  1  0
  5  6  2  0
  5 34  1  0
  6  7  1  0
  6 28  1  0
  7 27  1  0
  7  8  1  1
  7  9  1  0
  8 35  1  0
  8 36  1  0
  8 37  1  0
  9 10  1  0
  9 11  1  0
  9 38  1  1
 10 39  1  0
 11 12  1  0
 11 40  1  0
 11 41  1  0
 12 13  1  0
 12 14  1  0
 12 42  1  1
 13 43  1  0
 14 27  1  0
 14 15  1  0
 14 44  1  6
 15 16  1  0
 15 17  1  0
 15 45  1  6
 16 46  1  0
 17 18  1  0
 17 47  1  0
 17 48  1  0
 18 25  1  0
 18 19  1  0
 18 49  1  6
 19 20  1  0
 19 21  1  0
 19 22  1  0
 20 50  1  0
 20 51  1  0
 20 52  1  0
 21 53  1  0
 21 54  1  0
 21 55  1  0
 22 23  1  0
 22 24  1  0
 22 56  1  6
 23 57  1  0
 24 25  1  0
 24 58  1  0
 24 59  1  0
 25 26  1  1
 25 27  1  0
 26 60  1  0
 26 61  1  0
 26 62  1  0
 27 63  1  1
 28 29  1  0
 29 30  1  0
 29 31  1  0
 30 64  1  0
 30 65  1  0
 30 66  1  0
 31 67  1  0
 31 68  1  0
 31 69  1  0
M  END
>  <i_m_ct_stereo_status>  (335) 
1

>  <s_m_source_file>  (335) 
/var/tmp/pbs.5076255.sched01/tmpulc5pjk6/123bob0etdf.sdf

>  <i_m_source_file_index>  (335) 
24

>  <i_lp_mmshare_version>  (335) 
48012

>  <i_f3d_flags>  (335) 
0

>  <s_epik_input>  (335) 
W0NIM11DMShbQ0gzXSlDKD1bQ0gyXSlDKD1PKVtDSF09QyhPMSlbQ0BAXShbQ0gzXSkoW0NAQEhdKFtPSF0pW0NIMl1bQ0BIXTJbT0hdKVtDQEhdM1tDQEhdMltDQEBIXShbT0hdKVtDSDJdW0NASF0oW0NAXTM0W0NIM10pQyhbQ0gzXSkoW0NIM10pW0NAQEhdKFtPSF0pW0NIMl00

>  <s_epik_cmdline>  (335) 
J2VwaWtfcHl0aG9uJywgJy1waHQnLCAnMi4wJywgJy1waCcsICc3LjAnLCAnLXRuJywgJzgnLCAnLW1hJywgJzIwMCcsICctaW1hZScsICc8aW5maWxlLm1hZT4nLCAnLW9tYWUnLCAnPG91dGZpbGUubWFlPic=

>  <r_lp_tautomer_probability>  (335) 
1

>  <r_epik_Ionization_Penalty>  (335) 
2.19591e-06

>  <r_epik_Ionization_Penalty_Charging>  (335) 
0

>  <r_epik_Ionization_Penalty_Neutral>  (335) 
2.19591e-06

>  <r_epik_State_Penalty>  (335) 
-0

>  <r_epik_Charging_Adjusted_Penalty>  (335) 
0

>  <i_epik_Tot_Q>  (335) 
0

>  <i_epik_Tot_abs_Q>  (335) 
0

>  <s_lp_Force_Field>  (335) 
OPLS3e

>  <r_lp_Energy>  (335) 
47.2085

>  <b_lp_Chiralities_Consistent>  (335) 
1

>  <s_lp_Variant>  (335) 
94:0-1

>  <s_i_glide_gridfile>  (335) 
pfpi4k_grid

>  <i_i_glide_lignum>  (335) 
24

>  <i_i_glide_rotatable_bonds>  (335) 
5

>  <r_i_docking_score>  (335) 
-2.62457

>  <r_i_glide_ligand_efficiency>  (335) 
-0.0846634

>  <r_i_glide_ligand_efficiency_sa>  (335) 
-0.26596

>  <r_i_glide_ligand_efficiency_ln>  (335) 
-0.59192

>  <r_i_glide_gscore>  (335) 
-2.62457

>  <r_i_glide_lipo>  (335) 
-0.0687556

>  <r_i_glide_hbond>  (335) 
0

>  <r_i_glide_metal>  (335) 
-0

>  <r_i_glide_rewards>  (335) 
-0.946143

>  <r_i_glide_evdw>  (335) 
-21.5171

>  <r_i_glide_ecoul>  (335) 
-4.1073

>  <r_i_glide_erotb>  (335) 
0.105465

>  <r_i_glide_esite>  (335) 
-0.0231824

>  <r_i_glide_emodel>  (335) 
-33.0741

>  <r_i_glide_energy>  (335) 
-25.6244

>  <r_i_glide_einternal>  (335) 
1.14529

>  <r_i_glide_intrahb_reward>  (335) 
-0.5

>  <i_i_glide_confnum>  (335) 
4

>  <i_i_glide_posenum>  (335) 
20

>  <r_i_glide_eff_state_penalty>  (335) 
0

>  <ligand_id>  (335) 
94

>  <original_smiles>  (335) 
C=C1C(=O)C=C(C2(C)C(O)CC(O)C3C(O)CC4C(C)(C)C(O)CC4(C)C32)OC1(C)C

>  <smiles>  (335) 
[H]OC1([H])C([H])([H])C([H])(O[H])C(C2=C([H])C(=O)C(=C([H])[H])C(C([H])([H])[H])(C([H])([H])[H])O2)(C([H])([H])[H])C2([H])C1([H])C([H])(O[H])C([H])([H])C1([H])C(C([H])([H])[H])(C([H])([H])[H])C([H])(O[H])C([H])([H])C21C([H])([H])[H]

$$$$
94:0:1
     RDKit          3D

 69 72  0  0  1  0  0  0  0  0999 V2000
    0.0656    5.7630    3.3339 C   0  0  0  0  0  0  0  0  0  0  0  0
    0.6085    4.6923    3.9725 C   0  0  0  0  0  0  0  0  0  0  0  0
   -0.2289    3.8659    4.8236 C   0  0  0  0  0  0  0  0  0  0  0  0
   -1.4669    3.8576    4.7686 O   0  0  0  0  0  0  0  0  0  0  0  0
    0.4613    3.0293    5.7910 C   0  0  0  0  0  0  0  0  0  0  0  0
    1.8130    3.0623    5.9388 C   0  0  0  0  0  0  0  0  0  0  0  0
    2.6487    2.3221    7.0186 C   0  0  1  0  0  0  0  0  0  0  0  0
    4.1580    2.6940    6.8869 C   0  0  0  0  0  0  0  0  0  0  0  0
    2.2647    2.8395    8.4510 C   0  0  1  0  0  0  0  0  0  0  0  0
    2.2711    4.2555    8.5158 O   0  0  0  0  0  0  0  0  0  0  0  0
    0.9038    2.3699    8.9761 C   0  0  0  0  0  0  0  0  0  0  0  0
    0.7792    0.8466    8.9293 C   0  0  1  0  0  0  0  0  0  0  0  0
   -0.5752    0.6097    9.2594 O   0  0  0  0  0  0  0  0  0  0  0  0
    1.1365    0.2089    7.5495 C   0  0  2  0  0  0  0  0  0  0  0  0
    1.2249   -1.3366    7.5887 C   0  0  1  0  0  0  0  0  0  0  0  0
    0.2065   -1.9815    8.3327 O   0  0  0  0  0  0  0  0  0  0  0  0
    1.0811   -1.8446    6.1589 C   0  0  0  0  0  0  0  0  0  0  0  0
    2.2029   -1.3379    5.2444 C   0  0  1  0  0  0  0  0  0  0  0  0
    1.7988   -1.0910    3.7588 C   0  0  0  0  0  0  0  0  0  0  0  0
    1.6281   -2.4073    2.9842 C   0  0  0  0  0  0  0  0  0  0  0  0
    0.5038   -0.2475    3.5910 C   0  0  0  0  0  0  0  0  0  0  0  0
    3.0358   -0.3382    3.2696 C   0  0  1  0  0  0  0  0  0  0  0  0
    2.8666    0.3170    2.0346 O   0  0  0  0  0  0  0  0  0  0  0  0
    3.3524    0.6163    4.4228 C   0  0  0  0  0  0  0  0  0  0  0  0
    3.0866   -0.1333    5.7537 C   0  0  2  0  0  0  0  0  0  0  0  0
    4.4665   -0.7240    6.1994 C   0  0  0  0  0  0  0  0  0  0  0  0
    2.4959    0.7344    6.9830 C   0  0  1  0  0  0  0  0  0  0  0  0
    2.6161    3.8033    5.0929 O   0  0  0  0  0  0  0  0  0  0  0  0
    2.0718    4.2907    3.8518 C   0  0  0  0  0  0  0  0  0  0  0  0
    2.1813    3.1954    2.7811 C   0  0  0  0  0  0  0  0  0  0  0  0
    2.9932    5.4678    3.4670 C   0  0  0  0  0  0  0  0  0  0  0  0
    0.6407    6.4083    2.6957 H   0  0  0  0  0  0  0  0  0  0  0  0
   -0.9803    5.9904    3.4281 H   0  0  0  0  0  0  0  0  0  0  0  0
   -0.1619    2.4230    6.4223 H   0  0  0  0  0  0  0  0  0  0  0  0
    4.7659    2.1835    7.6306 H   0  0  0  0  0  0  0  0  0  0  0  0
    4.3224    3.7602    7.0267 H   0  0  0  0  0  0  0  0  0  0  0  0
    4.5697    2.4554    5.9134 H   0  0  0  0  0  0  0  0  0  0  0  0
    3.0067    2.4877    9.1656 H   0  0  0  0  0  0  0  0  0  0  0  0
    2.0970    4.5285    9.4007 H   0  0  0  0  0  0  0  0  0  0  0  0
    0.7739    2.7095   10.0089 H   0  0  0  0  0  0  0  0  0  0  0  0
    0.0891    2.8561    8.4409 H   0  0  0  0  0  0  0  0  0  0  0  0
    1.4184    0.4176    9.6992 H   0  0  0  0  0  0  0  0  0  0  0  0
   -0.7195    0.8907   10.1545 H   0  0  0  0  0  0  0  0  0  0  0  0
    0.3287    0.4480    6.8618 H   0  0  0  0  0  0  0  0  0  0  0  0
    2.1700   -1.6512    8.0207 H   0  0  0  0  0  0  0  0  0  0  0  0
    0.5239   -2.8386    8.5740 H   0  0  0  0  0  0  0  0  0  0  0  0
    1.0769   -2.9334    6.1536 H   0  0  0  0  0  0  0  0  0  0  0  0
    0.0856   -1.5641    5.7993 H   0  0  0  0  0  0  0  0  0  0  0  0
    2.8653   -2.1986    5.1968 H   0  0  0  0  0  0  0  0  0  0  0  0
    1.4218   -2.2167    1.9282 H   0  0  0  0  0  0  0  0  0  0  0  0
    0.7980   -2.9948    3.3777 H   0  0  0  0  0  0  0  0  0  0  0  0
    2.5278   -3.0224    3.0331 H   0  0  0  0  0  0  0  0  0  0  0  0
    0.3530    0.0653    2.5560 H   0  0  0  0  0  0  0  0  0  0  0  0
    0.4957    0.6527    4.2044 H   0  0  0  0  0  0  0  0  0  0  0  0
   -0.3942   -0.8126    3.8413 H   0  0  0  0  0  0  0  0  0  0  0  0
    3.8575   -1.0615    3.1395 H   0  0  0  0  0  0  0  0  0  0  0  0
    2.4968   -0.2804    1.4096 H   0  0  0  0  0  0  0  0  0  0  0  0
    4.3858    0.9689    4.3443 H   0  0  0  0  0  0  0  0  0  0  0  0
    2.6840    1.4320    4.3611 H   0  0  0  0  0  0  0  0  0  0  0  0
    5.1533    0.0678    6.4880 H   0  0  0  0  0  0  0  0  0  0  0  0
    4.9447   -1.2695    5.3907 H   0  0  0  0  0  0  0  0  0  0  0  0
    4.3662   -1.4054    7.0409 H   0  0  0  0  0  0  0  0  0  0  0  0
    3.1513    0.4587    7.7988 H   0  0  0  0  0  0  0  0  0  0  0  0
    1.8723    3.5367    1.7908 H   0  0  0  0  0  0  0  0  0  0  0  0
    1.5901    2.3426    3.0844 H   0  0  0  0  0  0  0  0  0  0  0  0
    3.2036    2.8619    2.7136 H   0  0  0  0  0  0  0  0  0  0  0  0
    2.8087    5.7909    2.4436 H   0  0  0  0  0  0  0  0  0  0  0  0
    4.0248    5.1493    3.5284 H   0  0  0  0  0  0  0  0  0  0  0  0
    2.8621    6.3149    4.1465 H   0  0  0  0  0  0  0  0  0  0  0  0
  1  2  2  0
  1 32  1  0
  1 33  1  0
  2 29  1  0
  2  3  1  0
  3  4  2  0
  3  5  1  0
  5  6  2  0
  5 34  1  0
  6  7  1  0
  6 28  1  0
  7 27  1  0
  7  8  1  6
  7  9  1  0
  8 35  1  0
  8 36  1  0
  8 37  1  0
  9 10  1  0
  9 11  1  0
  9 38  1  1
 10 39  1  0
 11 12  1  0
 11 40  1  0
 11 41  1  0
 12 13  1  0
 12 14  1  0
 12 42  1  1
 13 43  1  0
 14 27  1  0
 14 15  1  0
 14 44  1  6
 15 16  1  0
 15 17  1  0
 15 45  1  1
 16 46  1  0
 17 18  1  0
 17 47  1  0
 17 48  1  0
 18 25  1  0
 18 19  1  0
 18 49  1  6
 19 20  1  0
 19 21  1  0
 19 22  1  0
 20 50  1  0
 20 51  1  0
 20 52  1  0
 21 53  1  0
 21 54  1  0
 21 55  1  0
 22 23  1  0
 22 24  1  0
 22 56  1  6
 23 57  1  0
 24 25  1  0
 24 58  1  0
 24 59  1  0
 25 26  1  1
 25 27  1  0
 26 60  1  0
 26 61  1  0
 26 62  1  0
 27 63  1  1
 28 29  1  0
 29 30  1  0
 29 31  1  0
 30 64  1  0
 30 65  1  0
 30 66  1  0
 31 67  1  0
 31 68  1  0
 31 69  1  0
M  END
>  <i_m_ct_stereo_status>  (336) 
1

>  <s_m_source_file>  (336) 
/var/tmp/pbs.5076255.sched01/tmpulc5pjk6/123bob0etdf.sdf

>  <i_m_source_file_index>  (336) 
24

>  <i_lp_mmshare_version>  (336) 
48012

>  <i_f3d_flags>  (336) 
0

>  <s_epik_input>  (336) 
W0NIM11DMShbQ0gzXSlDKD1bQ0gyXSlDKD1PKVtDSF09QyhPMSlbQ0BAXShbQ0gzXSkoW0NAQEhdKFtPSF0pW0NIMl1bQ0BIXTJbT0hdKVtDQEhdM1tDQEhdMltDQEBIXShbT0hdKVtDSDJdW0NASF0oW0NAXTM0W0NIM10pQyhbQ0gzXSkoW0NIM10pW0NAQEhdKFtPSF0pW0NIMl00

>  <s_epik_cmdline>  (336) 
J2VwaWtfcHl0aG9uJywgJy1waHQnLCAnMi4wJywgJy1waCcsICc3LjAnLCAnLXRuJywgJzgnLCAnLW1hJywgJzIwMCcsICctaW1hZScsICc8aW5maWxlLm1hZT4nLCAnLW9tYWUnLCAnPG91dGZpbGUubWFlPic=

>  <r_lp_tautomer_probability>  (336) 
1

>  <r_epik_Ionization_Penalty>  (336) 
2.19591e-06

>  <r_epik_Ionization_Penalty_Charging>  (336) 
0

>  <r_epik_Ionization_Penalty_Neutral>  (336) 
2.19591e-06

>  <r_epik_State_Penalty>  (336) 
-0

>  <r_epik_Charging_Adjusted_Penalty>  (336) 
0

>  <i_epik_Tot_Q>  (336) 
0

>  <i_epik_Tot_abs_Q>  (336) 
0

>  <s_lp_Force_Field>  (336) 
OPLS3e

>  <r_lp_Energy>  (336) 
47.2085

>  <b_lp_Chiralities_Consistent>  (336) 
1

>  <s_lp_Variant>  (336) 
94:0-1

>  <s_i_glide_gridfile>  (336) 
pfpi4k_grid

>  <i_i_glide_lignum>  (336) 
24

>  <i_i_glide_rotatable_bonds>  (336) 
5

>  <r_i_docking_score>  (336) 
-2.2757

>  <r_i_glide_ligand_efficiency>  (336) 
-0.0734096

>  <r_i_glide_ligand_efficiency_sa>  (336) 
-0.230608

>  <r_i_glide_ligand_efficiency_ln>  (336) 
-0.51324

>  <r_i_glide_gscore>  (336) 
-2.2757

>  <r_i_glide_lipo>  (336) 
-0.108281

>  <r_i_glide_hbond>  (336) 
0

>  <r_i_glide_metal>  (336) 
-0

>  <r_i_glide_rewards>  (336) 
-0.446143

>  <r_i_glide_evdw>  (336) 
-19.7035

>  <r_i_glide_ecoul>  (336) 
-5.41867

>  <r_i_glide_erotb>  (336) 
0.105465

>  <r_i_glide_esite>  (336) 
-0.0287636

>  <r_i_glide_emodel>  (336) 
-26.7325

>  <r_i_glide_energy>  (336) 
-25.1222

>  <r_i_glide_einternal>  (336) 
2.18455

>  <r_i_glide_intrahb_reward>  (336) 
-0

>  <i_i_glide_confnum>  (336) 
4

>  <i_i_glide_posenum>  (336) 
5

>  <r_i_glide_eff_state_penalty>  (336) 
0

>  <ligand_id>  (336) 
94

>  <original_smiles>  (336) 
C=C1C(=O)C=C(C2(C)C(O)CC(O)C3C(O)CC4C(C)(C)C(O)CC4(C)C32)OC1(C)C

>  <smiles>  (336) 
[H]OC1([H])C([H])([H])C([H])(O[H])C(C2=C([H])C(=O)C(=C([H])[H])C(C([H])([H])[H])(C([H])([H])[H])O2)(C([H])([H])[H])C2([H])C1([H])C([H])(O[H])C([H])([H])C1([H])C(C([H])([H])[H])(C([H])([H])[H])C([H])(O[H])C([H])([H])C21C([H])([H])[H]

$$$$
94:0:2
     RDKit          3D

 69 72  0  0  1  0  0  0  0  0999 V2000
   -1.9790    2.9824    3.3299 C   0  0  0  0  0  0  0  0  0  0  0  0
   -1.2505    2.9386    4.4593 C   0  0  0  0  0  0  0  0  0  0  0  0
   -0.3547    4.0777    4.7907 C   0  0  0  0  0  0  0  0  0  0  0  0
   -0.5299    5.2142    4.3552 O   0  0  0  0  0  0  0  0  0  0  0  0
    0.7543    3.8129    5.7014 C   0  0  0  0  0  0  0  0  0  0  0  0
    0.9751    2.5762    6.1986 C   0  0  0  0  0  0  0  0  0  0  0  0
    2.2007    2.1603    7.0438 C   0  0  1  0  0  0  0  0  0  0  0  0
    3.3949    3.1358    6.8191 C   0  0  0  0  0  0  0  0  0  0  0  0
    1.8455    2.3146    8.5619 C   0  0  1  0  0  0  0  0  0  0  0  0
    1.2826    3.5855    8.8443 O   0  0  0  0  0  0  0  0  0  0  0  0
    0.8716    1.2633    9.0953 C   0  0  0  0  0  0  0  0  0  0  0  0
    1.3821   -0.1615    8.8671 C   0  0  1  0  0  0  0  0  0  0  0  0
    0.3155   -0.9948    9.2966 O   0  0  0  0  0  0  0  0  0  0  0  0
    1.7679   -0.4510    7.3866 C   0  0  2  0  0  0  0  0  0  0  0  0
    2.4871   -1.8087    7.1825 C   0  0  1  0  0  0  0  0  0  0  0  0
    1.9506   -2.8782    7.9318 O   0  0  0  0  0  0  0  0  0  0  0  0
    2.3311   -2.1833    5.7107 C   0  0  0  0  0  0  0  0  0  0  0  0
    3.0213   -1.1685    4.7704 C   0  0  1  0  0  0  0  0  0  0  0  0
    2.3732   -0.9874    3.3657 C   0  0  0  0  0  0  0  0  0  0  0  0
    2.6310   -2.1781    2.4188 C   0  0  0  0  0  0  0  0  0  0  0  0
    0.8643   -0.7745    3.4435 C   0  0  0  0  0  0  0  0  0  0  0  0
    3.0734    0.2968    2.8922 C   0  0  1  0  0  0  0  0  0  0  0  0
    2.4674    0.9390    1.7842 O   0  0  0  0  0  0  0  0  0  0  0  0
    3.1042    1.1921    4.1392 C   0  0  0  0  0  0  0  0  0  0  0  0
    3.3724    0.2614    5.3611 C   0  0  2  0  0  0  0  0  0  0  0  0
    4.9151    0.2662    5.5811 C   0  0  0  0  0  0  0  0  0  0  0  0
    2.6885    0.6619    6.7727 C   0  0  1  0  0  0  0  0  0  0  0  0
    0.1496    1.5082    5.9148 O   0  0  0  0  0  0  0  0  0  0  0  0
   -1.1799    1.7487    5.4296 C   0  0  0  0  0  0  0  0  0  0  0  0
   -2.0316    2.0426    6.6749 C   0  0  0  0  0  0  0  0  0  0  0  0
   -1.6523    0.4380    4.7525 C   0  0  0  0  0  0  0  0  0  0  0  0
   -2.6086    2.1537    3.0196 H   0  0  0  0  0  0  0  0  0  0  0  0
   -1.9561    3.8317    2.6506 H   0  0  0  0  0  0  0  0  0  0  0  0
    1.4031    4.6516    5.9260 H   0  0  0  0  0  0  0  0  0  0  0  0
    4.2660    2.8483    7.4102 H   0  0  0  0  0  0  0  0  0  0  0  0
    3.1640    4.1588    7.1192 H   0  0  0  0  0  0  0  0  0  0  0  0
    3.7134    3.1955    5.7829 H   0  0  0  0  0  0  0  0  0  0  0  0
    2.7611    2.2395    9.1532 H   0  0  0  0  0  0  0  0  0  0  0  0
    1.1138    3.6522    9.7748 H   0  0  0  0  0  0  0  0  0  0  0  0
    0.7416    1.4137   10.1689 H   0  0  0  0  0  0  0  0  0  0  0  0
   -0.1184    1.4002    8.6599 H   0  0  0  0  0  0  0  0  0  0  0  0
    2.2523   -0.3377    9.5021 H   0  0  0  0  0  0  0  0  0  0  0  0
    0.2378   -0.9201   10.2401 H   0  0  0  0  0  0  0  0  0  0  0  0
    0.8347   -0.5019    6.8319 H   0  0  0  0  0  0  0  0  0  0  0  0
    3.5436   -1.7406    7.4552 H   0  0  0  0  0  0  0  0  0  0  0  0
    2.1559   -2.7383    8.8456 H   0  0  0  0  0  0  0  0  0  0  0  0
    2.7646   -3.1642    5.5363 H   0  0  0  0  0  0  0  0  0  0  0  0
    1.2684   -2.3218    5.4992 H   0  0  0  0  0  0  0  0  0  0  0  0
    3.9811   -1.6512    4.5509 H   0  0  0  0  0  0  0  0  0  0  0  0
    2.1874   -1.9850    1.4355 H   0  0  0  0  0  0  0  0  0  0  0  0
    2.1612   -3.0840    2.8144 H   0  0  0  0  0  0  0  0  0  0  0  0
    3.7028   -2.3644    2.2863 H   0  0  0  0  0  0  0  0  0  0  0  0
    0.4557   -0.4304    2.4880 H   0  0  0  0  0  0  0  0  0  0  0  0
    0.6368   -0.0144    4.1829 H   0  0  0  0  0  0  0  0  0  0  0  0
    0.3196   -1.6789    3.7239 H   0  0  0  0  0  0  0  0  0  0  0  0
    4.1009    0.0567    2.5997 H   0  0  0  0  0  0  0  0  0  0  0  0
    1.5750    1.1856    2.0019 H   0  0  0  0  0  0  0  0  0  0  0  0
    3.8688    1.9567    4.0132 H   0  0  0  0  0  0  0  0  0  0  0  0
    2.1580    1.7189    4.2120 H   0  0  0  0  0  0  0  0  0  0  0  0
    5.2841    1.2298    5.9290 H   0  0  0  0  0  0  0  0  0  0  0  0
    5.4580    0.0442    4.6609 H   0  0  0  0  0  0  0  0  0  0  0  0
    5.2238   -0.4831    6.3127 H   0  0  0  0  0  0  0  0  0  0  0  0
    3.5249    0.6036    7.4727 H   0  0  0  0  0  0  0  0  0  0  0  0
   -3.0640    2.2367    6.3879 H   0  0  0  0  0  0  0  0  0  0  0  0
   -1.6574    2.9163    7.2196 H   0  0  0  0  0  0  0  0  0  0  0  0
   -2.0087    1.1867    7.3477 H   0  0  0  0  0  0  0  0  0  0  0  0
   -2.7288    0.4070    4.5729 H   0  0  0  0  0  0  0  0  0  0  0  0
   -1.3859   -0.4129    5.3784 H   0  0  0  0  0  0  0  0  0  0  0  0
   -1.1486    0.3259    3.8007 H   0  0  0  0  0  0  0  0  0  0  0  0
  1  2  2  0
  1 32  1  0
  1 33  1  0
  2 29  1  0
  2  3  1  0
  3  4  2  0
  3  5  1  0
  5  6  2  0
  5 34  1  0
  6  7  1  0
  6 28  1  0
  7 27  1  0
  7  8  1  6
  7  9  1  0
  8 35  1  0
  8 36  1  0
  8 37  1  0
  9 10  1  0
  9 11  1  0
  9 38  1  1
 10 39  1  0
 11 12  1  0
 11 40  1  0
 11 41  1  0
 12 13  1  0
 12 14  1  0
 12 42  1  1
 13 43  1  0
 14 27  1  0
 14 15  1  0
 14 44  1  6
 15 16  1  0
 15 17  1  0
 15 45  1  1
 16 46  1  0
 17 18  1  0
 17 47  1  0
 17 48  1  0
 18 25  1  0
 18 19  1  0
 18 49  1  6
 19 20  1  0
 19 21  1  0
 19 22  1  0
 20 50  1  0
 20 51  1  0
 20 52  1  0
 21 53  1  0
 21 54  1  0
 21 55  1  0
 22 23  1  0
 22 24  1  0
 22 56  1  6
 23 57  1  0
 24 25  1  0
 24 58  1  0
 24 59  1  0
 25 26  1  1
 25 27  1  0
 26 60  1  0
 26 61  1  0
 26 62  1  0
 27 63  1  1
 28 29  1  0
 29 30  1  0
 29 31  1  0
 30 64  1  0
 30 65  1  0
 30 66  1  0
 31 67  1  0
 31 68  1  0
 31 69  1  0
M  END
>  <i_m_ct_stereo_status>  (337) 
1

>  <s_m_source_file>  (337) 
/var/tmp/pbs.5076255.sched01/tmpulc5pjk6/123bob0etdf.sdf

>  <i_m_source_file_index>  (337) 
24

>  <i_lp_mmshare_version>  (337) 
48012

>  <i_f3d_flags>  (337) 
0

>  <s_epik_input>  (337) 
W0NIM11DMShbQ0gzXSlDKD1bQ0gyXSlDKD1PKVtDSF09QyhPMSlbQ0BAXShbQ0gzXSkoW0NAQEhdKFtPSF0pW0NIMl1bQ0BIXTJbT0hdKVtDQEhdM1tDQEhdMltDQEBIXShbT0hdKVtDSDJdW0NASF0oW0NAXTM0W0NIM10pQyhbQ0gzXSkoW0NIM10pW0NAQEhdKFtPSF0pW0NIMl00

>  <s_epik_cmdline>  (337) 
J2VwaWtfcHl0aG9uJywgJy1waHQnLCAnMi4wJywgJy1waCcsICc3LjAnLCAnLXRuJywgJzgnLCAnLW1hJywgJzIwMCcsICctaW1hZScsICc8aW5maWxlLm1hZT4nLCAnLW9tYWUnLCAnPG91dGZpbGUubWFlPic=

>  <r_lp_tautomer_probability>  (337) 
1

>  <r_epik_Ionization_Penalty>  (337) 
2.19591e-06

>  <r_epik_Ionization_Penalty_Charging>  (337) 
0

>  <r_epik_Ionization_Penalty_Neutral>  (337) 
2.19591e-06

>  <r_epik_State_Penalty>  (337) 
-0

>  <r_epik_Charging_Adjusted_Penalty>  (337) 
0

>  <i_epik_Tot_Q>  (337) 
0

>  <i_epik_Tot_abs_Q>  (337) 
0

>  <s_lp_Force_Field>  (337) 
OPLS3e

>  <r_lp_Energy>  (337) 
47.2085

>  <b_lp_Chiralities_Consistent>  (337) 
1

>  <s_lp_Variant>  (337) 
94:0-1

>  <s_i_glide_gridfile>  (337) 
pfpi4k_grid

>  <i_i_glide_lignum>  (337) 
24

>  <i_i_glide_rotatable_bonds>  (337) 
5

>  <r_i_docking_score>  (337) 
-2.08467

>  <r_i_glide_ligand_efficiency>  (337) 
-0.0672474

>  <r_i_glide_ligand_efficiency_sa>  (337) 
-0.21125

>  <r_i_glide_ligand_efficiency_ln>  (337) 
-0.470157

>  <r_i_glide_gscore>  (337) 
-2.08467

>  <r_i_glide_lipo>  (337) 
-0.0509516

>  <r_i_glide_hbond>  (337) 
-0.0332898

>  <r_i_glide_metal>  (337) 
-0

>  <r_i_glide_rewards>  (337) 
-0.446143

>  <r_i_glide_evdw>  (337) 
-21.2523

>  <r_i_glide_ecoul>  (337) 
-3.74401

>  <r_i_glide_erotb>  (337) 
0.105465

>  <r_i_glide_esite>  (337) 
-0.0355317

>  <r_i_glide_emodel>  (337) 
-26.5438

>  <r_i_glide_energy>  (337) 
-24.9964

>  <r_i_glide_einternal>  (337) 
1.1283

>  <r_i_glide_intrahb_reward>  (337) 
-0

>  <i_i_glide_confnum>  (337) 
4

>  <i_i_glide_posenum>  (337) 
9

>  <r_i_glide_eff_state_penalty>  (337) 
0

>  <ligand_id>  (337) 
94

>  <original_smiles>  (337) 
C=C1C(=O)C=C(C2(C)C(O)CC(O)C3C(O)CC4C(C)(C)C(O)CC4(C)C32)OC1(C)C

>  <smiles>  (337) 
[H]OC1([H])C([H])([H])C([H])(O[H])C(C2=C([H])C(=O)C(=C([H])[H])C(C([H])([H])[H])(C([H])([H])[H])O2)(C([H])([H])[H])C2([H])C1([H])C([H])(O[H])C([H])([H])C1([H])C(C([H])([H])[H])(C([H])([H])[H])C([H])(O[H])C([H])([H])C21C([H])([H])[H]

$$$$
95:0:0
     RDKit          3D

 54 58  0  0  1  0  0  0  0  0999 V2000
    3.3183   -5.5114    4.6133 C   0  0  0  0  0  0  0  0  0  0  0  0
    2.4593   -4.4544    3.8950 C   0  0  2  0  0  0  0  0  0  0  0  0
    2.0381   -4.9423    2.5088 C   0  0  0  0  0  0  0  0  0  0  0  0
    3.1716   -4.9059    1.4744 C   0  0  1  0  0  0  0  0  0  0  0  0
    2.5283   -5.4435    0.3389 O   0  0  0  0  0  0  0  0  0  0  0  0
    3.7280   -3.4554    1.2489 C   0  0  1  0  0  0  0  0  0  0  0  0
    4.2244   -2.9534    2.6654 C   0  0  1  0  0  0  0  0  0  0  0  0
    4.8409   -1.5340    2.7882 C   0  0  0  0  0  0  0  0  0  0  0  0
    6.1356   -1.2506    2.0224 C   0  0  0  0  0  0  0  0  0  0  0  0
    5.8205   -0.8567    0.6183 C   0  0  1  0  0  0  0  0  0  0  0  0
    6.4208   -1.4933   -0.5227 O   0  0  0  0  0  0  0  0  0  0  0  0
    5.0530   -1.8072   -0.2312 C   0  0  2  0  0  0  0  0  0  0  0  0
    3.9506   -1.1074   -1.0275 C   0  0  0  0  0  0  0  0  0  0  0  0
    3.4151   -1.8372   -2.2641 C   0  0  1  0  0  0  0  0  0  0  0  0
    4.3152   -1.7405   -3.3532 O   0  0  0  0  0  0  0  0  0  0  0  0
    3.1537   -3.2961   -1.9299 C   0  0  0  0  0  0  0  0  0  0  0  0
    4.4063   -3.9160   -1.2970 C   0  0  0  0  0  0  0  0  0  0  0  0
    4.7985   -3.3075    0.0783 C   0  0  2  0  0  0  0  0  0  0  0  0
    6.0847   -4.1187    0.4273 C   0  0  0  0  0  0  0  0  0  0  0  0
    3.1403   -3.0780    3.7790 C   0  0  1  0  0  0  0  0  0  0  0  0
    1.9865   -2.0451    3.7270 C   0  0  0  0  0  0  0  0  0  0  0  0
    0.8719   -2.6205    4.6067 C   0  0  0  0  0  0  0  0  0  0  0  0
    1.2085   -4.0977    4.7049 C   0  0  0  0  0  0  0  0  0  0  0  0
    0.5468   -4.8984    5.3597 O   0  0  0  0  0  0  0  0  0  0  0  0
    4.2968   -5.6168    4.1509 H   0  0  0  0  0  0  0  0  0  0  0  0
    2.8427   -6.4911    4.5837 H   0  0  0  0  0  0  0  0  0  0  0  0
    3.4736   -5.2576    5.6579 H   0  0  0  0  0  0  0  0  0  0  0  0
    1.6049   -5.9430    2.5716 H   0  0  0  0  0  0  0  0  0  0  0  0
    1.2468   -4.2961    2.1378 H   0  0  0  0  0  0  0  0  0  0  0  0
    3.9837   -5.5718    1.7858 H   0  0  0  0  0  0  0  0  0  0  0  0
    3.1698   -5.5316   -0.3512 H   0  0  0  0  0  0  0  0  0  0  0  0
    2.8771   -2.8372    0.9690 H   0  0  0  0  0  0  0  0  0  0  0  0
    5.0161   -3.6366    2.9711 H   0  0  0  0  0  0  0  0  0  0  0  0
    4.1006   -0.7747    2.5375 H   0  0  0  0  0  0  0  0  0  0  0  0
    5.0752   -1.3718    3.8441 H   0  0  0  0  0  0  0  0  0  0  0  0
    6.6211   -0.4051    2.5008 H   0  0  0  0  0  0  0  0  0  0  0  0
    6.8497   -2.0585    2.0562 H   0  0  0  0  0  0  0  0  0  0  0  0
    5.6275    0.2057    0.4870 H   0  0  0  0  0  0  0  0  0  0  0  0
    3.1147   -0.9231   -0.3463 H   0  0  0  0  0  0  0  0  0  0  0  0
    4.3180   -0.1292   -1.3378 H   0  0  0  0  0  0  0  0  0  0  0  0
    2.4850   -1.3616   -2.5689 H   0  0  0  0  0  0  0  0  0  0  0  0
    5.1050   -2.1966   -3.1185 H   0  0  0  0  0  0  0  0  0  0  0  0
    2.3079   -3.3567   -1.2500 H   0  0  0  0  0  0  0  0  0  0  0  0
    2.8606   -3.8364   -2.8341 H   0  0  0  0  0  0  0  0  0  0  0  0
    4.3269   -4.9974   -1.2350 H   0  0  0  0  0  0  0  0  0  0  0  0
    5.2371   -3.7732   -1.9944 H   0  0  0  0  0  0  0  0  0  0  0  0
    6.8834   -3.9469   -0.2951 H   0  0  0  0  0  0  0  0  0  0  0  0
    5.8727   -5.1915    0.3989 H   0  0  0  0  0  0  0  0  0  0  0  0
    6.4925   -3.9486    1.4185 H   0  0  0  0  0  0  0  0  0  0  0  0
    3.6521   -2.9202    4.7337 H   0  0  0  0  0  0  0  0  0  0  0  0
    2.3085   -1.0657    4.0890 H   0  0  0  0  0  0  0  0  0  0  0  0
    1.6109   -1.9152    2.7091 H   0  0  0  0  0  0  0  0  0  0  0  0
    0.8809   -2.1870    5.6065 H   0  0  0  0  0  0  0  0  0  0  0  0
   -0.1166   -2.4680    4.1752 H   0  0  0  0  0  0  0  0  0  0  0  0
  2  1  1  1
  1 25  1  0
  1 26  1  0
  1 27  1  0
  2 20  1  0
  2 23  1  0
  2  3  1  0
  3  4  1  0
  3 28  1  0
  3 29  1  0
  4  5  1  0
  4  6  1  0
  4 30  1  1
  5 31  1  0
  6 18  1  0
  6  7  1  0
  6 32  1  6
  7  8  1  0
  7 20  1  0
  7 33  1  1
  8  9  1  0
  8 34  1  0
  8 35  1  0
  9 10  1  0
  9 36  1  0
  9 37  1  0
 10 12  1  0
 10 11  1  0
 10 38  1  1
 12 11  1  6
 12 18  1  0
 12 13  1  0
 13 14  1  0
 13 39  1  0
 13 40  1  0
 14 15  1  0
 14 16  1  0
 14 41  1  6
 15 42  1  0
 16 17  1  0
 16 43  1  0
 16 44  1  0
 17 18  1  0
 17 45  1  0
 17 46  1  0
 18 19  1  1
 19 47  1  0
 19 48  1  0
 19 49  1  0
 20 21  1  0
 20 50  1  1
 21 22  1  0
 21 51  1  0
 21 52  1  0
 22 23  1  0
 22 53  1  0
 22 54  1  0
 23 24  2  0
M  END
>  <i_m_ct_stereo_status>  (338) 
1

>  <s_m_source_file>  (338) 
/var/tmp/pbs.5076255.sched01/tmpulc5pjk6/123bob0etdf.sdf

>  <i_m_source_file_index>  (338) 
25

>  <i_lp_mmshare_version>  (338) 
48012

>  <i_f3d_flags>  (338) 
0

>  <s_epik_input>  (338) 
Tz1DMVtDSDJdW0NIMl1bQ0BIXTJbQ0BdMShbQ0gzXSlbQ0gyXVtDQEBIXShbT0hdKVtDQEBIXShbQ0BIXTJbQ0gyXVtDSDJdW0NAQEhdKE8zKVtDQF0zNDUpW0NAQF01KFtDSDNdKVtDSDJdW0NIMl1bQ0BASF0oW0NIMl00KVtPSF0=

>  <s_epik_cmdline>  (338) 
J2VwaWtfcHl0aG9uJywgJy1waHQnLCAnMi4wJywgJy1waCcsICc3LjAnLCAnLXRuJywgJzgnLCAnLW1hJywgJzIwMCcsICctaW1hZScsICc8aW5maWxlLm1hZT4nLCAnLW9tYWUnLCAnPG91dGZpbGUubWFlPic=

>  <r_lp_tautomer_probability>  (338) 
1

>  <r_epik_Ionization_Penalty>  (338) 
1.4272e-06

>  <r_epik_Ionization_Penalty_Charging>  (338) 
0

>  <r_epik_Ionization_Penalty_Neutral>  (338) 
1.4272e-06

>  <r_epik_State_Penalty>  (338) 
-0

>  <r_epik_Charging_Adjusted_Penalty>  (338) 
0

>  <i_epik_Tot_Q>  (338) 
0

>  <i_epik_Tot_abs_Q>  (338) 
0

>  <s_lp_Force_Field>  (338) 
OPLS3e

>  <r_lp_Energy>  (338) 
53.2802

>  <b_lp_Chiralities_Consistent>  (338) 
1

>  <s_lp_Variant>  (338) 
95:0-1

>  <s_i_glide_gridfile>  (338) 
pfpi4k_grid

>  <i_i_glide_lignum>  (338) 
25

>  <i_i_glide_rotatable_bonds>  (338) 
2

>  <r_i_docking_score>  (338) 
-3.92594

>  <r_i_glide_ligand_efficiency>  (338) 
-0.163581

>  <r_i_glide_ligand_efficiency_sa>  (338) 
-0.471849

>  <r_i_glide_ligand_efficiency_ln>  (338) 
-0.939657

>  <r_i_glide_gscore>  (338) 
-3.92594

>  <r_i_glide_lipo>  (338) 
-0.525619

>  <r_i_glide_hbond>  (338) 
-0.174418

>  <r_i_glide_metal>  (338) 
-0

>  <r_i_glide_rewards>  (338) 
-1.13786

>  <r_i_glide_evdw>  (338) 
-21.5556

>  <r_i_glide_ecoul>  (338) 
-6.73507

>  <r_i_glide_erotb>  (338) 
0

>  <r_i_glide_esite>  (338) 
0

>  <r_i_glide_emodel>  (338) 
-34.8175

>  <r_i_glide_energy>  (338) 
-28.2906

>  <r_i_glide_einternal>  (338) 
0.446177

>  <r_i_glide_intrahb_reward>  (338) 
-0

>  <i_i_glide_confnum>  (338) 
2

>  <i_i_glide_posenum>  (338) 
18

>  <r_i_glide_eff_state_penalty>  (338) 
0

>  <ligand_id>  (338) 
95

>  <original_smiles>  (338) 
CC12CC(O)C3C(CCC4OC45CC(O)CCC35C)C1CCC2=O

>  <smiles>  (338) 
[H]OC1([H])C([H])([H])C([H])([H])C2(C([H])([H])[H])C3([H])C([H])(O[H])C([H])([H])C4(C([H])([H])[H])C(=O)C([H])([H])C([H])([H])C4([H])C3([H])C([H])([H])C([H])([H])C3([H])OC32C1([H])[H]

$$$$
95:0:1
     RDKit          3D

 54 58  0  0  1  0  0  0  0  0999 V2000
    3.3814   -5.5220    4.6132 C   0  0  0  0  0  0  0  0  0  0  0  0
    2.5004   -4.4807    3.8990 C   0  0  2  0  0  0  0  0  0  0  0  0
    2.0843   -4.9728    2.5122 C   0  0  0  0  0  0  0  0  0  0  0  0
    3.2184   -4.9149    1.4795 C   0  0  1  0  0  0  0  0  0  0  0  0
    2.5917   -5.4680    0.3424 O   0  0  0  0  0  0  0  0  0  0  0  0
    3.7458   -3.4532    1.2558 C   0  0  1  0  0  0  0  0  0  0  0  0
    4.2372   -2.9442    2.6715 C   0  0  1  0  0  0  0  0  0  0  0  0
    4.8311   -1.5138    2.7965 C   0  0  0  0  0  0  0  0  0  0  0  0
    6.1238   -1.2086    2.0324 C   0  0  0  0  0  0  0  0  0  0  0  0
    5.7999   -0.8242    0.6268 C   0  0  1  0  0  0  0  0  0  0  0  0
    6.4086   -1.4557   -0.5147 O   0  0  0  0  0  0  0  0  0  0  0  0
    5.0443   -1.7835   -0.2221 C   0  0  2  0  0  0  0  0  0  0  0  0
    3.9281   -1.1011   -1.0153 C   0  0  0  0  0  0  0  0  0  0  0  0
    3.4049   -1.8378   -2.2495 C   0  0  1  0  0  0  0  0  0  0  0  0
    4.2733   -1.6875   -3.3562 O   0  0  0  0  0  0  0  0  0  0  0  0
    3.1657   -3.2989   -1.9228 C   0  0  0  0  0  0  0  0  0  0  0  0
    4.4269   -3.8997   -1.2937 C   0  0  0  0  0  0  0  0  0  0  0  0
    4.8122   -3.2885    0.0824 C   0  0  2  0  0  0  0  0  0  0  0  0
    6.1108   -4.0796    0.4278 C   0  0  0  0  0  0  0  0  0  0  0  0
    3.1571   -3.0910    3.7868 C   0  0  1  0  0  0  0  0  0  0  0  0
    1.9849   -2.0791    3.7392 C   0  0  0  0  0  0  0  0  0  0  0  0
    0.8809   -2.6780    4.6202 C   0  0  0  0  0  0  0  0  0  0  0  0
    1.2483   -4.1474    4.7137 C   0  0  0  0  0  0  0  0  0  0  0  0
    0.6047   -4.9620    5.3745 O   0  0  0  0  0  0  0  0  0  0  0  0
    4.3615   -5.6083    4.1491 H   0  0  0  0  0  0  0  0  0  0  0  0
    2.9250   -6.5109    4.5851 H   0  0  0  0  0  0  0  0  0  0  0  0
    3.5359   -5.2652    5.6584 H   0  0  0  0  0  0  0  0  0  0  0  0
    1.6699   -5.9815    2.5742 H   0  0  0  0  0  0  0  0  0  0  0  0
    1.2790   -4.3420    2.1408 H   0  0  0  0  0  0  0  0  0  0  0  0
    4.0396   -5.5659    1.7908 H   0  0  0  0  0  0  0  0  0  0  0  0
    3.2357   -5.5365   -0.3510 H   0  0  0  0  0  0  0  0  0  0  0  0
    2.8826   -2.8515    0.9782 H   0  0  0  0  0  0  0  0  0  0  0  0
    5.0395   -3.6149    2.9750 H   0  0  0  0  0  0  0  0  0  0  0  0
    4.0769   -0.7673    2.5469 H   0  0  0  0  0  0  0  0  0  0  0  0
    5.0615   -1.3492    3.8530 H   0  0  0  0  0  0  0  0  0  0  0  0
    6.6131   -0.3590    2.5036 H   0  0  0  0  0  0  0  0  0  0  0  0
    6.8458   -2.0096    2.0653 H   0  0  0  0  0  0  0  0  0  0  0  0
    5.5930    0.2321    0.4852 H   0  0  0  0  0  0  0  0  0  0  0  0
    3.0889   -0.9292   -0.3351 H   0  0  0  0  0  0  0  0  0  0  0  0
    4.2773   -0.1183   -1.3214 H   0  0  0  0  0  0  0  0  0  0  0  0
    2.4575   -1.3871   -2.5449 H   0  0  0  0  0  0  0  0  0  0  0  0
    4.2584   -0.7789   -3.6108 H   0  0  0  0  0  0  0  0  0  0  0  0
    2.3215   -3.3762   -1.2415 H   0  0  0  0  0  0  0  0  0  0  0  0
    2.8786   -3.8430   -2.8294 H   0  0  0  0  0  0  0  0  0  0  0  0
    4.3701   -4.9827   -1.2463 H   0  0  0  0  0  0  0  0  0  0  0  0
    5.2490   -3.7270   -1.9954 H   0  0  0  0  0  0  0  0  0  0  0  0
    6.9033   -3.8894   -0.2958 H   0  0  0  0  0  0  0  0  0  0  0  0
    5.9217   -5.1548    0.3979 H   0  0  0  0  0  0  0  0  0  0  0  0
    6.5197   -3.8990    1.4173 H   0  0  0  0  0  0  0  0  0  0  0  0
    3.6678   -2.9278    4.7394 H   0  0  0  0  0  0  0  0  0  0  0  0
    2.2889   -1.0965    4.1051 H   0  0  0  0  0  0  0  0  0  0  0  0
    1.6051   -1.9545    2.7237 H   0  0  0  0  0  0  0  0  0  0  0  0
    0.8844   -2.2463    5.6208 H   0  0  0  0  0  0  0  0  0  0  0  0
   -0.1117   -2.5445    4.1909 H   0  0  0  0  0  0  0  0  0  0  0  0
  2  1  1  1
  1 25  1  0
  1 26  1  0
  1 27  1  0
  2 20  1  0
  2 23  1  0
  2  3  1  0
  3  4  1  0
  3 28  1  0
  3 29  1  0
  4  5  1  0
  4  6  1  0
  4 30  1  1
  5 31  1  0
  6 18  1  0
  6  7  1  0
  6 32  1  6
  7  8  1  0
  7 20  1  0
  7 33  1  1
  8  9  1  0
  8 34  1  0
  8 35  1  0
  9 10  1  0
  9 36  1  0
  9 37  1  0
 10 12  1  0
 10 11  1  0
 10 38  1  1
 12 11  1  6
 12 18  1  0
 12 13  1  0
 13 14  1  0
 13 39  1  0
 13 40  1  0
 14 15  1  0
 14 16  1  0
 14 41  1  6
 15 42  1  0
 16 17  1  0
 16 43  1  0
 16 44  1  0
 17 18  1  0
 17 45  1  0
 17 46  1  0
 18 19  1  1
 19 47  1  0
 19 48  1  0
 19 49  1  0
 20 21  1  0
 20 50  1  1
 21 22  1  0
 21 51  1  0
 21 52  1  0
 22 23  1  0
 22 53  1  0
 22 54  1  0
 23 24  2  0
M  END
>  <i_m_ct_stereo_status>  (339) 
1

>  <s_m_source_file>  (339) 
/var/tmp/pbs.5076255.sched01/tmpulc5pjk6/123bob0etdf.sdf

>  <i_m_source_file_index>  (339) 
25

>  <i_lp_mmshare_version>  (339) 
48012

>  <i_f3d_flags>  (339) 
0

>  <s_epik_input>  (339) 
Tz1DMVtDSDJdW0NIMl1bQ0BIXTJbQ0BdMShbQ0gzXSlbQ0gyXVtDQEBIXShbT0hdKVtDQEBIXShbQ0BIXTJbQ0gyXVtDSDJdW0NAQEhdKE8zKVtDQF0zNDUpW0NAQF01KFtDSDNdKVtDSDJdW0NIMl1bQ0BASF0oW0NIMl00KVtPSF0=

>  <s_epik_cmdline>  (339) 
J2VwaWtfcHl0aG9uJywgJy1waHQnLCAnMi4wJywgJy1waCcsICc3LjAnLCAnLXRuJywgJzgnLCAnLW1hJywgJzIwMCcsICctaW1hZScsICc8aW5maWxlLm1hZT4nLCAnLW9tYWUnLCAnPG91dGZpbGUubWFlPic=

>  <r_lp_tautomer_probability>  (339) 
1

>  <r_epik_Ionization_Penalty>  (339) 
1.4272e-06

>  <r_epik_Ionization_Penalty_Charging>  (339) 
0

>  <r_epik_Ionization_Penalty_Neutral>  (339) 
1.4272e-06

>  <r_epik_State_Penalty>  (339) 
-0

>  <r_epik_Charging_Adjusted_Penalty>  (339) 
0

>  <i_epik_Tot_Q>  (339) 
0

>  <i_epik_Tot_abs_Q>  (339) 
0

>  <s_lp_Force_Field>  (339) 
OPLS3e

>  <r_lp_Energy>  (339) 
53.2802

>  <b_lp_Chiralities_Consistent>  (339) 
1

>  <s_lp_Variant>  (339) 
95:0-1

>  <s_i_glide_gridfile>  (339) 
pfpi4k_grid

>  <i_i_glide_lignum>  (339) 
25

>  <i_i_glide_rotatable_bonds>  (339) 
2

>  <r_i_docking_score>  (339) 
-3.90055

>  <r_i_glide_ligand_efficiency>  (339) 
-0.162523

>  <r_i_glide_ligand_efficiency_sa>  (339) 
-0.468798

>  <r_i_glide_ligand_efficiency_ln>  (339) 
-0.933582

>  <r_i_glide_gscore>  (339) 
-3.90055

>  <r_i_glide_lipo>  (339) 
-0.519747

>  <r_i_glide_hbond>  (339) 
-0.164711

>  <r_i_glide_metal>  (339) 
-0

>  <r_i_glide_rewards>  (339) 
-1.13658

>  <r_i_glide_evdw>  (339) 
-21.7596

>  <r_i_glide_ecoul>  (339) 
-6.61023

>  <r_i_glide_erotb>  (339) 
0

>  <r_i_glide_esite>  (339) 
0

>  <r_i_glide_emodel>  (339) 
-34.6646

>  <r_i_glide_energy>  (339) 
-28.3698

>  <r_i_glide_einternal>  (339) 
0.772144

>  <r_i_glide_intrahb_reward>  (339) 
-0

>  <i_i_glide_confnum>  (339) 
1

>  <i_i_glide_posenum>  (339) 
22

>  <r_i_glide_eff_state_penalty>  (339) 
0

>  <ligand_id>  (339) 
95

>  <original_smiles>  (339) 
CC12CC(O)C3C(CCC4OC45CC(O)CCC35C)C1CCC2=O

>  <smiles>  (339) 
[H]OC1([H])C([H])([H])C([H])([H])C2(C([H])([H])[H])C3([H])C([H])(O[H])C([H])([H])C4(C([H])([H])[H])C(=O)C([H])([H])C([H])([H])C4([H])C3([H])C([H])([H])C([H])([H])C3([H])OC32C1([H])[H]

$$$$
95:0:2
     RDKit          3D

 54 58  0  0  1  0  0  0  0  0999 V2000
    3.0134   -5.4170    4.8187 C   0  0  0  0  0  0  0  0  0  0  0  0
    2.1737   -4.4056    4.0188 C   0  0  2  0  0  0  0  0  0  0  0  0
    1.8678   -4.9389    2.6188 C   0  0  0  0  0  0  0  0  0  0  0  0
    3.0728   -4.8706    1.6663 C   0  0  1  0  0  0  0  0  0  0  0  0
    2.5534   -5.4579    0.4932 O   0  0  0  0  0  0  0  0  0  0  0  0
    3.5926   -3.4041    1.4531 C   0  0  1  0  0  0  0  0  0  0  0  0
    3.9662   -2.8574    2.8912 C   0  0  1  0  0  0  0  0  0  0  0  0
    4.5190   -1.4116    3.0345 C   0  0  0  0  0  0  0  0  0  0  0  0
    5.8610   -1.0885    2.3663 C   0  0  0  0  0  0  0  0  0  0  0  0
    5.6428   -0.7399    0.9329 C   0  0  1  0  0  0  0  0  0  0  0  0
    6.3440   -1.3822   -0.1470 O   0  0  0  0  0  0  0  0  0  0  0  0
    4.9667   -1.7342    0.0481 C   0  0  2  0  0  0  0  0  0  0  0  0
    3.9037   -1.0820   -0.8357 C   0  0  0  0  0  0  0  0  0  0  0  0
    3.4874   -1.8470   -2.0880 C   0  0  1  0  0  0  0  0  0  0  0  0
    4.4460   -1.7236   -3.1190 O   0  0  0  0  0  0  0  0  0  0  0  0
    3.2465   -3.3093   -1.7658 C   0  0  0  0  0  0  0  0  0  0  0  0
    4.4646   -3.8870   -1.0374 C   0  0  0  0  0  0  0  0  0  0  0  0
    4.7392   -3.2431    0.3558 C   0  0  2  0  0  0  0  0  0  0  0  0
    6.0244   -3.9943    0.8181 C   0  0  0  0  0  0  0  0  0  0  0  0
    2.8078   -3.0054    3.9249 C   0  0  1  0  0  0  0  0  0  0  0  0
    1.6246   -2.0170    3.7726 C   0  0  0  0  0  0  0  0  0  0  0  0
    0.4712   -2.6197    4.5833 C   0  0  0  0  0  0  0  0  0  0  0  0
    0.8608   -4.0801    4.7362 C   0  0  0  0  0  0  0  0  0  0  0  0
    0.1894   -4.8931    5.3643 O   0  0  0  0  0  0  0  0  0  0  0  0
    4.0271   -5.4923    4.4308 H   0  0  0  0  0  0  0  0  0  0  0  0
    2.5757   -6.4143    4.7745 H   0  0  0  0  0  0  0  0  0  0  0  0
    3.0814   -5.1377    5.8676 H   0  0  0  0  0  0  0  0  0  0  0  0
    1.4720   -5.9553    2.6708 H   0  0  0  0  0  0  0  0  0  0  0  0
    1.0690   -4.3401    2.1926 H   0  0  0  0  0  0  0  0  0  0  0  0
    3.8808   -5.4976    2.0537 H   0  0  0  0  0  0  0  0  0  0  0  0
    3.2696   -5.5732   -0.1153 H   0  0  0  0  0  0  0  0  0  0  0  0
    2.7453   -2.8227    1.0981 H   0  0  0  0  0  0  0  0  0  0  0  0
    4.7546   -3.5050    3.2702 H   0  0  0  0  0  0  0  0  0  0  0  0
    3.7708   -0.6854    2.7172 H   0  0  0  0  0  0  0  0  0  0  0  0
    4.6656   -1.2249    4.1018 H   0  0  0  0  0  0  0  0  0  0  0  0
    6.2986   -0.2211    2.8546 H   0  0  0  0  0  0  0  0  0  0  0  0
    6.6019   -1.8675    2.4737 H   0  0  0  0  0  0  0  0  0  0  0  0
    5.4171    0.3094    0.7598 H   0  0  0  0  0  0  0  0  0  0  0  0
    3.0142   -0.9149   -0.2210 H   0  0  0  0  0  0  0  0  0  0  0  0
    4.2614   -0.1015   -1.1444 H   0  0  0  0  0  0  0  0  0  0  0  0
    2.5646   -1.4079   -2.4647 H   0  0  0  0  0  0  0  0  0  0  0  0
    4.0895   -2.1559   -3.8748 H   0  0  0  0  0  0  0  0  0  0  0  0
    2.3581   -3.3933   -1.1452 H   0  0  0  0  0  0  0  0  0  0  0  0
    3.0351   -3.8582   -2.6877 H   0  0  0  0  0  0  0  0  0  0  0  0
    4.4155   -4.9728   -0.9959 H   0  0  0  0  0  0  0  0  0  0  0  0
    5.3375   -3.7145   -1.6731 H   0  0  0  0  0  0  0  0  0  0  0  0
    6.8708   -3.8038    0.1561 H   0  0  0  0  0  0  0  0  0  0  0  0
    5.8593   -5.0741    0.7979 H   0  0  0  0  0  0  0  0  0  0  0  0
    6.3517   -3.7840    1.8326 H   0  0  0  0  0  0  0  0  0  0  0  0
    3.2404   -2.8142    4.9098 H   0  0  0  0  0  0  0  0  0  0  0  0
    1.8816   -1.0216    4.1398 H   0  0  0  0  0  0  0  0  0  0  0  0
    1.3176   -1.9191    2.7298 H   0  0  0  0  0  0  0  0  0  0  0  0
    0.3888   -2.1679    5.5717 H   0  0  0  0  0  0  0  0  0  0  0  0
   -0.4900   -2.5168    4.0792 H   0  0  0  0  0  0  0  0  0  0  0  0
  2  1  1  1
  1 25  1  0
  1 26  1  0
  1 27  1  0
  2 20  1  0
  2 23  1  0
  2  3  1  0
  3  4  1  0
  3 28  1  0
  3 29  1  0
  4  5  1  0
  4  6  1  0
  4 30  1  1
  5 31  1  0
  6 18  1  0
  6  7  1  0
  6 32  1  6
  7  8  1  0
  7 20  1  0
  7 33  1  1
  8  9  1  0
  8 34  1  0
  8 35  1  0
  9 10  1  0
  9 36  1  0
  9 37  1  0
 10 12  1  0
 10 11  1  0
 10 38  1  1
 12 11  1  6
 12 18  1  0
 12 13  1  0
 13 14  1  0
 13 39  1  0
 13 40  1  0
 14 15  1  0
 14 16  1  0
 14 41  1  6
 15 42  1  0
 16 17  1  0
 16 43  1  0
 16 44  1  0
 17 18  1  0
 17 45  1  0
 17 46  1  0
 18 19  1  1
 19 47  1  0
 19 48  1  0
 19 49  1  0
 20 21  1  0
 20 50  1  1
 21 22  1  0
 21 51  1  0
 21 52  1  0
 22 23  1  0
 22 53  1  0
 22 54  1  0
 23 24  2  0
M  END
>  <i_m_ct_stereo_status>  (340) 
1

>  <s_m_source_file>  (340) 
/var/tmp/pbs.5076255.sched01/tmpulc5pjk6/123bob0etdf.sdf

>  <i_m_source_file_index>  (340) 
25

>  <i_lp_mmshare_version>  (340) 
48012

>  <i_f3d_flags>  (340) 
0

>  <s_epik_input>  (340) 
Tz1DMVtDSDJdW0NIMl1bQ0BIXTJbQ0BdMShbQ0gzXSlbQ0gyXVtDQEBIXShbT0hdKVtDQEBIXShbQ0BIXTJbQ0gyXVtDSDJdW0NAQEhdKE8zKVtDQF0zNDUpW0NAQF01KFtDSDNdKVtDSDJdW0NIMl1bQ0BASF0oW0NIMl00KVtPSF0=

>  <s_epik_cmdline>  (340) 
J2VwaWtfcHl0aG9uJywgJy1waHQnLCAnMi4wJywgJy1waCcsICc3LjAnLCAnLXRuJywgJzgnLCAnLW1hJywgJzIwMCcsICctaW1hZScsICc8aW5maWxlLm1hZT4nLCAnLW9tYWUnLCAnPG91dGZpbGUubWFlPic=

>  <r_lp_tautomer_probability>  (340) 
1

>  <r_epik_Ionization_Penalty>  (340) 
1.4272e-06

>  <r_epik_Ionization_Penalty_Charging>  (340) 
0

>  <r_epik_Ionization_Penalty_Neutral>  (340) 
1.4272e-06

>  <r_epik_State_Penalty>  (340) 
-0

>  <r_epik_Charging_Adjusted_Penalty>  (340) 
0

>  <i_epik_Tot_Q>  (340) 
0

>  <i_epik_Tot_abs_Q>  (340) 
0

>  <s_lp_Force_Field>  (340) 
OPLS3e

>  <r_lp_Energy>  (340) 
53.2802

>  <b_lp_Chiralities_Consistent>  (340) 
1

>  <s_lp_Variant>  (340) 
95:0-1

>  <s_i_glide_gridfile>  (340) 
pfpi4k_grid

>  <i_i_glide_lignum>  (340) 
25

>  <i_i_glide_rotatable_bonds>  (340) 
2

>  <r_i_docking_score>  (340) 
-3.54706

>  <r_i_glide_ligand_efficiency>  (340) 
-0.147794

>  <r_i_glide_ligand_efficiency_sa>  (340) 
-0.426312

>  <r_i_glide_ligand_efficiency_ln>  (340) 
-0.848974

>  <r_i_glide_gscore>  (340) 
-3.54706

>  <r_i_glide_lipo>  (340) 
-0.479028

>  <r_i_glide_hbond>  (340) 
-0.0526598

>  <r_i_glide_metal>  (340) 
-0

>  <r_i_glide_rewards>  (340) 
-1.13257

>  <r_i_glide_evdw>  (340) 
-23.0148

>  <r_i_glide_ecoul>  (340) 
-4.88042

>  <r_i_glide_erotb>  (340) 
0

>  <r_i_glide_esite>  (340) 
0

>  <r_i_glide_emodel>  (340) 
-33.6293

>  <r_i_glide_energy>  (340) 
-27.8952

>  <r_i_glide_einternal>  (340) 
0.676151

>  <r_i_glide_intrahb_reward>  (340) 
-0

>  <i_i_glide_confnum>  (340) 
1

>  <i_i_glide_posenum>  (340) 
26

>  <r_i_glide_eff_state_penalty>  (340) 
0

>  <ligand_id>  (340) 
95

>  <original_smiles>  (340) 
CC12CC(O)C3C(CCC4OC45CC(O)CCC35C)C1CCC2=O

>  <smiles>  (340) 
[H]OC1([H])C([H])([H])C([H])([H])C2(C([H])([H])[H])C3([H])C([H])(O[H])C([H])([H])C4(C([H])([H])[H])C(=O)C([H])([H])C([H])([H])C4([H])C3([H])C([H])([H])C([H])([H])C3([H])OC32C1([H])[H]

$$$$
96:0:0
     RDKit          3D

 46 50  0  0  1  0  0  0  0  0999 V2000
    1.5525   -3.8336   -1.5342 C   0  0  0  0  0  0  0  0  0  0  0  0
    2.4907   -4.2612   -0.3970 C   0  0  2  0  0  0  0  0  0  0  0  0
    1.9366   -5.4619    0.4635 C   0  0  0  0  0  0  0  0  0  0  0  0
    0.9775   -6.1347    0.0796 O   0  0  0  0  0  0  0  0  0  0  0  0
    2.5096   -5.6422    1.6979 O   0  0  0  0  0  0  0  0  0  0  0  0
    3.5959   -4.8154    2.0945 C   0  0  1  0  0  0  0  0  0  0  0  0
    4.8491   -5.2361    1.2406 C   0  0  0  0  0  0  0  0  0  0  0  0
    4.9487   -6.3924    0.8352 O   0  0  0  0  0  0  0  0  0  0  0  0
    5.9494   -4.2555    0.8932 C   0  0  0  0  0  0  0  0  0  0  0  0
    5.6049   -3.1182   -0.0974 C   0  0  2  0  0  0  0  0  0  0  0  0
    5.5745   -3.6033   -1.5675 C   0  0  0  0  0  0  0  0  0  0  0  0
    6.7912   -2.1996    0.0071 C   0  0  0  0  0  0  0  0  0  0  0  0
    6.9298   -1.2878    0.9772 C   0  0  0  0  0  0  0  0  0  0  0  0
    5.8436   -1.0780    1.9673 C   0  0  0  0  0  0  0  0  0  0  0  0
    6.0012   -0.5406    3.0556 O   0  0  0  0  0  0  0  0  0  0  0  0
    4.4259   -1.4853    1.6094 C   0  0  1  0  0  0  0  0  0  0  0  0
    3.7000   -0.1234    1.4250 C   0  0  0  0  0  0  0  0  0  0  0  0
    4.3053   -2.3057    0.2703 C   0  0  2  0  0  0  0  0  0  0  0  0
    2.9525   -3.0412    0.4616 C   0  0  2  0  0  0  0  0  0  0  0  0
    2.9700   -3.4042    1.9139 C   0  0  2  0  0  0  0  0  0  0  0  0
    3.7366   -2.3784    2.7192 C   0  0  2  0  0  0  0  0  0  0  0  0
    2.8284   -1.6157    3.5170 O   0  0  0  0  0  0  0  0  0  0  0  0
    4.5108   -3.2762    3.7336 C   0  0  0  0  0  0  0  0  0  0  0  0
    3.9224   -4.7065    3.6024 C   0  0  0  0  0  0  0  0  0  0  0  0
    2.4118   -4.8230    4.5659 Cl  0  0  0  0  0  0  0  0  0  0  0  0
    5.0528   -5.9505    4.1998 Cl  0  0  0  0  0  0  0  0  0  0  0  0
    1.4116   -4.6501   -2.2503 H   0  0  0  0  0  0  0  0  0  0  0  0
    1.9479   -2.9873   -2.0957 H   0  0  0  0  0  0  0  0  0  0  0  0
    0.5488   -3.5678   -1.2334 H   0  0  0  0  0  0  0  0  0  0  0  0
    3.3452   -4.6672   -0.8908 H   0  0  0  0  0  0  0  0  0  0  0  0
    6.3675   -3.8655    1.8130 H   0  0  0  0  0  0  0  0  0  0  0  0
    6.7596   -4.8400    0.4642 H   0  0  0  0  0  0  0  0  0  0  0  0
    5.0803   -4.5559   -1.7141 H   0  0  0  0  0  0  0  0  0  0  0  0
    6.5876   -3.7862   -1.9286 H   0  0  0  0  0  0  0  0  0  0  0  0
    5.1376   -2.8619   -2.2353 H   0  0  0  0  0  0  0  0  0  0  0  0
    7.6033   -2.3358   -0.7045 H   0  0  0  0  0  0  0  0  0  0  0  0
    7.8440   -0.7358    1.0552 H   0  0  0  0  0  0  0  0  0  0  0  0
    2.6466   -0.2175    1.1728 H   0  0  0  0  0  0  0  0  0  0  0  0
    4.1792    0.4648    0.6377 H   0  0  0  0  0  0  0  0  0  0  0  0
    3.7666    0.4983    2.3219 H   0  0  0  0  0  0  0  0  0  0  0  0
    4.1670   -1.5853   -0.5430 H   0  0  0  0  0  0  0  0  0  0  0  0
    2.1933   -2.2712    0.3592 H   0  0  0  0  0  0  0  0  0  0  0  0
    1.9381   -3.4166    2.2676 H   0  0  0  0  0  0  0  0  0  0  0  0
    2.2691   -1.1305    2.9517 H   0  0  0  0  0  0  0  0  0  0  0  0
    5.5831   -3.2897    3.5427 H   0  0  0  0  0  0  0  0  0  0  0  0
    4.4223   -2.9122    4.7616 H   0  0  0  0  0  0  0  0  0  0  0  0
  1  2  1  0
  1 27  1  0
  1 28  1  0
  1 29  1  0
  2 19  1  0
  2  3  1  0
  2 30  1  6
  3  4  2  0
  3  5  1  0
  6  5  1  1
  6 20  1  0
  6 24  1  0
  6  7  1  0
  7  8  2  0
  7  9  1  0
  9 10  1  0
  9 31  1  0
  9 32  1  0
 10 18  1  0
 10 11  1  6
 10 12  1  0
 11 33  1  0
 11 34  1  0
 11 35  1  0
 12 13  2  0
 12 36  1  0
 13 14  1  0
 13 37  1  0
 14 15  2  0
 14 16  1  0
 16 21  1  0
 16 17  1  6
 16 18  1  0
 17 38  1  0
 17 39  1  0
 17 40  1  0
 18 19  1  0
 18 41  1  6
 19 20  1  0
 19 42  1  1
 20 21  1  0
 20 43  1  1
 21 22  1  1
 21 23  1  0
 22 44  1  0
 23 24  1  0
 23 45  1  0
 23 46  1  0
 24 25  1  0
 24 26  1  0
M  END
>  <i_m_ct_stereo_status>  (341) 
1

>  <s_m_source_file>  (341) 
/var/tmp/pbs.5076255.sched01/tmpulc5pjk6/123bob0etdf.sdf

>  <i_m_source_file_index>  (341) 
26

>  <i_lp_mmshare_version>  (341) 
48012

>  <i_f3d_flags>  (341) 
0

>  <s_epik_input>  (341) 
Tz1DKE8xKVtDQEBIXShbQ0gzXSlbQ0BASF0oW0NASF0yW0NAQF0xMzQpW0NAQEhdNVtDQF0oW0NIM10pKFtDSDJdQzM9TylbQ0hdPVtDSF1DKD1PKVtDQF01KFtDSDNdKVtDQF0yKFtPSF0pW0NIMl1DNChDbClDbA==

>  <s_epik_cmdline>  (341) 
J2VwaWtfcHl0aG9uJywgJy1waHQnLCAnMi4wJywgJy1waCcsICc3LjAnLCAnLXRuJywgJzgnLCAnLW1hJywgJzIwMCcsICctaW1hZScsICc8aW5maWxlLm1hZT4nLCAnLW9tYWUnLCAnPG91dGZpbGUubWFlPic=

>  <r_lp_tautomer_probability>  (341) 
1

>  <r_epik_Ionization_Penalty>  (341) 
1.86824e-05

>  <r_epik_Ionization_Penalty_Charging>  (341) 
0

>  <r_epik_Ionization_Penalty_Neutral>  (341) 
1.86824e-05

>  <r_epik_State_Penalty>  (341) 
-0

>  <r_epik_Charging_Adjusted_Penalty>  (341) 
0

>  <i_epik_Tot_Q>  (341) 
0

>  <i_epik_Tot_abs_Q>  (341) 
0

>  <s_epik_Chemistry_Notes>  (341) 
This compound has an ester and may undergo hydrolysis at high or low pH.

>  <s_lp_Force_Field>  (341) 
OPLS3e

>  <r_lp_Energy>  (341) 
72.3582

>  <b_lp_Chiralities_Consistent>  (341) 
1

>  <s_lp_Variant>  (341) 
96:0-1

>  <s_i_glide_gridfile>  (341) 
pfpi4k_grid

>  <i_i_glide_lignum>  (341) 
26

>  <i_i_glide_rotatable_bonds>  (341) 
1

>  <r_i_docking_score>  (341) 
-3.3735

>  <r_i_glide_ligand_efficiency>  (341) 
-0.12975

>  <r_i_glide_ligand_efficiency_sa>  (341) 
-0.384384

>  <r_i_glide_ligand_efficiency_ln>  (341) 
-0.792255

>  <r_i_glide_gscore>  (341) 
-3.3735

>  <r_i_glide_lipo>  (341) 
-0.267124

>  <r_i_glide_hbond>  (341) 
-0.428425

>  <r_i_glide_metal>  (341) 
-0

>  <r_i_glide_rewards>  (341) 
-0.910495

>  <r_i_glide_evdw>  (341) 
-18.0349

>  <r_i_glide_ecoul>  (341) 
-5.22192

>  <r_i_glide_erotb>  (341) 
0

>  <r_i_glide_esite>  (341) 
-0.0824234

>  <r_i_glide_emodel>  (341) 
-26.8317

>  <r_i_glide_energy>  (341) 
-23.2568

>  <r_i_glide_einternal>  (341) 
0.0162188

>  <r_i_glide_intrahb_reward>  (341) 
-0

>  <i_i_glide_confnum>  (341) 
2

>  <i_i_glide_posenum>  (341) 
1

>  <r_i_glide_eff_state_penalty>  (341) 
0

>  <ligand_id>  (341) 
96

>  <original_smiles>  (341) 
CC1C(=O)OC23C(=O)CC4(C)C=CC(=O)C5(C)C4C1C2C5(O)CC3(Cl)Cl

>  <smiles>  (341) 
[H]OC12C([H])([H])C(Cl)(Cl)C34OC(=O)C([H])(C([H])([H])[H])C([H])(C31[H])C1([H])C(C([H])([H])[H])(C([H])=C([H])C(=O)C12C([H])([H])[H])C([H])([H])C4=O

$$$$
96:0:1
     RDKit          3D

 46 50  0  0  1  0  0  0  0  0999 V2000
    1.5754   -3.8283   -1.5284 C   0  0  0  0  0  0  0  0  0  0  0  0
    2.5088   -4.2761   -0.3826 C   0  0  2  0  0  0  0  0  0  0  0  0
    1.9518   -5.4718    0.4672 C   0  0  0  0  0  0  0  0  0  0  0  0
    0.9846   -6.1131    0.0665 O   0  0  0  0  0  0  0  0  0  0  0  0
    2.5114   -5.6376    1.7078 O   0  0  0  0  0  0  0  0  0  0  0  0
    3.6070   -4.8153    2.0937 C   0  0  1  0  0  0  0  0  0  0  0  0
    4.8633   -5.2342    1.2436 C   0  0  0  0  0  0  0  0  0  0  0  0
    4.9576   -6.3876    0.8405 O   0  0  0  0  0  0  0  0  0  0  0  0
    5.9613   -4.2471    0.9039 C   0  0  0  0  0  0  0  0  0  0  0  0
    5.6200   -3.1066   -0.0785 C   0  0  2  0  0  0  0  0  0  0  0  0
    5.5886   -3.5871   -1.5453 C   0  0  0  0  0  0  0  0  0  0  0  0
    6.8103   -2.1877    0.0344 C   0  0  0  0  0  0  0  0  0  0  0  0
    6.9269   -1.2700    1.0006 C   0  0  0  0  0  0  0  0  0  0  0  0
    5.8284   -1.0738    1.9828 C   0  0  0  0  0  0  0  0  0  0  0  0
    5.9505   -0.5456    3.0802 O   0  0  0  0  0  0  0  0  0  0  0  0
    4.4238   -1.4915    1.6171 C   0  0  1  0  0  0  0  0  0  0  0  0
    3.6992   -0.1266    1.4397 C   0  0  0  0  0  0  0  0  0  0  0  0
    4.3165   -2.3043    0.2854 C   0  0  2  0  0  0  0  0  0  0  0  0
    2.9643   -3.0545    0.4674 C   0  0  2  0  0  0  0  0  0  0  0  0
    2.9790   -3.4152    1.9152 C   0  0  2  0  0  0  0  0  0  0  0  0
    3.7390   -2.3882    2.7220 C   0  0  2  0  0  0  0  0  0  0  0  0
    2.8321   -1.6214    3.5097 O   0  0  0  0  0  0  0  0  0  0  0  0
    4.5137   -3.2892    3.7438 C   0  0  0  0  0  0  0  0  0  0  0  0
    3.9235   -4.7217    3.5954 C   0  0  0  0  0  0  0  0  0  0  0  0
    2.4187   -4.8434    4.5627 Cl  0  0  0  0  0  0  0  0  0  0  0  0
    5.0495   -5.9669    4.1970 Cl  0  0  0  0  0  0  0  0  0  0  0  0
    1.4075   -4.6267   -2.2439 H   0  0  0  0  0  0  0  0  0  0  0  0
    1.9736   -2.9794   -2.0877 H   0  0  0  0  0  0  0  0  0  0  0  0
    0.5741   -3.5544   -1.2293 H   0  0  0  0  0  0  0  0  0  0  0  0
    3.3615   -4.6767   -0.8884 H   0  0  0  0  0  0  0  0  0  0  0  0
    6.3756   -3.8683    1.8243 H   0  0  0  0  0  0  0  0  0  0  0  0
    6.7640   -4.8377    0.4758 H   0  0  0  0  0  0  0  0  0  0  0  0
    5.0956   -4.5419   -1.7036 H   0  0  0  0  0  0  0  0  0  0  0  0
    6.5972   -3.7717   -1.9108 H   0  0  0  0  0  0  0  0  0  0  0  0
    5.1533   -2.8483   -2.2169 H   0  0  0  0  0  0  0  0  0  0  0  0
    7.6118   -2.3239   -0.6853 H   0  0  0  0  0  0  0  0  0  0  0  0
    7.8262   -0.6784    1.0778 H   0  0  0  0  0  0  0  0  0  0  0  0
    2.6446   -0.2284    1.1948 H   0  0  0  0  0  0  0  0  0  0  0  0
    4.1807    0.4628    0.6576 H   0  0  0  0  0  0  0  0  0  0  0  0
    3.7636    0.4905    2.3360 H   0  0  0  0  0  0  0  0  0  0  0  0
    4.1767   -1.5850   -0.5263 H   0  0  0  0  0  0  0  0  0  0  0  0
    2.2068   -2.2835    0.3679 H   0  0  0  0  0  0  0  0  0  0  0  0
    1.9457   -3.4155    2.2746 H   0  0  0  0  0  0  0  0  0  0  0  0
    3.3237   -0.9872    3.9921 H   0  0  0  0  0  0  0  0  0  0  0  0
    5.5849   -3.3019    3.5579 H   0  0  0  0  0  0  0  0  0  0  0  0
    4.4237   -2.9288    4.7744 H   0  0  0  0  0  0  0  0  0  0  0  0
  1  2  1  0
  1 27  1  0
  1 28  1  0
  1 29  1  0
  2 19  1  0
  2  3  1  0
  2 30  1  6
  3  4  2  0
  3  5  1  0
  6  5  1  1
  6 20  1  0
  6 24  1  0
  6  7  1  0
  7  8  2  0
  7  9  1  0
  9 10  1  0
  9 31  1  0
  9 32  1  0
 10 18  1  0
 10 11  1  6
 10 12  1  0
 11 33  1  0
 11 34  1  0
 11 35  1  0
 12 13  2  0
 12 36  1  0
 13 14  1  0
 13 37  1  0
 14 15  2  0
 14 16  1  0
 16 21  1  0
 16 17  1  6
 16 18  1  0
 17 38  1  0
 17 39  1  0
 17 40  1  0
 18 19  1  0
 18 41  1  6
 19 20  1  0
 19 42  1  1
 20 21  1  0
 20 43  1  1
 21 22  1  1
 21 23  1  0
 22 44  1  0
 23 24  1  0
 23 45  1  0
 23 46  1  0
 24 25  1  0
 24 26  1  0
M  END
>  <i_m_ct_stereo_status>  (342) 
1

>  <s_m_source_file>  (342) 
/var/tmp/pbs.5076255.sched01/tmpulc5pjk6/123bob0etdf.sdf

>  <i_m_source_file_index>  (342) 
26

>  <i_lp_mmshare_version>  (342) 
48012

>  <i_f3d_flags>  (342) 
0

>  <s_epik_input>  (342) 
Tz1DKE8xKVtDQEBIXShbQ0gzXSlbQ0BASF0oW0NASF0yW0NAQF0xMzQpW0NAQEhdNVtDQF0oW0NIM10pKFtDSDJdQzM9TylbQ0hdPVtDSF1DKD1PKVtDQF01KFtDSDNdKVtDQF0yKFtPSF0pW0NIMl1DNChDbClDbA==

>  <s_epik_cmdline>  (342) 
J2VwaWtfcHl0aG9uJywgJy1waHQnLCAnMi4wJywgJy1waCcsICc3LjAnLCAnLXRuJywgJzgnLCAnLW1hJywgJzIwMCcsICctaW1hZScsICc8aW5maWxlLm1hZT4nLCAnLW9tYWUnLCAnPG91dGZpbGUubWFlPic=

>  <r_lp_tautomer_probability>  (342) 
1

>  <r_epik_Ionization_Penalty>  (342) 
1.86824e-05

>  <r_epik_Ionization_Penalty_Charging>  (342) 
0

>  <r_epik_Ionization_Penalty_Neutral>  (342) 
1.86824e-05

>  <r_epik_State_Penalty>  (342) 
-0

>  <r_epik_Charging_Adjusted_Penalty>  (342) 
0

>  <i_epik_Tot_Q>  (342) 
0

>  <i_epik_Tot_abs_Q>  (342) 
0

>  <s_epik_Chemistry_Notes>  (342) 
This compound has an ester and may undergo hydrolysis at high or low pH.

>  <s_lp_Force_Field>  (342) 
OPLS3e

>  <r_lp_Energy>  (342) 
72.3582

>  <b_lp_Chiralities_Consistent>  (342) 
1

>  <s_lp_Variant>  (342) 
96:0-1

>  <s_i_glide_gridfile>  (342) 
pfpi4k_grid

>  <i_i_glide_lignum>  (342) 
26

>  <i_i_glide_rotatable_bonds>  (342) 
1

>  <r_i_docking_score>  (342) 
-3.24316

>  <r_i_glide_ligand_efficiency>  (342) 
-0.124737

>  <r_i_glide_ligand_efficiency_sa>  (342) 
-0.369533

>  <r_i_glide_ligand_efficiency_ln>  (342) 
-0.761647

>  <r_i_glide_gscore>  (342) 
-3.24316

>  <r_i_glide_lipo>  (342) 
-0.270937

>  <r_i_glide_hbond>  (342) 
-0.433018

>  <r_i_glide_metal>  (342) 
-0

>  <r_i_glide_rewards>  (342) 
-0.909092

>  <r_i_glide_evdw>  (342) 
-18.1324

>  <r_i_glide_ecoul>  (342) 
-4.28915

>  <r_i_glide_erotb>  (342) 
0

>  <r_i_glide_esite>  (342) 
-0.0801266

>  <r_i_glide_emodel>  (342) 
-25.8746

>  <r_i_glide_energy>  (342) 
-22.4215

>  <r_i_glide_einternal>  (342) 
0.0289866

>  <r_i_glide_intrahb_reward>  (342) 
-0

>  <i_i_glide_confnum>  (342) 
2

>  <i_i_glide_posenum>  (342) 
6

>  <r_i_glide_eff_state_penalty>  (342) 
0

>  <ligand_id>  (342) 
96

>  <original_smiles>  (342) 
CC1C(=O)OC23C(=O)CC4(C)C=CC(=O)C5(C)C4C1C2C5(O)CC3(Cl)Cl

>  <smiles>  (342) 
[H]OC12C([H])([H])C(Cl)(Cl)C34OC(=O)C([H])(C([H])([H])[H])C([H])(C31[H])C1([H])C(C([H])([H])[H])(C([H])=C([H])C(=O)C12C([H])([H])[H])C([H])([H])C4=O

$$$$
96:0:2
     RDKit          3D

 46 50  0  0  1  0  0  0  0  0999 V2000
    1.2415   -6.2837    0.9582 C   0  0  0  0  0  0  0  0  0  0  0  0
    2.5381   -5.9390    1.7188 C   0  0  2  0  0  0  0  0  0  0  0  0
    2.8072   -6.9310    2.9149 C   0  0  0  0  0  0  0  0  0  0  0  0
    2.2165   -8.0119    2.9496 O   0  0  0  0  0  0  0  0  0  0  0  0
    3.7077   -6.4951    3.8490 O   0  0  0  0  0  0  0  0  0  0  0  0
    4.3929   -5.2596    3.6916 C   0  0  1  0  0  0  0  0  0  0  0  0
    5.4265   -5.4187    2.5280 C   0  0  0  0  0  0  0  0  0  0  0  0
    5.9291   -6.5235    2.3051 O   0  0  0  0  0  0  0  0  0  0  0  0
    5.8557   -4.2549    1.6502 C   0  0  0  0  0  0  0  0  0  0  0  0
    4.8055   -3.6548    0.6828 C   0  0  2  0  0  0  0  0  0  0  0  0
    4.6180   -4.5568   -0.5687 C   0  0  0  0  0  0  0  0  0  0  0  0
    5.4283   -2.3658    0.1912 C   0  0  0  0  0  0  0  0  0  0  0  0
    5.3968   -1.2059    0.8590 C   0  0  0  0  0  0  0  0  0  0  0  0
    4.6941   -1.1410    2.1516 C   0  0  0  0  0  0  0  0  0  0  0  0
    4.9869   -0.3015    3.0077 O   0  0  0  0  0  0  0  0  0  0  0  0
    3.5399   -2.1264    2.4212 C   0  0  1  0  0  0  0  0  0  0  0  0
    2.2553   -1.2623    2.2886 C   0  0  0  0  0  0  0  0  0  0  0  0
    3.4266   -3.3128    1.3685 C   0  0  2  0  0  0  0  0  0  0  0  0
    2.6184   -4.4152    2.1403 C   0  0  2  0  0  0  0  0  0  0  0  0
    3.1938   -4.2896    3.5284 C   0  0  2  0  0  0  0  0  0  0  0  0
    3.6164   -2.8486    3.8274 C   0  0  2  0  0  0  0  0  0  0  0  0
    2.7030   -2.2786    4.7646 O   0  0  0  0  0  0  0  0  0  0  0  0
    4.9444   -3.0603    4.6203 C   0  0  0  0  0  0  0  0  0  0  0  0
    5.0286   -4.5772    4.9428 C   0  0  0  0  0  0  0  0  0  0  0  0
    4.0449   -4.9169    6.4032 Cl  0  0  0  0  0  0  0  0  0  0  0  0
    6.7100   -5.0777    5.2854 Cl  0  0  0  0  0  0  0  0  0  0  0  0
    1.3213   -7.2809    0.5133 H   0  0  0  0  0  0  0  0  0  0  0  0
    1.0616   -5.5949    0.1402 H   0  0  0  0  0  0  0  0  0  0  0  0
    0.3718   -6.3090    1.6180 H   0  0  0  0  0  0  0  0  0  0  0  0
    3.3381   -6.1511    1.0347 H   0  0  0  0  0  0  0  0  0  0  0  0
    6.2811   -3.4812    2.2763 H   0  0  0  0  0  0  0  0  0  0  0  0
    6.7005   -4.5999    1.0509 H   0  0  0  0  0  0  0  0  0  0  0  0
    4.5686   -5.6215   -0.3704 H   0  0  0  0  0  0  0  0  0  0  0  0
    5.4665   -4.4638   -1.2512 H   0  0  0  0  0  0  0  0  0  0  0  0
    3.7338   -4.2685   -1.1422 H   0  0  0  0  0  0  0  0  0  0  0  0
    5.9597   -2.4041   -0.7532 H   0  0  0  0  0  0  0  0  0  0  0  0
    5.8768   -0.3149    0.4945 H   0  0  0  0  0  0  0  0  0  0  0  0
    1.3375   -1.8171    2.4669 H   0  0  0  0  0  0  0  0  0  0  0  0
    2.1745   -0.8211    1.2905 H   0  0  0  0  0  0  0  0  0  0  0  0
    2.2583   -0.4212    2.9867 H   0  0  0  0  0  0  0  0  0  0  0  0
    2.7767   -2.9749    0.5546 H   0  0  0  0  0  0  0  0  0  0  0  0
    1.5948   -4.0572    2.2165 H   0  0  0  0  0  0  0  0  0  0  0  0
    2.4113   -4.5661    4.2341 H   0  0  0  0  0  0  0  0  0  0  0  0
    2.7544   -2.7502    5.5687 H   0  0  0  0  0  0  0  0  0  0  0  0
    5.8148   -2.7424    4.0504 H   0  0  0  0  0  0  0  0  0  0  0  0
    4.9928   -2.4629    5.5339 H   0  0  0  0  0  0  0  0  0  0  0  0
  1  2  1  0
  1 27  1  0
  1 28  1  0
  1 29  1  0
  2 19  1  0
  2  3  1  0
  2 30  1  6
  3  4  2  0
  3  5  1  0
  6  5  1  1
  6 20  1  0
  6 24  1  0
  6  7  1  0
  7  8  2  0
  7  9  1  0
  9 10  1  0
  9 31  1  0
  9 32  1  0
 10 18  1  0
 10 11  1  6
 10 12  1  0
 11 33  1  0
 11 34  1  0
 11 35  1  0
 12 13  2  0
 12 36  1  0
 13 14  1  0
 13 37  1  0
 14 15  2  0
 14 16  1  0
 16 21  1  0
 16 17  1  1
 16 18  1  0
 17 38  1  0
 17 39  1  0
 17 40  1  0
 18 19  1  0
 18 41  1  6
 19 20  1  0
 19 42  1  1
 20 21  1  0
 20 43  1  1
 21 22  1  1
 21 23  1  0
 22 44  1  0
 23 24  1  0
 23 45  1  0
 23 46  1  0
 24 25  1  0
 24 26  1  0
M  END
>  <i_m_ct_stereo_status>  (343) 
1

>  <s_m_source_file>  (343) 
/var/tmp/pbs.5076255.sched01/tmpulc5pjk6/123bob0etdf.sdf

>  <i_m_source_file_index>  (343) 
26

>  <i_lp_mmshare_version>  (343) 
48012

>  <i_f3d_flags>  (343) 
0

>  <s_epik_input>  (343) 
Tz1DKE8xKVtDQEBIXShbQ0gzXSlbQ0BASF0oW0NASF0yW0NAQF0xMzQpW0NAQEhdNVtDQF0oW0NIM10pKFtDSDJdQzM9TylbQ0hdPVtDSF1DKD1PKVtDQF01KFtDSDNdKVtDQF0yKFtPSF0pW0NIMl1DNChDbClDbA==

>  <s_epik_cmdline>  (343) 
J2VwaWtfcHl0aG9uJywgJy1waHQnLCAnMi4wJywgJy1waCcsICc3LjAnLCAnLXRuJywgJzgnLCAnLW1hJywgJzIwMCcsICctaW1hZScsICc8aW5maWxlLm1hZT4nLCAnLW9tYWUnLCAnPG91dGZpbGUubWFlPic=

>  <r_lp_tautomer_probability>  (343) 
1

>  <r_epik_Ionization_Penalty>  (343) 
1.86824e-05

>  <r_epik_Ionization_Penalty_Charging>  (343) 
0

>  <r_epik_Ionization_Penalty_Neutral>  (343) 
1.86824e-05

>  <r_epik_State_Penalty>  (343) 
-0

>  <r_epik_Charging_Adjusted_Penalty>  (343) 
0

>  <i_epik_Tot_Q>  (343) 
0

>  <i_epik_Tot_abs_Q>  (343) 
0

>  <s_epik_Chemistry_Notes>  (343) 
This compound has an ester and may undergo hydrolysis at high or low pH.

>  <s_lp_Force_Field>  (343) 
OPLS3e

>  <r_lp_Energy>  (343) 
72.3582

>  <b_lp_Chiralities_Consistent>  (343) 
1

>  <s_lp_Variant>  (343) 
96:0-1

>  <s_i_glide_gridfile>  (343) 
pfpi4k_grid

>  <i_i_glide_lignum>  (343) 
26

>  <i_i_glide_rotatable_bonds>  (343) 
1

>  <r_i_docking_score>  (343) 
-2.16273

>  <r_i_glide_ligand_efficiency>  (343) 
-0.0831819

>  <r_i_glide_ligand_efficiency_sa>  (343) 
-0.246426

>  <r_i_glide_ligand_efficiency_ln>  (343) 
-0.50791

>  <r_i_glide_gscore>  (343) 
-2.16273

>  <r_i_glide_lipo>  (343) 
-0.257505

>  <r_i_glide_hbond>  (343) 
0

>  <r_i_glide_metal>  (343) 
-0

>  <r_i_glide_rewards>  (343) 
-0.794304

>  <r_i_glide_evdw>  (343) 
-21.4699

>  <r_i_glide_ecoul>  (343) 
-0.235907

>  <r_i_glide_erotb>  (343) 
0

>  <r_i_glide_esite>  (343) 
-0.00203771

>  <r_i_glide_emodel>  (343) 
-24.0388

>  <r_i_glide_energy>  (343) 
-21.7058

>  <r_i_glide_einternal>  (343) 
0.0431174

>  <r_i_glide_intrahb_reward>  (343) 
-0

>  <i_i_glide_confnum>  (343) 
1

>  <i_i_glide_posenum>  (343) 
35

>  <r_i_glide_eff_state_penalty>  (343) 
0

>  <ligand_id>  (343) 
96

>  <original_smiles>  (343) 
CC1C(=O)OC23C(=O)CC4(C)C=CC(=O)C5(C)C4C1C2C5(O)CC3(Cl)Cl

>  <smiles>  (343) 
[H]OC12C([H])([H])C(Cl)(Cl)C34OC(=O)C([H])(C([H])([H])[H])C([H])(C31[H])C1([H])C(C([H])([H])[H])(C([H])=C([H])C(=O)C12C([H])([H])[H])C([H])([H])C4=O

$$$$
97:0:0
     RDKit          3D

 39 42  0  0  1  0  0  0  0  0999 V2000
    5.3643   -3.6207   -2.4192 N   0  0  0  0  0  0  0  0  0  0  0  0
    5.0312   -3.3348   -1.3466 C   0  0  0  0  0  0  0  0  0  0  0  0
    4.6271   -2.8292   -0.0617 C   0  0  0  0  0  0  0  0  0  0  0  0
    4.5898   -1.4837    0.0876 C   0  0  0  0  0  0  0  0  0  0  0  0
    4.9099   -0.6653   -0.9727 N   0  0  0  0  0  0  0  0  0  0  0  0
    4.1924   -0.9410    1.2817 N   0  0  0  0  0  0  0  0  0  0  0  0
    2.8518   -0.5543    1.6571 C   0  0  2  0  0  0  0  0  0  0  0  0
    3.1210    0.4592    2.7267 C   0  0  0  0  0  0  0  0  0  0  0  0
    4.2407    0.0758    3.3124 C   0  0  0  0  0  0  0  0  0  0  0  0
    4.6650   -1.1936    2.6130 C   0  0  1  0  0  0  0  0  0  0  0  0
    3.7066   -2.3419    3.0219 C   0  0  1  0  0  0  0  0  0  0  0  0
    3.6176   -2.3615    4.5022 C   0  0  0  0  0  0  0  0  0  0  0  0
    3.5554   -2.3643    5.6584 N   0  0  0  0  0  0  0  0  0  0  0  0
    2.3812   -1.8565    2.3208 C   0  0  1  0  0  0  0  0  0  0  0  0
    0.9834   -1.6389    3.4185 Cl  0  0  0  0  0  0  0  0  0  0  0  0
    4.2685   -3.6886    2.4937 C   0  0  1  0  0  0  0  0  0  0  0  0
    3.6858   -4.8593    3.2942 C   0  0  0  0  0  0  0  0  0  0  0  0
    4.5282   -5.7036    4.0564 C   0  0  0  0  0  0  0  0  0  0  0  0
    3.9474   -6.7817    4.7681 C   0  0  0  0  0  0  0  0  0  0  0  0
    2.5508   -6.9746    4.6697 C   0  0  0  0  0  0  0  0  0  0  0  0
    1.8058   -6.0715    3.8833 C   0  0  0  0  0  0  0  0  0  0  0  0
    2.3533   -5.0309    3.2338 N   0  0  0  0  0  0  0  0  0  0  0  0
    4.3098   -3.9875    0.9443 C   0  0  0  0  0  0  0  0  0  0  0  0
    3.0783   -4.6081    0.4614 C   0  0  0  0  0  0  0  0  0  0  0  0
    2.0951   -5.0910    0.0750 N   0  0  0  0  0  0  0  0  0  0  0  0
    5.3408   -5.0191    0.7951 C   0  0  0  0  0  0  0  0  0  0  0  0
    6.1594   -5.8225    0.6781 N   0  0  0  0  0  0  0  0  0  0  0  0
    4.7731    0.3356   -0.8658 H   0  0  0  0  0  0  0  0  0  0  0  0
    5.0004   -0.9488   -1.9261 H   0  0  0  0  0  0  0  0  0  0  0  0
    2.2491   -0.1781    0.8310 H   0  0  0  0  0  0  0  0  0  0  0  0
    2.5236    1.3398    2.9204 H   0  0  0  0  0  0  0  0  0  0  0  0
    4.7700    0.5787    4.1108 H   0  0  0  0  0  0  0  0  0  0  0  0
    5.7398   -1.3879    2.6755 H   0  0  0  0  0  0  0  0  0  0  0  0
    2.0348   -2.5432    1.5467 H   0  0  0  0  0  0  0  0  0  0  0  0
    5.3164   -3.6611    2.7897 H   0  0  0  0  0  0  0  0  0  0  0  0
    5.5922   -5.5468    4.1064 H   0  0  0  0  0  0  0  0  0  0  0  0
    4.5502   -7.4440    5.3603 H   0  0  0  0  0  0  0  0  0  0  0  0
    2.0703   -7.7903    5.1829 H   0  0  0  0  0  0  0  0  0  0  0  0
    0.7406   -6.2044    3.7742 H   0  0  0  0  0  0  0  0  0  0  0  0
  1  2  3  0
  2  3  1  0
  3 23  1  0
  3  4  2  0
  4  6  1  0
  4  5  1  0
  5 29  1  0
  5 28  1  0
  6 10  1  0
  6  7  1  0
  7 14  1  0
  7  8  1  0
  7 30  1  6
  8  9  2  0
  8 31  1  0
  9 10  1  0
  9 32  1  0
 10 11  1  0
 10 33  1  6
 11 12  1  1
 11 14  1  0
 11 16  1  0
 12 13  3  0
 14 15  1  0
 14 34  1  6
 16 17  1  0
 16 23  1  0
 16 35  1  1
 17 22  1  0
 17 18  2  0
 18 19  1  0
 18 36  1  0
 19 20  2  0
 19 37  1  0
 20 21  1  0
 20 38  1  0
 21 22  2  0
 21 39  1  0
 23 24  1  0
 23 26  1  0
 24 25  3  0
 26 27  3  0
M  END
>  <i_m_ct_stereo_status>  (344) 
1

>  <s_m_source_file>  (344) 
/var/tmp/pbs.5076255.sched01/tmpulc5pjk6/123bob0etdf.sdf

>  <i_m_source_file_index>  (344) 
27

>  <i_lp_mmshare_version>  (344) 
48012

>  <i_f3d_flags>  (344) 
0

>  <s_epik_input>  (344) 
TiNDW0NAXTEyW0NASF0zTihbQ0BASF0oW0NAQEhdMUNsKVtDSF09W0NIXTMpQyg9Ti9bSF0pXFtDQEBIXShDI04pQyhDI04pKEMjTilbQ0BASF0yYzRbY0hdW2NIXVtjSF1bY0hdbjQ=

>  <s_epik_cmdline>  (344) 
J2VwaWtfcHl0aG9uJywgJy1waHQnLCAnMi4wJywgJy1waCcsICc3LjAnLCAnLXRuJywgJzgnLCAnLW1hJywgJzIwMCcsICctaW1hZScsICc8aW5maWxlLm1hZT4nLCAnLW9tYWUnLCAnPG91dGZpbGUubWFlPic=

>  <r_lp_tautomer_probability>  (344) 
1

>  <r_epik_Ionization_Penalty>  (344) 
6.6681e-06

>  <r_epik_Ionization_Penalty_Charging>  (344) 
0

>  <r_epik_Ionization_Penalty_Neutral>  (344) 
6.6681e-06

>  <r_epik_State_Penalty>  (344) 
-0

>  <r_epik_Charging_Adjusted_Penalty>  (344) 
0

>  <i_epik_Tot_Q>  (344) 
0

>  <i_epik_Tot_abs_Q>  (344) 
0

>  <s_lp_Force_Field>  (344) 
OPLS3e

>  <r_lp_Energy>  (344) 
54.0465

>  <b_lp_Chiralities_Consistent>  (344) 
1

>  <s_lp_Variant>  (344) 
97:0-1

>  <s_i_glide_gridfile>  (344) 
pfpi4k_grid

>  <i_i_glide_lignum>  (344) 
27

>  <i_i_glide_rotatable_bonds>  (344) 
5

>  <r_i_docking_score>  (344) 
-3.18803

>  <r_i_glide_ligand_efficiency>  (344) 
-0.118075

>  <r_i_glide_ligand_efficiency_sa>  (344) 
-0.354226

>  <r_i_glide_ligand_efficiency_ln>  (344) 
-0.742121

>  <r_i_glide_gscore>  (344) 
-3.18803

>  <r_i_glide_lipo>  (344) 
-0.157556

>  <r_i_glide_hbond>  (344) 
-0.313239

>  <r_i_glide_metal>  (344) 
-0

>  <r_i_glide_rewards>  (344) 
-1.11033

>  <r_i_glide_evdw>  (344) 
-21.8529

>  <r_i_glide_ecoul>  (344) 
-3.94252

>  <r_i_glide_erotb>  (344) 
0.138336

>  <r_i_glide_esite>  (344) 
-0.0612169

>  <r_i_glide_emodel>  (344) 
-28.9135

>  <r_i_glide_energy>  (344) 
-25.7954

>  <r_i_glide_einternal>  (344) 
4.97219

>  <r_i_glide_intrahb_reward>  (344) 
-0

>  <i_i_glide_confnum>  (344) 
1

>  <i_i_glide_posenum>  (344) 
36

>  <r_i_glide_eff_state_penalty>  (344) 
0

>  <ligand_id>  (344) 
97

>  <original_smiles>  (344) 
N#CC1C(=N)N2C3C=CC2C(C#N)(C3Cl)C(c2ccccn2)C1(C#N)C#N

>  <smiles>  (344) 
[H]C1=C([H])C2([H])N3C(N([H])[H])=C(C#N)C(C#N)(C#N)C([H])(c4nc([H])c([H])c([H])c4[H])C2(C#N)C([H])(Cl)C13[H]

$$$$
97:0:1
     RDKit          3D

 39 42  0  0  1  0  0  0  0  0999 V2000
    2.3727   -2.2246    7.6163 N   0  0  0  0  0  0  0  0  0  0  0  0
    2.5551   -2.3004    6.4743 C   0  0  0  0  0  0  0  0  0  0  0  0
    2.8314   -2.3365    5.0664 C   0  0  0  0  0  0  0  0  0  0  0  0
    3.3457   -1.2131    4.5011 C   0  0  0  0  0  0  0  0  0  0  0  0
    3.6478   -0.1198    5.2712 N   0  0  0  0  0  0  0  0  0  0  0  0
    3.6452   -1.1861    3.1705 N   0  0  0  0  0  0  0  0  0  0  0  0
    4.9246   -1.4550    2.5568 C   0  0  2  0  0  0  0  0  0  0  0  0
    4.8043   -0.7071    1.2640 C   0  0  0  0  0  0  0  0  0  0  0  0
    3.5203   -0.7360    0.9487 C   0  0  0  0  0  0  0  0  0  0  0  0
    2.8339   -1.5239    2.0372 C   0  0  1  0  0  0  0  0  0  0  0  0
    3.2104   -3.0220    1.9120 C   0  0  1  0  0  0  0  0  0  0  0  0
    2.9665   -3.4365    0.5175 C   0  0  0  0  0  0  0  0  0  0  0  0
    2.7733   -3.7576   -0.5758 N   0  0  0  0  0  0  0  0  0  0  0  0
    4.7396   -2.9505    2.2885 C   0  0  1  0  0  0  0  0  0  0  0  0
    5.8815   -3.6007    1.0707 Cl  0  0  0  0  0  0  0  0  0  0  0  0
    2.3154   -3.8611    2.8849 C   0  0  1  0  0  0  0  0  0  0  0  0
    2.2428   -5.3375    2.4513 C   0  0  0  0  0  0  0  0  0  0  0  0
    3.4246   -6.1115    2.3166 C   0  0  0  0  0  0  0  0  0  0  0  0
    3.3199   -7.4680    1.9337 C   0  0  0  0  0  0  0  0  0  0  0  0
    2.0356   -7.9934    1.6874 C   0  0  0  0  0  0  0  0  0  0  0  0
    0.9199   -7.1449    1.8300 C   0  0  0  0  0  0  0  0  0  0  0  0
    1.0172   -5.8513    2.2027 N   0  0  0  0  0  0  0  0  0  0  0  0
    2.4815   -3.7253    4.4476 C   0  0  0  0  0  0  0  0  0  0  0  0
    3.5145   -4.6320    4.9651 C   0  0  0  0  0  0  0  0  0  0  0  0
    4.3331   -5.3357    5.3828 N   0  0  0  0  0  0  0  0  0  0  0  0
    1.2194   -4.1964    5.0404 C   0  0  0  0  0  0  0  0  0  0  0  0
    0.2289   -4.5609    5.5120 N   0  0  0  0  0  0  0  0  0  0  0  0
    4.0452    0.6854    4.8095 H   0  0  0  0  0  0  0  0  0  0  0  0
    3.5064   -0.0212    6.2580 H   0  0  0  0  0  0  0  0  0  0  0  0
    5.7869   -1.1704    3.1686 H   0  0  0  0  0  0  0  0  0  0  0  0
    5.6210   -0.2412    0.7265 H   0  0  0  0  0  0  0  0  0  0  0  0
    3.0348   -0.3021    0.0829 H   0  0  0  0  0  0  0  0  0  0  0  0
    1.7752   -1.2709    2.1553 H   0  0  0  0  0  0  0  0  0  0  0  0
    4.9596   -3.4989    3.2076 H   0  0  0  0  0  0  0  0  0  0  0  0
    1.3140   -3.4746    2.6998 H   0  0  0  0  0  0  0  0  0  0  0  0
    4.4012   -5.7063    2.5242 H   0  0  0  0  0  0  0  0  0  0  0  0
    4.1977   -8.0830    1.8394 H   0  0  0  0  0  0  0  0  0  0  0  0
    1.9079   -9.0232    1.3790 H   0  0  0  0  0  0  0  0  0  0  0  0
   -0.0715   -7.5150    1.6305 H   0  0  0  0  0  0  0  0  0  0  0  0
  1  2  3  0
  2  3  1  0
  3 23  1  0
  3  4  2  0
  4  6  1  0
  4  5  1  0
  5 29  1  0
  5 28  1  0
  6 10  1  0
  6  7  1  0
  7 14  1  0
  7  8  1  0
  7 30  1  1
  8  9  2  0
  8 31  1  0
  9 10  1  0
  9 32  1  0
 10 11  1  0
 10 33  1  1
 11 12  1  6
 11 14  1  0
 11 16  1  0
 12 13  3  0
 14 15  1  0
 14 34  1  1
 16 17  1  0
 16 23  1  0
 16 35  1  1
 17 22  1  0
 17 18  2  0
 18 19  1  0
 18 36  1  0
 19 20  2  0
 19 37  1  0
 20 21  1  0
 20 38  1  0
 21 22  2  0
 21 39  1  0
 23 24  1  0
 23 26  1  0
 24 25  3  0
 26 27  3  0
M  END
>  <i_m_ct_stereo_status>  (345) 
1

>  <s_m_source_file>  (345) 
/var/tmp/pbs.5076255.sched01/tmpulc5pjk6/123bob0etdf.sdf

>  <i_m_source_file_index>  (345) 
27

>  <i_lp_mmshare_version>  (345) 
48012

>  <i_f3d_flags>  (345) 
0

>  <s_epik_input>  (345) 
TiNDW0NAXTEyW0NASF0zTihbQ0BASF0oW0NAQEhdMUNsKVtDSF09W0NIXTMpQyg9Ti9bSF0pXFtDQEBIXShDI04pQyhDI04pKEMjTilbQ0BASF0yYzRbY0hdW2NIXVtjSF1bY0hdbjQ=

>  <s_epik_cmdline>  (345) 
J2VwaWtfcHl0aG9uJywgJy1waHQnLCAnMi4wJywgJy1waCcsICc3LjAnLCAnLXRuJywgJzgnLCAnLW1hJywgJzIwMCcsICctaW1hZScsICc8aW5maWxlLm1hZT4nLCAnLW9tYWUnLCAnPG91dGZpbGUubWFlPic=

>  <r_lp_tautomer_probability>  (345) 
1

>  <r_epik_Ionization_Penalty>  (345) 
6.6681e-06

>  <r_epik_Ionization_Penalty_Charging>  (345) 
0

>  <r_epik_Ionization_Penalty_Neutral>  (345) 
6.6681e-06

>  <r_epik_State_Penalty>  (345) 
-0

>  <r_epik_Charging_Adjusted_Penalty>  (345) 
0

>  <i_epik_Tot_Q>  (345) 
0

>  <i_epik_Tot_abs_Q>  (345) 
0

>  <s_lp_Force_Field>  (345) 
OPLS3e

>  <r_lp_Energy>  (345) 
54.0465

>  <b_lp_Chiralities_Consistent>  (345) 
1

>  <s_lp_Variant>  (345) 
97:0-1

>  <s_i_glide_gridfile>  (345) 
pfpi4k_grid

>  <i_i_glide_lignum>  (345) 
27

>  <i_i_glide_rotatable_bonds>  (345) 
5

>  <r_i_docking_score>  (345) 
-2.7217

>  <r_i_glide_ligand_efficiency>  (345) 
-0.100804

>  <r_i_glide_ligand_efficiency_sa>  (345) 
-0.302411

>  <r_i_glide_ligand_efficiency_ln>  (345) 
-0.633567

>  <r_i_glide_gscore>  (345) 
-2.7217

>  <r_i_glide_lipo>  (345) 
-0.340701

>  <r_i_glide_hbond>  (345) 
-0.0635971

>  <r_i_glide_metal>  (345) 
-0

>  <r_i_glide_rewards>  (345) 
-0.867338

>  <r_i_glide_evdw>  (345) 
-21.525

>  <r_i_glide_ecoul>  (345) 
-3.31409

>  <r_i_glide_erotb>  (345) 
0.138336

>  <r_i_glide_esite>  (345) 
-0.015034

>  <r_i_glide_emodel>  (345) 
-26.2747

>  <r_i_glide_energy>  (345) 
-24.8391

>  <r_i_glide_einternal>  (345) 
6.62187

>  <r_i_glide_intrahb_reward>  (345) 
-0

>  <i_i_glide_confnum>  (345) 
2

>  <i_i_glide_posenum>  (345) 
2

>  <r_i_glide_eff_state_penalty>  (345) 
0

>  <ligand_id>  (345) 
97

>  <original_smiles>  (345) 
N#CC1C(=N)N2C3C=CC2C(C#N)(C3Cl)C(c2ccccn2)C1(C#N)C#N

>  <smiles>  (345) 
[H]C1=C([H])C2([H])N3C(N([H])[H])=C(C#N)C(C#N)(C#N)C([H])(c4nc([H])c([H])c([H])c4[H])C2(C#N)C([H])(Cl)C13[H]

$$$$
97:0:2
     RDKit          3D

 39 42  0  0  1  0  0  0  0  0999 V2000
    0.2246   -6.8076    6.3570 N   0  0  0  0  0  0  0  0  0  0  0  0
    1.1704   -6.9088    5.7014 C   0  0  0  0  0  0  0  0  0  0  0  0
    2.3291   -7.0548    4.8740 C   0  0  0  0  0  0  0  0  0  0  0  0
    3.0903   -8.1649    5.0664 C   0  0  0  0  0  0  0  0  0  0  0  0
    2.7464   -9.1124    6.0127 N   0  0  0  0  0  0  0  0  0  0  0  0
    4.2251   -8.4266    4.3332 N   0  0  0  0  0  0  0  0  0  0  0  0
    4.2870   -9.1868    3.1018 C   0  0  2  0  0  0  0  0  0  0  0  0
    5.7471   -9.5569    3.0875 C   0  0  0  0  0  0  0  0  0  0  0  0
    6.3870   -8.5529    3.6719 C   0  0  0  0  0  0  0  0  0  0  0  0
    5.3235   -7.5361    4.0384 C   0  0  1  0  0  0  0  0  0  0  0  0
    4.7946   -6.8532    2.7507 C   0  0  1  0  0  0  0  0  0  0  0  0
    5.9604   -6.3721    1.9677 C   0  0  0  0  0  0  0  0  0  0  0  0
    6.8730   -5.9990    1.3636 N   0  0  0  0  0  0  0  0  0  0  0  0
    4.0401   -8.0580    2.0941 C   0  0  1  0  0  0  0  0  0  0  0  0
    4.6144   -8.5021    0.4852 Cl  0  0  0  0  0  0  0  0  0  0  0  0
    3.8768   -5.6560    3.1440 C   0  0  1  0  0  0  0  0  0  0  0  0
    3.7695   -4.6484    1.9920 C   0  0  0  0  0  0  0  0  0  0  0  0
    4.2745   -3.3359    2.1156 C   0  0  0  0  0  0  0  0  0  0  0  0
    4.1374   -2.4519    1.0278 C   0  0  0  0  0  0  0  0  0  0  0  0
    3.4952   -2.9072   -0.1348 C   0  0  0  0  0  0  0  0  0  0  0  0
    3.0306   -4.2334   -0.1678 C   0  0  0  0  0  0  0  0  0  0  0  0
    3.1759   -5.0910    0.8641 N   0  0  0  0  0  0  0  0  0  0  0  0
    2.4830   -5.9116    3.8432 C   0  0  0  0  0  0  0  0  0  0  0  0
    1.3865   -6.1181    2.8813 C   0  0  0  0  0  0  0  0  0  0  0  0
    0.5099   -6.2753    2.1360 N   0  0  0  0  0  0  0  0  0  0  0  0
    2.1462   -4.6508    4.5272 C   0  0  0  0  0  0  0  0  0  0  0  0
    1.8800   -3.6615    5.0695 N   0  0  0  0  0  0  0  0  0  0  0  0
    3.2783   -9.9689    6.0800 H   0  0  0  0  0  0  0  0  0  0  0  0
    1.8999   -9.1265    6.5702 H   0  0  0  0  0  0  0  0  0  0  0  0
    3.6097  -10.0380    3.0714 H   0  0  0  0  0  0  0  0  0  0  0  0
    6.1511  -10.4727    2.6772 H   0  0  0  0  0  0  0  0  0  0  0  0
    7.4508   -8.4587    3.8473 H   0  0  0  0  0  0  0  0  0  0  0  0
    5.6089   -6.8920    4.8738 H   0  0  0  0  0  0  0  0  0  0  0  0
    2.9734   -7.8957    1.9836 H   0  0  0  0  0  0  0  0  0  0  0  0
    4.4616   -5.1286    3.8996 H   0  0  0  0  0  0  0  0  0  0  0  0
    4.7555   -3.0055    3.0242 H   0  0  0  0  0  0  0  0  0  0  0  0
    4.5066   -1.4394    1.0882 H   0  0  0  0  0  0  0  0  0  0  0  0
    3.3421   -2.2543   -0.9839 H   0  0  0  0  0  0  0  0  0  0  0  0
    2.5021   -4.6031   -1.0307 H   0  0  0  0  0  0  0  0  0  0  0  0
  1  2  3  0
  2  3  1  0
  3 23  1  0
  3  4  2  0
  4  6  1  0
  4  5  1  0
  5 29  1  0
  5 28  1  0
  6 10  1  0
  6  7  1  0
  7 14  1  0
  7  8  1  0
  7 30  1  1
  8  9  2  0
  8 31  1  0
  9 10  1  0
  9 32  1  0
 10 11  1  0
 10 33  1  1
 11 12  1  6
 11 14  1  0
 11 16  1  0
 12 13  3  0
 14 15  1  0
 14 34  1  6
 16 17  1  0
 16 23  1  0
 16 35  1  1
 17 22  1  0
 17 18  2  0
 18 19  1  0
 18 36  1  0
 19 20  2  0
 19 37  1  0
 20 21  1  0
 20 38  1  0
 21 22  2  0
 21 39  1  0
 23 24  1  0
 23 26  1  0
 24 25  3  0
 26 27  3  0
M  END
>  <i_m_ct_stereo_status>  (346) 
1

>  <s_m_source_file>  (346) 
/var/tmp/pbs.5076255.sched01/tmpulc5pjk6/123bob0etdf.sdf

>  <i_m_source_file_index>  (346) 
27

>  <i_lp_mmshare_version>  (346) 
48012

>  <i_f3d_flags>  (346) 
0

>  <s_epik_input>  (346) 
TiNDW0NAXTEyW0NASF0zTihbQ0BASF0oW0NAQEhdMUNsKVtDSF09W0NIXTMpQyg9Ti9bSF0pXFtDQEBIXShDI04pQyhDI04pKEMjTilbQ0BASF0yYzRbY0hdW2NIXVtjSF1bY0hdbjQ=

>  <s_epik_cmdline>  (346) 
J2VwaWtfcHl0aG9uJywgJy1waHQnLCAnMi4wJywgJy1waCcsICc3LjAnLCAnLXRuJywgJzgnLCAnLW1hJywgJzIwMCcsICctaW1hZScsICc8aW5maWxlLm1hZT4nLCAnLW9tYWUnLCAnPG91dGZpbGUubWFlPic=

>  <r_lp_tautomer_probability>  (346) 
1

>  <r_epik_Ionization_Penalty>  (346) 
6.6681e-06

>  <r_epik_Ionization_Penalty_Charging>  (346) 
0

>  <r_epik_Ionization_Penalty_Neutral>  (346) 
6.6681e-06

>  <r_epik_State_Penalty>  (346) 
-0

>  <r_epik_Charging_Adjusted_Penalty>  (346) 
0

>  <i_epik_Tot_Q>  (346) 
0

>  <i_epik_Tot_abs_Q>  (346) 
0

>  <s_lp_Force_Field>  (346) 
OPLS3e

>  <r_lp_Energy>  (346) 
54.0465

>  <b_lp_Chiralities_Consistent>  (346) 
1

>  <s_lp_Variant>  (346) 
97:0-1

>  <s_i_glide_gridfile>  (346) 
pfpi4k_grid

>  <i_i_glide_lignum>  (346) 
27

>  <i_i_glide_rotatable_bonds>  (346) 
5

>  <r_i_docking_score>  (346) 
-2.70115

>  <r_i_glide_ligand_efficiency>  (346) 
-0.100043

>  <r_i_glide_ligand_efficiency_sa>  (346) 
-0.300128

>  <r_i_glide_ligand_efficiency_ln>  (346) 
-0.628784

>  <r_i_glide_gscore>  (346) 
-2.70115

>  <r_i_glide_lipo>  (346) 
-0.0221416

>  <r_i_glide_hbond>  (346) 
-0.123364

>  <r_i_glide_metal>  (346) 
-0

>  <r_i_glide_rewards>  (346) 
-0.926818

>  <r_i_glide_evdw>  (346) 
-18.875

>  <r_i_glide_ecoul>  (346) 
-5.1082

>  <r_i_glide_erotb>  (346) 
0.138336

>  <r_i_glide_esite>  (346) 
-0.0571848

>  <r_i_glide_emodel>  (346) 
-26.2168

>  <r_i_glide_energy>  (346) 
-23.9832

>  <r_i_glide_einternal>  (346) 
5.00446

>  <r_i_glide_intrahb_reward>  (346) 
-0

>  <i_i_glide_confnum>  (346) 
1

>  <i_i_glide_posenum>  (346) 
10

>  <r_i_glide_eff_state_penalty>  (346) 
0

>  <ligand_id>  (346) 
97

>  <original_smiles>  (346) 
N#CC1C(=N)N2C3C=CC2C(C#N)(C3Cl)C(c2ccccn2)C1(C#N)C#N

>  <smiles>  (346) 
[H]C1=C([H])C2([H])N3C(N([H])[H])=C(C#N)C(C#N)(C#N)C([H])(c4nc([H])c([H])c([H])c4[H])C2(C#N)C([H])(Cl)C13[H]

$$$$
98:0:0
     RDKit          3D

 40 42  0  0  1  0  0  0  0  0999 V2000
   -4.4732   -7.1800   -5.6405 C   0  0  0  0  0  0  0  0  0  0  0  0
   -5.8992   -7.4208   -5.1382 C   0  0  2  0  0  0  0  0  0  0  0  0
   -6.4084   -8.8130   -5.5597 C   0  0  0  0  0  0  0  0  0  0  0  0
   -6.5286   -9.0405   -7.3524 S   0  0  0  0  0  0  0  0  0  0  0  0
   -8.3344   -9.2552   -7.5578 C   0  0  2  0  0  0  0  0  0  0  0  0
   -8.7314  -10.7483   -7.4520 C   0  0  2  0  0  0  0  0  0  0  0  0
   -8.0795  -11.5358   -8.6106 C   0  0  0  0  0  0  0  0  0  0  0  0
   -8.5667  -10.9538   -9.9641 C   0  0  1  0  0  0  0  0  0  0  0  0
  -10.0980  -11.1184  -10.0484 C   0  0  0  0  0  0  0  0  0  0  0  0
  -10.7610  -10.3405   -8.8971 C   0  0  1  0  0  0  0  0  0  0  0  0
  -10.2710  -10.8968   -7.5410 C   0  0  0  0  0  0  0  0  0  0  0  0
  -10.3954   -8.8501   -8.9898 C   0  0  0  0  0  0  0  0  0  0  0  0
   -8.8548   -8.6842   -8.9048 C   0  0  2  0  0  0  0  0  0  0  0  0
   -8.2056   -9.4549  -10.0667 C   0  0  0  0  0  0  0  0  0  0  0  0
   -6.8210   -6.2233   -5.5062 C   0  0  0  0  0  0  0  0  0  0  0  0
   -6.9670   -5.2560   -4.6075 N   0  0  0  0  0  0  0  0  0  0  0  0
   -7.4079   -6.1445   -6.5790 O   0  0  0  0  0  0  0  0  0  0  0  0
   -4.1073   -6.2177   -5.2894 H   0  0  0  0  0  0  0  0  0  0  0  0
   -4.4242   -7.1842   -6.7276 H   0  0  0  0  0  0  0  0  0  0  0  0
   -3.7954   -7.9487   -5.2750 H   0  0  0  0  0  0  0  0  0  0  0  0
   -5.8270   -7.4380   -4.0624 H   0  0  0  0  0  0  0  0  0  0  0  0
   -5.7318   -9.5755   -5.1618 H   0  0  0  0  0  0  0  0  0  0  0  0
   -7.3830   -9.0264   -5.1197 H   0  0  0  0  0  0  0  0  0  0  0  0
   -8.8247   -8.6841   -6.7584 H   0  0  0  0  0  0  0  0  0  0  0  0
   -8.3946  -11.1414   -6.4924 H   0  0  0  0  0  0  0  0  0  0  0  0
   -6.9940  -11.4979   -8.5706 H   0  0  0  0  0  0  0  0  0  0  0  0
   -8.3397  -12.5919   -8.5371 H   0  0  0  0  0  0  0  0  0  0  0  0
   -8.0961  -11.4935  -10.7803 H   0  0  0  0  0  0  0  0  0  0  0  0
  -10.4632  -10.7433  -11.0086 H   0  0  0  0  0  0  0  0  0  0  0  0
  -10.3590  -12.1694   -9.9942 H   0  0  0  0  0  0  0  0  0  0  0  0
  -11.8427  -10.4478   -8.9723 H   0  0  0  0  0  0  0  0  0  0  0  0
  -10.5483  -11.9418   -7.4429 H   0  0  0  0  0  0  0  0  0  0  0  0
  -10.7645  -10.3748   -6.7242 H   0  0  0  0  0  0  0  0  0  0  0  0
  -10.7568   -8.4396   -9.9351 H   0  0  0  0  0  0  0  0  0  0  0  0
  -10.8881   -8.2840   -8.2022 H   0  0  0  0  0  0  0  0  0  0  0  0
   -8.6056   -7.6256   -8.9721 H   0  0  0  0  0  0  0  0  0  0  0  0
   -7.1327   -9.3193  -10.0348 H   0  0  0  0  0  0  0  0  0  0  0  0
   -8.5488   -9.0474  -11.0270 H   0  0  0  0  0  0  0  0  0  0  0  0
   -6.4907   -5.2722   -3.7170 H   0  0  0  0  0  0  0  0  0  0  0  0
   -7.5789   -4.4902   -4.8401 H   0  0  0  0  0  0  0  0  0  0  0  0
  1  2  1  0
  1 18  1  0
  1 19  1  0
  1 20  1  0
  2  3  1  0
  2 15  1  0
  2 21  1  1
  3  4  1  0
  3 22  1  0
  3 23  1  0
  4  5  1  0
  5 13  1  0
  5  6  1  0
  5 24  1  1
  6 11  1  0
  6  7  1  0
  6 25  1  1
  7  8  1  0
  7 26  1  0
  7 27  1  0
  8 14  1  0
  8  9  1  0
  8 28  1  6
  9 10  1  0
  9 29  1  0
  9 30  1  0
 10 11  1  0
 10 12  1  0
 10 31  1  1
 11 32  1  0
 11 33  1  0
 12 13  1  0
 12 34  1  0
 12 35  1  0
 13 14  1  0
 13 36  1  6
 14 37  1  0
 14 38  1  0
 15 16  1  0
 15 17  2  0
 16 39  1  0
 16 40  1  0
M  END
>  <i_m_ct_stereo_status>  (347) 
1

>  <s_m_source_file>  (347) 
/var/tmp/pbs.5076255.sched01/tmpulc5pjk6/123bob0etdf.sdf

>  <i_m_source_file_index>  (347) 
28

>  <i_lp_mmshare_version>  (347) 
48012

>  <i_f3d_flags>  (347) 
0

>  <s_epik_input>  (347) 
W05IMl1DKD1PKVtDQEhdKFtDSDNdKVtDSDJdU1tDQEhdKFtDQEhdMTIpW0NAQEhdM1tDSDJdW0NASF0oW0NIMl0yKVtDSDJdW0NASF0oW0NIMl0xKVtDSDJdMw==

>  <s_epik_cmdline>  (347) 
J2VwaWtfcHl0aG9uJywgJy1waHQnLCAnMi4wJywgJy1waCcsICc3LjAnLCAnLXRuJywgJzgnLCAnLW1hJywgJzIwMCcsICctaW1hZScsICc8aW5maWxlLm1hZT4nLCAnLW9tYWUnLCAnPG91dGZpbGUubWFlPic=

>  <r_lp_tautomer_probability>  (347) 
1

>  <r_epik_Ionization_Penalty>  (347) 
2.94984e-08

>  <r_epik_Ionization_Penalty_Charging>  (347) 
0

>  <r_epik_Ionization_Penalty_Neutral>  (347) 
2.94984e-08

>  <r_epik_State_Penalty>  (347) 
-0

>  <r_epik_Charging_Adjusted_Penalty>  (347) 
0

>  <i_epik_Tot_Q>  (347) 
0

>  <i_epik_Tot_abs_Q>  (347) 
0

>  <s_lp_Force_Field>  (347) 
OPLS3e

>  <r_lp_Energy>  (347) 
-0.799121

>  <b_lp_Chiralities_Consistent>  (347) 
1

>  <s_lp_Variant>  (347) 
98:0-1

>  <s_i_glide_gridfile>  (347) 
pfpi4k_grid

>  <i_i_glide_lignum>  (347) 
28

>  <i_i_glide_rotatable_bonds>  (347) 
4

>  <r_i_docking_score>  (347) 
-3.97556

>  <r_i_glide_ligand_efficiency>  (347) 
-0.233856

>  <r_i_glide_ligand_efficiency_sa>  (347) 
-0.60131

>  <r_i_glide_ligand_efficiency_ln>  (347) 
-1.03713

>  <r_i_glide_gscore>  (347) 
-3.97556

>  <r_i_glide_lipo>  (347) 
-1.22335

>  <r_i_glide_hbond>  (347) 
0

>  <r_i_glide_metal>  (347) 
-0

>  <r_i_glide_rewards>  (347) 
-2.21695

>  <r_i_glide_evdw>  (347) 
-20.4571

>  <r_i_glide_ecoul>  (347) 
-0.397045

>  <r_i_glide_erotb>  (347) 
0.547154

>  <r_i_glide_esite>  (347) 
0

>  <r_i_glide_emodel>  (347) 
-23.6955

>  <r_i_glide_energy>  (347) 
-20.8541

>  <r_i_glide_einternal>  (347) 
3.70396

>  <r_i_glide_intrahb_reward>  (347) 
-0

>  <i_i_glide_confnum>  (347) 
2

>  <i_i_glide_posenum>  (347) 
25

>  <r_i_glide_eff_state_penalty>  (347) 
0

>  <ligand_id>  (347) 
98

>  <original_smiles>  (347) 
CC(CSC1C2CC3CC(C2)CC1C3)C(N)=O

>  <smiles>  (347) 
[H]N([H])C(=O)C([H])(C([H])([H])[H])C([H])([H])SC1([H])C2([H])C([H])([H])C3([H])C([H])([H])C([H])(C2([H])[H])C([H])([H])C1([H])C3([H])[H]

$$$$
100:0:0
     RDKit          3D

 51 55  0  0  1  0  0  0  0  0999 V2000
    4.1213   -5.6743    2.9767 C   0  0  0  0  0  0  0  0  0  0  0  0
    3.5986   -4.7273    2.0361 O   0  0  0  0  0  0  0  0  0  0  0  0
    4.1573   -3.4124    2.0536 C   0  0  2  0  0  0  0  0  0  0  0  0
    5.7032   -3.4401    1.8389 C   0  0  0  0  0  0  0  0  0  0  0  0
    6.2637   -2.7010    0.8449 C   0  0  0  0  0  0  0  0  0  0  0  0
    5.3290   -1.8219   -0.0030 C   0  0  2  0  0  0  0  0  0  0  0  0
    4.2615   -1.2626    0.9609 C   0  0  1  0  0  0  0  0  0  0  0  0
    3.2159   -0.2152    1.0165 C   0  0  0  0  0  0  0  0  0  0  0  0
    2.3169   -0.5171    2.2404 C   0  0  0  0  0  0  0  0  0  0  0  0
    1.1850    0.3253    2.3550 C   0  0  0  0  0  0  0  0  0  0  0  0
    0.2252    0.1284    3.3601 C   0  0  0  0  0  0  0  0  0  0  0  0
    0.3743   -0.9474    4.2510 C   0  0  0  0  0  0  0  0  0  0  0  0
    1.4801   -1.8032    4.1447 C   0  0  0  0  0  0  0  0  0  0  0  0
    2.5109   -1.6072    3.1961 C   0  0  0  0  0  0  0  0  0  0  0  0
    3.6847   -2.5978    3.3121 C   0  0  0  0  0  0  0  0  0  0  0  0
    4.3869   -2.7487    4.4641 C   0  0  0  0  0  0  0  0  0  0  0  0
    4.2491   -2.0640    5.8548 C   0  0  0  0  0  0  0  0  0  0  0  0
    3.2907   -2.4197    6.5568 O   0  0  0  0  0  0  0  0  0  0  0  0
    5.2121   -1.3152    6.1736 O   0  0  0  0  0  0  0  0  0  0  0  0
    3.6263   -2.6625    0.8422 C   0  0  1  0  0  0  0  0  0  0  0  0
    4.2664   -2.7683   -0.5728 C   0  0  1  0  0  0  0  0  0  0  0  0
    3.4331   -2.2007   -1.6857 N   0  0  0  0  0  0  0  0  0  0  0  0
    4.1590   -1.3102   -2.6138 C   0  0  0  0  0  0  0  0  0  0  0  0
    3.3070   -1.2317   -3.8718 C   0  0  0  0  0  0  0  0  0  0  0  0
    2.4613   -2.5113   -3.8444 C   0  0  0  0  0  0  0  0  0  0  0  0
    2.8669   -3.2364   -2.5642 C   0  0  0  0  0  0  0  0  0  0  0  0
    3.4988   -6.5717    2.9972 H   0  0  0  0  0  0  0  0  0  0  0  0
    4.1451   -5.3039    3.9975 H   0  0  0  0  0  0  0  0  0  0  0  0
    5.1311   -5.9745    2.6960 H   0  0  0  0  0  0  0  0  0  0  0  0
    6.3149   -4.1045    2.4445 H   0  0  0  0  0  0  0  0  0  0  0  0
    7.3090   -2.7290    0.5919 H   0  0  0  0  0  0  0  0  0  0  0  0
    5.8476   -1.0993   -0.6338 H   0  0  0  0  0  0  0  0  0  0  0  0
    4.8771   -1.0376    1.8401 H   0  0  0  0  0  0  0  0  0  0  0  0
    3.6402    0.7909    1.0952 H   0  0  0  0  0  0  0  0  0  0  0  0
    2.6044   -0.2463    0.1128 H   0  0  0  0  0  0  0  0  0  0  0  0
    1.0331    1.1214    1.6482 H   0  0  0  0  0  0  0  0  0  0  0  0
   -0.6323    0.7742    3.4339 H   0  0  0  0  0  0  0  0  0  0  0  0
   -0.3558   -1.1225    5.0177 H   0  0  0  0  0  0  0  0  0  0  0  0
    1.5430   -2.6367    4.8242 H   0  0  0  0  0  0  0  0  0  0  0  0
    5.2328   -3.4239    4.4362 H   0  0  0  0  0  0  0  0  0  0  0  0
    2.5295   -2.6778    0.7571 H   0  0  0  0  0  0  0  0  0  0  0  0
    4.6774   -3.7662   -0.7526 H   0  0  0  0  0  0  0  0  0  0  0  0
    4.3700   -0.3207   -2.2076 H   0  0  0  0  0  0  0  0  0  0  0  0
    5.1076   -1.7902   -2.8683 H   0  0  0  0  0  0  0  0  0  0  0  0
    2.6639   -0.3521   -3.8201 H   0  0  0  0  0  0  0  0  0  0  0  0
    3.9164   -1.1409   -4.7683 H   0  0  0  0  0  0  0  0  0  0  0  0
    1.4047   -2.2622   -3.8071 H   0  0  0  0  0  0  0  0  0  0  0  0
    2.6153   -3.1425   -4.7055 H   0  0  0  0  0  0  0  0  0  0  0  0
    3.6774   -3.9107   -2.8412 H   0  0  0  0  0  0  0  0  0  0  0  0
    2.0686   -3.8204   -2.1049 H   0  0  0  0  0  0  0  0  0  0  0  0
    2.6587   -1.6674   -1.3142 H   0  0  0  0  0  0  0  0  0  0  0  0
  1  2  1  0
  1 27  1  0
  1 28  1  0
  1 29  1  0
  3  2  1  1
  3 15  1  0
  3 20  1  0
  3  4  1  0
  4  5  2  0
  4 30  1  0
  5  6  1  0
  5 31  1  0
  6 21  1  0
  6  7  1  0
  6 32  1  6
  7  8  1  0
  7 20  1  0
  7 33  1  1
  8  9  1  0
  8 34  1  0
  8 35  1  0
  9 14  2  0
  9 10  1  0
 10 11  2  0
 10 36  1  0
 11 12  1  0
 11 37  1  0
 12 13  2  0
 12 38  1  0
 13 14  1  0
 13 39  1  0
 14 15  1  0
 15 16  2  3
 16 17  1  0
 16 40  1  0
 17 18  2  0
 17 19  1  0
 20 21  1  0
 20 41  1  6
 21 22  1  0
 21 42  1  6
 22 26  1  0
 22 23  1  0
 22 51  1  0
 23 24  1  0
 23 43  1  0
 23 44  1  0
 24 25  1  0
 24 45  1  0
 24 46  1  0
 25 26  1  0
 25 47  1  0
 25 48  1  0
 26 49  1  0
 26 50  1  0
M  CHG  2  19  -1  22   1
M  END
>  <i_m_ct_stereo_status>  (348) 
1

>  <s_m_source_file>  (348) 
/var/tmp/pbs.5076255.sched01/tmpulc5pjk6/123bob0etdf.sdf

>  <i_m_source_file_index>  (348) 
30

>  <i_lp_mmshare_version>  (348) 
48012

>  <i_f3d_flags>  (348) 
0

>  <s_epik_input>  (348) 
W0NIMl0xW0NIMl1bQ0gyXVtDSDJdTjFbQ0BIXTJbQ0BIXShbQ0hdPVtDSF0zKVtDQEhdKFtDQEBIXTJbQ0BAXTM0T1tDSDNdKVtDSDJdYzVjKFtjSF1bY0hdW2NIXVtjSF01KUNcND1bQ0hdL0MoPU8pW09IXQ==

>  <s_epik_cmdline>  (348) 
J2VwaWtfcHl0aG9uJywgJy1waHQnLCAnMi4wJywgJy1waCcsICc3LjAnLCAnLXRuJywgJzgnLCAnLW1hJywgJzIwMCcsICctaW1hZScsICc8aW5maWxlLm1hZT4nLCAnLW9tYWUnLCAnPG91dGZpbGUubWFlPic=

>  <r_lp_tautomer_probability>  (348) 
1

>  <r_epik_Ionization_Penalty>  (348) 
0.00272841

>  <r_epik_Ionization_Penalty_Charging>  (348) 
0.00272841

>  <r_epik_Ionization_Penalty_Neutral>  (348) 
3.09293e-13

>  <r_epik_State_Penalty>  (348) 
-0

>  <r_epik_Charging_Adjusted_Penalty>  (348) 
0.00272841

>  <i_epik_Tot_Q>  (348) 
0

>  <i_epik_Tot_abs_Q>  (348) 
2

>  <s_lp_Force_Field>  (348) 
OPLS3e

>  <r_lp_Energy>  (348) 
108.046

>  <b_lp_Chiralities_Consistent>  (348) 
1

>  <s_lp_Variant>  (348) 
100:0-1

>  <s_i_glide_gridfile>  (348) 
pfpi4k_grid

>  <i_i_glide_lignum>  (348) 
30

>  <i_i_glide_rotatable_bonds>  (348) 
3

>  <r_i_docking_score>  (348) 
-3.01464

>  <r_i_glide_ligand_efficiency>  (348) 
-0.115948

>  <r_i_glide_ligand_efficiency_sa>  (348) 
-0.343494

>  <r_i_glide_ligand_efficiency_ln>  (348) 
-0.707977

>  <r_i_glide_gscore>  (348) 
-3.01464

>  <r_i_glide_lipo>  (348) 
-0.502188

>  <r_i_glide_hbond>  (348) 
-0.165926

>  <r_i_glide_metal>  (348) 
-0

>  <r_i_glide_rewards>  (348) 
-1.01596

>  <r_i_glide_evdw>  (348) 
-22.3437

>  <r_i_glide_ecoul>  (348) 
-3.08663

>  <r_i_glide_erotb>  (348) 
0.30885

>  <r_i_glide_esite>  (348) 
-0.0592296

>  <r_i_glide_emodel>  (348) 
-28.9714

>  <r_i_glide_energy>  (348) 
-25.4303

>  <r_i_glide_einternal>  (348) 
3.94695

>  <r_i_glide_intrahb_reward>  (348) 
-0

>  <i_i_glide_confnum>  (348) 
4

>  <i_i_glide_posenum>  (348) 
3

>  <r_i_glide_eff_state_penalty>  (348) 
0

>  <ligand_id>  (348) 
100

>  <original_smiles>  (348) 
COC12C=CC3C(Cc4ccccc4C1=CC(=O)O)C2C3N1CCCC1

>  <smiles>  (348) 
[H]C(C(=O)[O-])=C1c2c([H])c([H])c([H])c([H])c2C([H])([H])C2([H])C3([H])C([H])=C([H])C1(OC([H])([H])[H])C2([H])C3([H])[N+]1([H])C([H])([H])C([H])([H])C([H])([H])C1([H])[H]

$$$$
100:0:1
     RDKit          3D

 51 55  0  0  1  0  0  0  0  0999 V2000
    1.5548   -6.7940    1.2043 C   0  0  0  0  0  0  0  0  0  0  0  0
    1.7910   -5.4739    0.6931 O   0  0  0  0  0  0  0  0  0  0  0  0
    2.8876   -4.7534    1.2680 C   0  0  2  0  0  0  0  0  0  0  0  0
    4.2337   -5.5146    1.1255 C   0  0  0  0  0  0  0  0  0  0  0  0
    5.3018   -4.9254    0.5180 C   0  0  0  0  0  0  0  0  0  0  0  0
    5.1330   -3.4608    0.0527 C   0  0  2  0  0  0  0  0  0  0  0  0
    4.2534   -2.7540    1.1136 C   0  0  1  0  0  0  0  0  0  0  0  0
    3.8646   -1.3827    1.5505 C   0  0  0  0  0  0  0  0  0  0  0  0
    2.6651   -1.5545    2.5072 C   0  0  0  0  0  0  0  0  0  0  0  0
    2.0738   -0.3338    2.9045 C   0  0  0  0  0  0  0  0  0  0  0  0
    0.9221   -0.2909    3.7082 C   0  0  0  0  0  0  0  0  0  0  0  0
    0.3253   -1.4966    4.1115 C   0  0  0  0  0  0  0  0  0  0  0  0
    0.8953   -2.7201    3.7178 C   0  0  0  0  0  0  0  0  0  0  0  0
    2.0864   -2.8270    2.9627 C   0  0  0  0  0  0  0  0  0  0  0  0
    2.5783   -4.2575    2.7141 C   0  0  0  0  0  0  0  0  0  0  0  0
    2.8034   -5.1197    3.7416 C   0  0  0  0  0  0  0  0  0  0  0  0
    2.6620   -4.9537    5.2781 C   0  0  0  0  0  0  0  0  0  0  0  0
    1.5052   -4.9574    5.7533 O   0  0  0  0  0  0  0  0  0  0  0  0
    3.7289   -4.9356    5.9146 O   0  0  0  0  0  0  0  0  0  0  0  0
    3.0834   -3.4964    0.4385 C   0  0  1  0  0  0  0  0  0  0  0  0
    3.9227   -3.4867   -0.8707 C   0  0  1  0  0  0  0  0  0  0  0  0
    3.7626   -2.2472   -1.7159 N   0  0  0  0  0  0  0  0  0  0  0  0
    4.9632   -1.8875   -2.5009 C   0  0  0  0  0  0  0  0  0  0  0  0
    4.4636   -0.9214   -3.5742 C   0  0  0  0  0  0  0  0  0  0  0  0
    2.9753   -1.2155   -3.7090 C   0  0  0  0  0  0  0  0  0  0  0  0
    2.6933   -2.3548   -2.7231 C   0  0  0  0  0  0  0  0  0  0  0  0
    0.6004   -7.1802    0.8380 H   0  0  0  0  0  0  0  0  0  0  0  0
    1.4889   -6.8521    2.2910 H   0  0  0  0  0  0  0  0  0  0  0  0
    2.3376   -7.4821    0.8851 H   0  0  0  0  0  0  0  0  0  0  0  0
    4.2964   -6.5535    1.4315 H   0  0  0  0  0  0  0  0  0  0  0  0
    6.2378   -5.4202    0.3216 H   0  0  0  0  0  0  0  0  0  0  0  0
    6.0542   -2.9578   -0.2393 H   0  0  0  0  0  0  0  0  0  0  0  0
    4.6704   -3.1912    2.0244 H   0  0  0  0  0  0  0  0  0  0  0  0
    4.6838   -0.8775    2.0624 H   0  0  0  0  0  0  0  0  0  0  0  0
    3.5712   -0.7539    0.7117 H   0  0  0  0  0  0  0  0  0  0  0  0
    2.4968    0.6102    2.5745 H   0  0  0  0  0  0  0  0  0  0  0  0
    0.4765    0.6517    3.9970 H   0  0  0  0  0  0  0  0  0  0  0  0
   -0.5742   -1.4899    4.7114 H   0  0  0  0  0  0  0  0  0  0  0  0
    0.3704   -3.6209    4.0115 H   0  0  0  0  0  0  0  0  0  0  0  0
    3.2004   -6.0824    3.4895 H   0  0  0  0  0  0  0  0  0  0  0  0
    2.1893   -2.8897    0.3005 H   0  0  0  0  0  0  0  0  0  0  0  0
    3.8596   -4.4137   -1.4391 H   0  0  0  0  0  0  0  0  0  0  0  0
    5.7707   -1.4584   -1.9043 H   0  0  0  0  0  0  0  0  0  0  0  0
    5.3401   -2.7957   -2.9760 H   0  0  0  0  0  0  0  0  0  0  0  0
    4.6036    0.1021   -3.2270 H   0  0  0  0  0  0  0  0  0  0  0  0
    5.0036   -1.0502   -4.5091 H   0  0  0  0  0  0  0  0  0  0  0  0
    2.4199   -0.3206   -3.4323 H   0  0  0  0  0  0  0  0  0  0  0  0
    2.6989   -1.5010   -4.7185 H   0  0  0  0  0  0  0  0  0  0  0  0
    2.8044   -3.3048   -3.2518 H   0  0  0  0  0  0  0  0  0  0  0  0
    1.6852   -2.3322   -2.3151 H   0  0  0  0  0  0  0  0  0  0  0  0
    3.5338   -1.4570   -1.1288 H   0  0  0  0  0  0  0  0  0  0  0  0
  1  2  1  0
  1 27  1  0
  1 28  1  0
  1 29  1  0
  3  2  1  6
  3 15  1  0
  3 20  1  0
  3  4  1  0
  4  5  2  0
  4 30  1  0
  5  6  1  0
  5 31  1  0
  6 21  1  0
  6  7  1  0
  6 32  1  6
  7  8  1  0
  7 20  1  0
  7 33  1  1
  8  9  1  0
  8 34  1  0
  8 35  1  0
  9 14  2  0
  9 10  1  0
 10 11  2  0
 10 36  1  0
 11 12  1  0
 11 37  1  0
 12 13  2  0
 12 38  1  0
 13 14  1  0
 13 39  1  0
 14 15  1  0
 15 16  2  3
 16 17  1  0
 16 40  1  0
 17 18  2  0
 17 19  1  0
 20 21  1  0
 20 41  1  6
 21 22  1  0
 21 42  1  6
 22 26  1  0
 22 23  1  0
 22 51  1  0
 23 24  1  0
 23 43  1  0
 23 44  1  0
 24 25  1  0
 24 45  1  0
 24 46  1  0
 25 26  1  0
 25 47  1  0
 25 48  1  0
 26 49  1  0
 26 50  1  0
M  CHG  2  19  -1  22   1
M  END
>  <i_m_ct_stereo_status>  (349) 
1

>  <s_m_source_file>  (349) 
/var/tmp/pbs.5076255.sched01/tmpulc5pjk6/123bob0etdf.sdf

>  <i_m_source_file_index>  (349) 
30

>  <i_lp_mmshare_version>  (349) 
48012

>  <i_f3d_flags>  (349) 
0

>  <s_epik_input>  (349) 
W0NIMl0xW0NIMl1bQ0gyXVtDSDJdTjFbQ0BIXTJbQ0BIXShbQ0hdPVtDSF0zKVtDQEhdKFtDQEBIXTJbQ0BAXTM0T1tDSDNdKVtDSDJdYzVjKFtjSF1bY0hdW2NIXVtjSF01KUNcND1bQ0hdL0MoPU8pW09IXQ==

>  <s_epik_cmdline>  (349) 
J2VwaWtfcHl0aG9uJywgJy1waHQnLCAnMi4wJywgJy1waCcsICc3LjAnLCAnLXRuJywgJzgnLCAnLW1hJywgJzIwMCcsICctaW1hZScsICc8aW5maWxlLm1hZT4nLCAnLW9tYWUnLCAnPG91dGZpbGUubWFlPic=

>  <r_lp_tautomer_probability>  (349) 
1

>  <r_epik_Ionization_Penalty>  (349) 
0.00272841

>  <r_epik_Ionization_Penalty_Charging>  (349) 
0.00272841

>  <r_epik_Ionization_Penalty_Neutral>  (349) 
3.09293e-13

>  <r_epik_State_Penalty>  (349) 
-0

>  <r_epik_Charging_Adjusted_Penalty>  (349) 
0.00272841

>  <i_epik_Tot_Q>  (349) 
0

>  <i_epik_Tot_abs_Q>  (349) 
2

>  <s_lp_Force_Field>  (349) 
OPLS3e

>  <r_lp_Energy>  (349) 
108.046

>  <b_lp_Chiralities_Consistent>  (349) 
1

>  <s_lp_Variant>  (349) 
100:0-1

>  <s_i_glide_gridfile>  (349) 
pfpi4k_grid

>  <i_i_glide_lignum>  (349) 
30

>  <i_i_glide_rotatable_bonds>  (349) 
3

>  <r_i_docking_score>  (349) 
-2.83707

>  <r_i_glide_ligand_efficiency>  (349) 
-0.109118

>  <r_i_glide_ligand_efficiency_sa>  (349) 
-0.323262

>  <r_i_glide_ligand_efficiency_ln>  (349) 
-0.666277

>  <r_i_glide_gscore>  (349) 
-2.83707

>  <r_i_glide_lipo>  (349) 
-0.570558

>  <r_i_glide_hbond>  (349) 
-0.109429

>  <r_i_glide_metal>  (349) 
-0

>  <r_i_glide_rewards>  (349) 
-1.01292

>  <r_i_glide_evdw>  (349) 
-20.8968

>  <r_i_glide_ecoul>  (349) 
-2.45969

>  <r_i_glide_erotb>  (349) 
0.30885

>  <r_i_glide_esite>  (349) 
-0.0392265

>  <r_i_glide_emodel>  (349) 
-27.8125

>  <r_i_glide_energy>  (349) 
-23.3564

>  <r_i_glide_einternal>  (349) 
1.33468

>  <r_i_glide_intrahb_reward>  (349) 
-0

>  <i_i_glide_confnum>  (349) 
1

>  <i_i_glide_posenum>  (349) 
32

>  <r_i_glide_eff_state_penalty>  (349) 
0

>  <ligand_id>  (349) 
100

>  <original_smiles>  (349) 
COC12C=CC3C(Cc4ccccc4C1=CC(=O)O)C2C3N1CCCC1

>  <smiles>  (349) 
[H]C(C(=O)[O-])=C1c2c([H])c([H])c([H])c([H])c2C([H])([H])C2([H])C3([H])C([H])=C([H])C1(OC([H])([H])[H])C2([H])C3([H])[N+]1([H])C([H])([H])C([H])([H])C([H])([H])C1([H])[H]

$$$$
100:0:2
     RDKit          3D

 51 55  0  0  1  0  0  0  0  0999 V2000
    1.9135   -6.2157    2.1164 C   0  0  0  0  0  0  0  0  0  0  0  0
    2.1061   -5.0952    1.2450 O   0  0  0  0  0  0  0  0  0  0  0  0
    3.2163   -4.2423    1.5264 C   0  0  2  0  0  0  0  0  0  0  0  0
    4.5715   -5.0224    1.6270 C   0  0  0  0  0  0  0  0  0  0  0  0
    5.6547   -4.6396    0.9004 C   0  0  0  0  0  0  0  0  0  0  0  0
    5.5088   -3.3889    0.0157 C   0  0  2  0  0  0  0  0  0  0  0  0
    4.6054   -2.3878    0.8195 C   0  0  1  0  0  0  0  0  0  0  0  0
    4.2426   -0.9510    0.9603 C   0  0  0  0  0  0  0  0  0  0  0  0
    2.9705   -0.8094    1.7708 C   0  0  0  0  0  0  0  0  0  0  0  0
    2.3543    0.4654    1.6867 C   0  0  0  0  0  0  0  0  0  0  0  0
    1.1736    0.7468    2.3863 C   0  0  0  0  0  0  0  0  0  0  0  0
    0.5713   -0.2667    3.1405 C   0  0  0  0  0  0  0  0  0  0  0  0
    1.1397   -1.5512    3.1926 C   0  0  0  0  0  0  0  0  0  0  0  0
    2.3560   -1.8849    2.5379 C   0  0  0  0  0  0  0  0  0  0  0  0
    2.8692   -3.3139    2.7360 C   0  0  0  0  0  0  0  0  0  0  0  0
    3.0425   -3.8316    3.9742 C   0  0  0  0  0  0  0  0  0  0  0  0
    2.8529   -3.1747    5.3433 C   0  0  0  0  0  0  0  0  0  0  0  0
    1.6779   -3.1639    5.7886 O   0  0  0  0  0  0  0  0  0  0  0  0
    3.9001   -2.7952    5.9030 O   0  0  0  0  0  0  0  0  0  0  0  0
    3.4420   -3.3229    0.3703 C   0  0  1  0  0  0  0  0  0  0  0  0
    4.3031   -3.6628   -0.8893 C   0  0  1  0  0  0  0  0  0  0  0  0
    4.1762   -2.8415   -2.1110 N   0  0  0  0  0  0  0  0  0  0  0  0
    3.0703   -3.2037   -2.9644 C   0  0  0  0  0  0  0  0  0  0  0  0
    2.8597   -1.9860   -3.8654 C   0  0  0  0  0  0  0  0  0  0  0  0
    3.3812   -0.7931   -3.1141 C   0  0  0  0  0  0  0  0  0  0  0  0
    3.8885   -1.4072   -1.8554 C   0  0  0  0  0  0  0  0  0  0  0  0
    0.9617   -6.6862    1.8875 H   0  0  0  0  0  0  0  0  0  0  0  0
    1.8733   -5.9775    3.1753 H   0  0  0  0  0  0  0  0  0  0  0  0
    2.6889   -6.9637    1.9622 H   0  0  0  0  0  0  0  0  0  0  0  0
    4.6300   -5.9041    2.2495 H   0  0  0  0  0  0  0  0  0  0  0  0
    6.5847   -5.1884    0.9291 H   0  0  0  0  0  0  0  0  0  0  0  0
    6.4412   -3.0016   -0.4303 H   0  0  0  0  0  0  0  0  0  0  0  0
    4.9983   -2.5362    1.8506 H   0  0  0  0  0  0  0  0  0  0  0  0
    5.0705   -0.3007    1.2052 H   0  0  0  0  0  0  0  0  0  0  0  0
    3.9117   -0.3887    0.1129 H   0  0  0  0  0  0  0  0  0  0  0  0
    2.7926    1.2454    1.0947 H   0  0  0  0  0  0  0  0  0  0  0  0
    0.7381    1.7283    2.3388 H   0  0  0  0  0  0  0  0  0  0  0  0
   -0.3383   -0.0652    3.6723 H   0  0  0  0  0  0  0  0  0  0  0  0
    0.6391   -2.2974    3.7683 H   0  0  0  0  0  0  0  0  0  0  0  0
    3.3697   -4.8527    4.0232 H   0  0  0  0  0  0  0  0  0  0  0  0
    2.5019   -2.8298    0.0887 H   0  0  0  0  0  0  0  0  0  0  0  0
    4.2262   -4.7015   -1.2472 H   0  0  0  0  0  0  0  0  0  0  0  0
    3.2835   -4.1146   -3.5220 H   0  0  0  0  0  0  0  0  0  0  0  0
    2.1767   -3.3718   -2.3477 H   0  0  0  0  0  0  0  0  0  0  0  0
    3.4321   -2.0881   -4.7758 H   0  0  0  0  0  0  0  0  0  0  0  0
    1.7908   -1.8592   -4.1277 H   0  0  0  0  0  0  0  0  0  0  0  0
    4.2290   -0.3066   -3.5807 H   0  0  0  0  0  0  0  0  0  0  0  0
    2.6247   -0.0374   -2.8623 H   0  0  0  0  0  0  0  0  0  0  0  0
    3.0113   -1.4097   -1.2281 H   0  0  0  0  0  0  0  0  0  0  0  0
    4.7905   -0.9424   -1.5133 H   0  0  0  0  0  0  0  0  0  0  0  0
    5.0456   -2.8604   -2.5868 H   0  0  0  0  0  0  0  0  0  0  0  0
  1  2  1  0
  1 27  1  0
  1 28  1  0
  1 29  1  0
  3  2  1  6
  3 15  1  0
  3 20  1  0
  3  4  1  0
  4  5  2  0
  4 30  1  0
  5  6  1  0
  5 31  1  0
  6 21  1  0
  6  7  1  0
  6 32  1  6
  7  8  1  0
  7 20  1  0
  7 33  1  1
  8  9  1  0
  8 34  1  0
  8 35  1  0
  9 14  2  0
  9 10  1  0
 10 11  2  0
 10 36  1  0
 11 12  1  0
 11 37  1  0
 12 13  2  0
 12 38  1  0
 13 14  1  0
 13 39  1  0
 14 15  1  0
 15 16  2  3
 16 17  1  0
 16 40  1  0
 17 18  2  0
 17 19  1  0
 20 21  1  0
 20 41  1  6
 21 22  1  0
 21 42  1  6
 22 26  1  0
 22 23  1  0
 22 51  1  0
 23 24  1  0
 23 43  1  0
 23 44  1  0
 24 25  1  0
 24 45  1  0
 24 46  1  0
 25 26  1  0
 25 47  1  0
 25 48  1  0
 26 49  1  0
 26 50  1  0
M  CHG  2  19  -1  22   1
M  END
>  <i_m_ct_stereo_status>  (350) 
1

>  <s_m_source_file>  (350) 
/var/tmp/pbs.5076255.sched01/tmpulc5pjk6/123bob0etdf.sdf

>  <i_m_source_file_index>  (350) 
30

>  <i_lp_mmshare_version>  (350) 
48012

>  <i_f3d_flags>  (350) 
0

>  <s_epik_input>  (350) 
W0NIMl0xW0NIMl1bQ0gyXVtDSDJdTjFbQ0BIXTJbQ0BIXShbQ0hdPVtDSF0zKVtDQEhdKFtDQEBIXTJbQ0BAXTM0T1tDSDNdKVtDSDJdYzVjKFtjSF1bY0hdW2NIXVtjSF01KUNcND1bQ0hdL0MoPU8pW09IXQ==

>  <s_epik_cmdline>  (350) 
J2VwaWtfcHl0aG9uJywgJy1waHQnLCAnMi4wJywgJy1waCcsICc3LjAnLCAnLXRuJywgJzgnLCAnLW1hJywgJzIwMCcsICctaW1hZScsICc8aW5maWxlLm1hZT4nLCAnLW9tYWUnLCAnPG91dGZpbGUubWFlPic=

>  <r_lp_tautomer_probability>  (350) 
1

>  <r_epik_Ionization_Penalty>  (350) 
0.00272841

>  <r_epik_Ionization_Penalty_Charging>  (350) 
0.00272841

>  <r_epik_Ionization_Penalty_Neutral>  (350) 
3.09293e-13

>  <r_epik_State_Penalty>  (350) 
-0

>  <r_epik_Charging_Adjusted_Penalty>  (350) 
0.00272841

>  <i_epik_Tot_Q>  (350) 
0

>  <i_epik_Tot_abs_Q>  (350) 
2

>  <s_lp_Force_Field>  (350) 
OPLS3e

>  <r_lp_Energy>  (350) 
108.046

>  <b_lp_Chiralities_Consistent>  (350) 
1

>  <s_lp_Variant>  (350) 
100:0-1

>  <s_i_glide_gridfile>  (350) 
pfpi4k_grid

>  <i_i_glide_lignum>  (350) 
30

>  <i_i_glide_rotatable_bonds>  (350) 
3

>  <r_i_docking_score>  (350) 
-1.87813

>  <r_i_glide_ligand_efficiency>  (350) 
-0.0722357

>  <r_i_glide_ligand_efficiency_sa>  (350) 
-0.213998

>  <r_i_glide_ligand_efficiency_ln>  (350) 
-0.441072

>  <r_i_glide_gscore>  (350) 
-1.87813

>  <r_i_glide_lipo>  (350) 
-0.38903

>  <r_i_glide_hbond>  (350) 
-0.0270603

>  <r_i_glide_metal>  (350) 
-0

>  <r_i_glide_rewards>  (350) 
-1.01292

>  <r_i_glide_evdw>  (350) 
-22.4697

>  <r_i_glide_ecoul>  (350) 
-2.06889

>  <r_i_glide_erotb>  (350) 
0.30885

>  <r_i_glide_esite>  (350) 
-0.00985969

>  <r_i_glide_emodel>  (350) 
-16.7933

>  <r_i_glide_energy>  (350) 
-24.5386

>  <r_i_glide_einternal>  (350) 
12.9795

>  <r_i_glide_intrahb_reward>  (350) 
-0

>  <i_i_glide_confnum>  (350) 
3

>  <i_i_glide_posenum>  (350) 
9

>  <r_i_glide_eff_state_penalty>  (350) 
0

>  <ligand_id>  (350) 
100

>  <original_smiles>  (350) 
COC12C=CC3C(Cc4ccccc4C1=CC(=O)O)C2C3N1CCCC1

>  <smiles>  (350) 
[H]C(C(=O)[O-])=C1c2c([H])c([H])c([H])c([H])c2C([H])([H])C2([H])C3([H])C([H])=C([H])C1(OC([H])([H])[H])C2([H])C3([H])[N+]1([H])C([H])([H])C([H])([H])C([H])([H])C1([H])[H]

$$$$
100:1:0
     RDKit          3D

 51 55  0  0  1  0  0  0  0  0999 V2000
    3.3040   -5.7880    6.1347 C   0  0  0  0  0  0  0  0  0  0  0  0
    2.1118   -6.2519    5.4877 O   0  0  0  0  0  0  0  0  0  0  0  0
    1.1928   -7.0291    6.2595 C   0  0  2  0  0  0  0  0  0  0  0  0
   -0.1097   -7.3307    5.4363 C   0  0  0  0  0  0  0  0  0  0  0  0
   -0.5371   -8.6154    5.2798 C   0  0  0  0  0  0  0  0  0  0  0  0
    0.2932   -9.7295    5.9548 C   0  0  2  0  0  0  0  0  0  0  0  0
    0.7407   -9.1560    7.3111 C   0  0  1  0  0  0  0  0  0  0  0  0
    1.3390   -9.6117    8.5974 C   0  0  0  0  0  0  0  0  0  0  0  0
    1.8339   -8.3553    9.3572 C   0  0  0  0  0  0  0  0  0  0  0  0
    2.5299   -8.6478   10.5520 C   0  0  0  0  0  0  0  0  0  0  0  0
    3.1056   -7.6340   11.3306 C   0  0  0  0  0  0  0  0  0  0  0  0
    3.0109   -6.2993   10.9098 C   0  0  0  0  0  0  0  0  0  0  0  0
    2.3195   -5.9865    9.7278 C   0  0  0  0  0  0  0  0  0  0  0  0
    1.6909   -6.9697    8.9178 C   0  0  0  0  0  0  0  0  0  0  0  0
    0.9484   -6.4025    7.6891 C   0  0  0  0  0  0  0  0  0  0  0  0
    0.1576   -5.3165    7.8880 C   0  0  0  0  0  0  0  0  0  0  0  0
   -0.6415   -4.4126    6.8918 C   0  0  0  0  0  0  0  0  0  0  0  0
   -1.6558   -3.8601    7.3603 O   0  0  0  0  0  0  0  0  0  0  0  0
   -0.1581   -4.2831    5.7414 O   0  0  0  0  0  0  0  0  0  0  0  0
    1.7910   -8.4022    6.4883 C   0  0  1  0  0  0  0  0  0  0  0  0
    1.7087   -9.5311    5.4297 C   0  0  1  0  0  0  0  0  0  0  0  0
    2.6085  -10.6850    5.6707 N   0  0  0  0  0  0  0  0  0  0  0  0
    2.4090  -11.7894    4.7174 C   0  0  0  0  0  0  0  0  0  0  0  0
    3.6826  -12.6312    4.8305 C   0  0  0  0  0  0  0  0  0  0  0  0
    4.7520  -11.6766    5.3762 C   0  0  0  0  0  0  0  0  0  0  0  0
    4.0353  -10.3399    5.5421 C   0  0  0  0  0  0  0  0  0  0  0  0
    3.9138   -5.2146    5.4339 H   0  0  0  0  0  0  0  0  0  0  0  0
    3.9170   -6.6054    6.5057 H   0  0  0  0  0  0  0  0  0  0  0  0
    3.0849   -5.1222    6.9683 H   0  0  0  0  0  0  0  0  0  0  0  0
   -0.6306   -6.5249    4.9347 H   0  0  0  0  0  0  0  0  0  0  0  0
   -1.3903   -8.8941    4.6898 H   0  0  0  0  0  0  0  0  0  0  0  0
   -0.1436  -10.7296    5.9715 H   0  0  0  0  0  0  0  0  0  0  0  0
   -0.1542   -8.6115    7.6353 H   0  0  0  0  0  0  0  0  0  0  0  0
    0.6163  -10.1572    9.2033 H   0  0  0  0  0  0  0  0  0  0  0  0
    2.1984  -10.2738    8.4305 H   0  0  0  0  0  0  0  0  0  0  0  0
    2.6254   -9.6678   10.8731 H   0  0  0  0  0  0  0  0  0  0  0  0
    3.6223   -7.8751   12.2443 H   0  0  0  0  0  0  0  0  0  0  0  0
    3.4610   -5.5172   11.4965 H   0  0  0  0  0  0  0  0  0  0  0  0
    2.2796   -4.9513    9.4349 H   0  0  0  0  0  0  0  0  0  0  0  0
    0.0659   -4.9868    8.9148 H   0  0  0  0  0  0  0  0  0  0  0  0
    2.7815   -8.3869    6.9496 H   0  0  0  0  0  0  0  0  0  0  0  0
    1.7330   -9.1357    4.4013 H   0  0  0  0  0  0  0  0  0  0  0  0
    1.4931  -12.3493    4.8999 H   0  0  0  0  0  0  0  0  0  0  0  0
    2.3525  -11.3827    3.7065 H   0  0  0  0  0  0  0  0  0  0  0  0
    3.5271  -13.4469    5.5358 H   0  0  0  0  0  0  0  0  0  0  0  0
    3.9558  -13.0711    3.8740 H   0  0  0  0  0  0  0  0  0  0  0  0
    5.1022  -12.0244    6.3469 H   0  0  0  0  0  0  0  0  0  0  0  0
    5.6160  -11.5931    4.7180 H   0  0  0  0  0  0  0  0  0  0  0  0
    4.1633   -9.7520    4.6300 H   0  0  0  0  0  0  0  0  0  0  0  0
    4.4301   -9.7481    6.3719 H   0  0  0  0  0  0  0  0  0  0  0  0
    2.4246  -11.0824    6.5800 H   0  0  0  0  0  0  0  0  0  0  0  0
  1  2  1  0
  1 27  1  0
  1 28  1  0
  1 29  1  0
  3  2  1  6
  3 15  1  0
  3 20  1  0
  3  4  1  0
  4  5  2  0
  4 30  1  0
  5  6  1  0
  5 31  1  0
  6 21  1  0
  6  7  1  0
  6 32  1  1
  7  8  1  0
  7 20  1  0
  7 33  1  1
  8  9  1  0
  8 34  1  0
  8 35  1  0
  9 14  2  0
  9 10  1  0
 10 11  2  0
 10 36  1  0
 11 12  1  0
 11 37  1  0
 12 13  2  0
 12 38  1  0
 13 14  1  0
 13 39  1  0
 14 15  1  0
 15 16  2  3
 16 17  1  0
 16 40  1  0
 17 18  2  0
 17 19  1  0
 20 21  1  0
 20 41  1  1
 21 22  1  0
 21 42  1  6
 22 26  1  0
 22 23  1  0
 22 51  1  0
 23 24  1  0
 23 43  1  0
 23 44  1  0
 24 25  1  0
 24 45  1  0
 24 46  1  0
 25 26  1  0
 25 47  1  0
 25 48  1  0
 26 49  1  0
 26 50  1  0
M  CHG  2  19  -1  22   1
M  END
>  <i_m_ct_stereo_status>  (351) 
1

>  <s_m_source_file>  (351) 
/var/tmp/pbs.5076255.sched01/tmpulc5pjk6/123bob0etdf.sdf

>  <i_m_source_file_index>  (351) 
31

>  <i_lp_mmshare_version>  (351) 
48012

>  <i_f3d_flags>  (351) 
0

>  <s_epik_input>  (351) 
W0NIMl0xW0NIMl1bQ0gyXVtDSDJdTjFbQ0BIXTJbQ0BIXShbQ0hdPVtDSF0zKVtDQEhdKFtDQEBIXTJbQ0BAXTM0T1tDSDNdKVtDSDJdYzVjKFtjSF1bY0hdW2NIXVtjSF01KUNcND1bQ0hdL0MoPU8pW09IXQ==

>  <s_epik_cmdline>  (351) 
J2VwaWtfcHl0aG9uJywgJy1waHQnLCAnMi4wJywgJy1waCcsICc3LjAnLCAnLXRuJywgJzgnLCAnLW1hJywgJzIwMCcsICctaW1hZScsICc8aW5maWxlLm1hZT4nLCAnLW9tYWUnLCAnPG91dGZpbGUubWFlPic=

>  <r_lp_tautomer_probability>  (351) 
1

>  <r_epik_Ionization_Penalty>  (351) 
0.00272841

>  <r_epik_Ionization_Penalty_Charging>  (351) 
0.00272841

>  <r_epik_Ionization_Penalty_Neutral>  (351) 
3.09293e-13

>  <r_epik_State_Penalty>  (351) 
-0

>  <r_epik_Charging_Adjusted_Penalty>  (351) 
0.00272841

>  <i_epik_Tot_Q>  (351) 
0

>  <i_epik_Tot_abs_Q>  (351) 
2

>  <s_lp_Force_Field>  (351) 
OPLS3e

>  <r_lp_Energy>  (351) 
106.444

>  <b_lp_Chiralities_Consistent>  (351) 
1

>  <s_lp_Variant>  (351) 
100:0-2

>  <s_i_glide_gridfile>  (351) 
pfpi4k_grid

>  <i_i_glide_lignum>  (351) 
31

>  <i_i_glide_rotatable_bonds>  (351) 
3

>  <r_i_docking_score>  (351) 
-2.8536

>  <r_i_glide_ligand_efficiency>  (351) 
-0.109754

>  <r_i_glide_ligand_efficiency_sa>  (351) 
-0.325145

>  <r_i_glide_ligand_efficiency_ln>  (351) 
-0.670158

>  <r_i_glide_gscore>  (351) 
-2.8536

>  <r_i_glide_lipo>  (351) 
0

>  <r_i_glide_hbond>  (351) 
-0.186043

>  <r_i_glide_metal>  (351) 
-0

>  <r_i_glide_rewards>  (351) 
-1.31547

>  <r_i_glide_evdw>  (351) 
-13.4665

>  <r_i_glide_ecoul>  (351) 
-6.01672

>  <r_i_glide_erotb>  (351) 
0.30885

>  <r_i_glide_esite>  (351) 
-0.0850976

>  <r_i_glide_emodel>  (351) 
-24.7395

>  <r_i_glide_energy>  (351) 
-19.4832

>  <r_i_glide_einternal>  (351) 
4.03921

>  <r_i_glide_intrahb_reward>  (351) 
-0

>  <i_i_glide_confnum>  (351) 
4

>  <i_i_glide_posenum>  (351) 
22

>  <r_i_glide_eff_state_penalty>  (351) 
0

>  <ligand_id>  (351) 
100

>  <original_smiles>  (351) 
COC12C=CC3C(Cc4ccccc4C1=CC(=O)O)C2C3N1CCCC1

>  <smiles>  (351) 
[H]C(C(=O)[O-])=C1c2c([H])c([H])c([H])c([H])c2C([H])([H])C2([H])C3([H])C([H])=C([H])C1(OC([H])([H])[H])C2([H])C3([H])[N+]1([H])C([H])([H])C([H])([H])C([H])([H])C1([H])[H]

$$$$
100:1:1
     RDKit          3D

 51 55  0  0  1  0  0  0  0  0999 V2000
    5.2568   -4.8054    5.9805 C   0  0  0  0  0  0  0  0  0  0  0  0
    4.8195   -6.1316    5.7247 O   0  0  0  0  0  0  0  0  0  0  0  0
    4.1165   -6.8288    6.7675 C   0  0  2  0  0  0  0  0  0  0  0  0
    2.8205   -6.0657    7.2235 C   0  0  0  0  0  0  0  0  0  0  0  0
    1.6089   -6.6795    7.2099 C   0  0  0  0  0  0  0  0  0  0  0  0
    1.5710   -8.1467    6.7574 C   0  0  2  0  0  0  0  0  0  0  0  0
    2.8533   -8.8063    7.3297 C   0  0  1  0  0  0  0  0  0  0  0  0
    3.4203  -10.1560    7.5327 C   0  0  0  0  0  0  0  0  0  0  0  0
    4.9314   -9.9955    7.8416 C   0  0  0  0  0  0  0  0  0  0  0  0
    5.6335  -11.2216    7.9765 C   0  0  0  0  0  0  0  0  0  0  0  0
    7.0177  -11.2522    8.2021 C   0  0  0  0  0  0  0  0  0  0  0  0
    7.7340  -10.0531    8.2855 C   0  0  0  0  0  0  0  0  0  0  0  0
    7.0606   -8.8248    8.1629 C   0  0  0  0  0  0  0  0  0  0  0  0
    5.6573   -8.7251    7.9584 C   0  0  0  0  0  0  0  0  0  0  0  0
    5.1086   -7.2812    7.9188 C   0  0  0  0  0  0  0  0  0  0  0  0
    5.5369   -6.4360    8.9056 C   0  0  0  0  0  0  0  0  0  0  0  0
    5.2284   -4.9342    9.1486 C   0  0  0  0  0  0  0  0  0  0  0  0
    6.1053   -4.1239    8.8299 O   0  0  0  0  0  0  0  0  0  0  0  0
    4.1239   -4.6832    9.6896 O   0  0  0  0  0  0  0  0  0  0  0  0
    3.5706   -8.0974    6.1673 C   0  0  1  0  0  0  0  0  0  0  0  0
    2.2298   -8.1737    5.3749 C   0  0  1  0  0  0  0  0  0  0  0  0
    1.9988   -9.3890    4.5985 N   0  0  0  0  0  0  0  0  0  0  0  0
    0.6078   -9.5281    4.1281 C   0  0  0  0  0  0  0  0  0  0  0  0
    0.6747  -10.5692    3.0145 C   0  0  0  0  0  0  0  0  0  0  0  0
    2.1220  -10.4968    2.5031 C   0  0  0  0  0  0  0  0  0  0  0  0
    2.7877   -9.4238    3.3488 C   0  0  0  0  0  0  0  0  0  0  0  0
    5.9360   -4.4293    5.2252 H   0  0  0  0  0  0  0  0  0  0  0  0
    5.8862   -4.8052    6.7982 H   0  0  0  0  0  0  0  0  0  0  0  0
    4.4400   -4.1048    6.1140 H   0  0  0  0  0  0  0  0  0  0  0  0
    2.8785   -5.0192    7.5123 H   0  0  0  0  0  0  0  0  0  0  0  0
    0.7002   -6.1689    7.4715 H   0  0  0  0  0  0  0  0  0  0  0  0
    0.6206   -8.6769    6.9100 H   0  0  0  0  0  0  0  0  0  0  0  0
    2.9388   -8.3660    8.3357 H   0  0  0  0  0  0  0  0  0  0  0  0
    2.9244  -10.6760    8.3549 H   0  0  0  0  0  0  0  0  0  0  0  0
    3.2987  -10.7705    6.6326 H   0  0  0  0  0  0  0  0  0  0  0  0
    5.1051  -12.1487    7.9021 H   0  0  0  0  0  0  0  0  0  0  0  0
    7.5272  -12.1918    8.2964 H   0  0  0  0  0  0  0  0  0  0  0  0
    8.7929  -10.0702    8.4486 H   0  0  0  0  0  0  0  0  0  0  0  0
    7.6544   -7.9307    8.2346 H   0  0  0  0  0  0  0  0  0  0  0  0
    6.1965   -6.8574    9.6418 H   0  0  0  0  0  0  0  0  0  0  0  0
    4.3575   -8.6738    5.6550 H   0  0  0  0  0  0  0  0  0  0  0  0
    2.0082   -7.3123    4.7440 H   0  0  0  0  0  0  0  0  0  0  0  0
   -0.0870   -9.7860    4.9248 H   0  0  0  0  0  0  0  0  0  0  0  0
    0.2806   -8.5729    3.6987 H   0  0  0  0  0  0  0  0  0  0  0  0
    0.4746  -11.5633    3.4286 H   0  0  0  0  0  0  0  0  0  0  0  0
   -0.0544  -10.3814    2.2299 H   0  0  0  0  0  0  0  0  0  0  0  0
    2.6202  -11.4548    2.6537 H   0  0  0  0  0  0  0  0  0  0  0  0
    2.1767  -10.2837    1.4417 H   0  0  0  0  0  0  0  0  0  0  0  0
    2.6896   -8.4589    2.8384 H   0  0  0  0  0  0  0  0  0  0  0  0
    3.8453   -9.5969    3.5228 H   0  0  0  0  0  0  0  0  0  0  0  0
    2.2317  -10.1928    5.1631 H   0  0  0  0  0  0  0  0  0  0  0  0
  1  2  1  0
  1 27  1  0
  1 28  1  0
  1 29  1  0
  3  2  1  6
  3 15  1  0
  3 20  1  0
  3  4  1  0
  4  5  2  0
  4 30  1  0
  5  6  1  0
  5 31  1  0
  6 21  1  0
  6  7  1  0
  6 32  1  6
  7  8  1  0
  7 20  1  0
  7 33  1  1
  8  9  1  0
  8 34  1  0
  8 35  1  0
  9 14  2  0
  9 10  1  0
 10 11  2  0
 10 36  1  0
 11 12  1  0
 11 37  1  0
 12 13  2  0
 12 38  1  0
 13 14  1  0
 13 39  1  0
 14 15  1  0
 15 16  2  3
 16 17  1  0
 16 40  1  0
 17 18  2  0
 17 19  1  0
 20 21  1  0
 20 41  1  6
 21 22  1  0
 21 42  1  6
 22 26  1  0
 22 23  1  0
 22 51  1  0
 23 24  1  0
 23 43  1  0
 23 44  1  0
 24 25  1  0
 24 45  1  0
 24 46  1  0
 25 26  1  0
 25 47  1  0
 25 48  1  0
 26 49  1  0
 26 50  1  0
M  CHG  2  19  -1  22   1
M  END
>  <i_m_ct_stereo_status>  (352) 
1

>  <s_m_source_file>  (352) 
/var/tmp/pbs.5076255.sched01/tmpulc5pjk6/123bob0etdf.sdf

>  <i_m_source_file_index>  (352) 
31

>  <i_lp_mmshare_version>  (352) 
48012

>  <i_f3d_flags>  (352) 
0

>  <s_epik_input>  (352) 
W0NIMl0xW0NIMl1bQ0gyXVtDSDJdTjFbQ0BIXTJbQ0BIXShbQ0hdPVtDSF0zKVtDQEhdKFtDQEBIXTJbQ0BAXTM0T1tDSDNdKVtDSDJdYzVjKFtjSF1bY0hdW2NIXVtjSF01KUNcND1bQ0hdL0MoPU8pW09IXQ==

>  <s_epik_cmdline>  (352) 
J2VwaWtfcHl0aG9uJywgJy1waHQnLCAnMi4wJywgJy1waCcsICc3LjAnLCAnLXRuJywgJzgnLCAnLW1hJywgJzIwMCcsICctaW1hZScsICc8aW5maWxlLm1hZT4nLCAnLW9tYWUnLCAnPG91dGZpbGUubWFlPic=

>  <r_lp_tautomer_probability>  (352) 
1

>  <r_epik_Ionization_Penalty>  (352) 
0.00272841

>  <r_epik_Ionization_Penalty_Charging>  (352) 
0.00272841

>  <r_epik_Ionization_Penalty_Neutral>  (352) 
3.09293e-13

>  <r_epik_State_Penalty>  (352) 
-0

>  <r_epik_Charging_Adjusted_Penalty>  (352) 
0.00272841

>  <i_epik_Tot_Q>  (352) 
0

>  <i_epik_Tot_abs_Q>  (352) 
2

>  <s_lp_Force_Field>  (352) 
OPLS3e

>  <r_lp_Energy>  (352) 
106.444

>  <b_lp_Chiralities_Consistent>  (352) 
1

>  <s_lp_Variant>  (352) 
100:0-2

>  <s_i_glide_gridfile>  (352) 
pfpi4k_grid

>  <i_i_glide_lignum>  (352) 
31

>  <i_i_glide_rotatable_bonds>  (352) 
3

>  <r_i_docking_score>  (352) 
-1.80688

>  <r_i_glide_ligand_efficiency>  (352) 
-0.0694955

>  <r_i_glide_ligand_efficiency_sa>  (352) 
-0.20588

>  <r_i_glide_ligand_efficiency_ln>  (352) 
-0.42434

>  <r_i_glide_gscore>  (352) 
-1.80688

>  <r_i_glide_lipo>  (352) 
-0.165546

>  <r_i_glide_hbond>  (352) 
0

>  <r_i_glide_metal>  (352) 
-0

>  <r_i_glide_rewards>  (352) 
-1.01292

>  <r_i_glide_evdw>  (352) 
-9.1525

>  <r_i_glide_ecoul>  (352) 
-3.08429

>  <r_i_glide_erotb>  (352) 
0.30885

>  <r_i_glide_esite>  (352) 
-0.0170013

>  <r_i_glide_emodel>  (352) 
-15.6332

>  <r_i_glide_energy>  (352) 
-12.2368

>  <r_i_glide_einternal>  (352) 
0.172425

>  <r_i_glide_intrahb_reward>  (352) 
-0

>  <i_i_glide_confnum>  (352) 
6

>  <i_i_glide_posenum>  (352) 
2

>  <r_i_glide_eff_state_penalty>  (352) 
0

>  <ligand_id>  (352) 
100

>  <original_smiles>  (352) 
COC12C=CC3C(Cc4ccccc4C1=CC(=O)O)C2C3N1CCCC1

>  <smiles>  (352) 
[H]C(C(=O)[O-])=C1c2c([H])c([H])c([H])c([H])c2C([H])([H])C2([H])C3([H])C([H])=C([H])C1(OC([H])([H])[H])C2([H])C3([H])[N+]1([H])C([H])([H])C([H])([H])C([H])([H])C1([H])[H]

$$$$
101:0:0
     RDKit          3D

 61 67  0  0  1  0  0  0  0  0999 V2000
    8.7216   -4.1615    1.2907 C   0  0  0  0  0  0  0  0  0  0  0  0
    7.3771   -4.0916    0.8674 O   0  0  0  0  0  0  0  0  0  0  0  0
    6.4799   -3.3464    1.6713 C   0  0  0  0  0  0  0  0  0  0  0  0
    5.0285   -3.1643    1.1412 C   0  0  1  0  0  0  0  0  0  0  0  0
    4.4873   -1.9388    1.8941 C   0  0  0  0  0  0  0  0  0  0  0  0
    3.1844   -1.7405    2.1943 C   0  0  0  0  0  0  0  0  0  0  0  0
    2.1230   -2.7202    1.8034 C   0  0  0  0  0  0  0  0  0  0  0  0
    2.6517   -3.9256    0.9831 C   0  0  1  0  0  0  0  0  0  0  0  0
    2.6036   -3.6510   -0.5568 C   0  0  0  0  0  0  0  0  0  0  0  0
    3.9924   -3.5794   -1.2064 C   0  0  1  0  0  0  0  0  0  0  0  0
    4.1669   -3.1051   -2.6963 C   0  0  1  0  0  0  0  0  0  0  0  0
    4.3117   -4.0924   -3.6986 O   0  0  0  0  0  0  0  0  0  0  0  0
    3.1819   -2.0794   -3.2670 C   0  0  0  0  0  0  0  0  0  0  0  0
    3.6608   -0.7669   -2.6966 C   0  0  0  0  0  0  0  0  0  0  0  0
    5.0908   -1.0066   -2.2370 C   0  0  2  0  0  0  0  0  0  0  0  0
    5.5128   -2.4063   -2.6377 C   0  0  1  0  0  0  0  0  0  0  0  0
    6.1613   -2.7755   -1.3290 C   0  0  1  0  0  0  0  0  0  0  0  0
    6.6203   -1.5710   -0.7170 O   0  0  0  0  0  0  0  0  0  0  0  0
    5.2234   -1.2680   -0.7552 C   0  0  2  0  0  0  0  0  0  0  0  0
    4.9888   -2.7682   -0.3791 C   0  0  2  0  0  0  0  0  0  0  0  0
    4.0646   -4.3836    1.4998 C   0  0  2  0  0  0  0  0  0  0  0  0
    4.0862   -4.4628    2.9336 O   0  0  0  0  0  0  0  0  0  0  0  0
    3.1798   -5.3235    3.6120 C   0  0  0  0  0  0  0  0  0  0  0  0
    3.4120   -6.8317    3.4207 C   0  0  0  0  0  0  0  0  0  0  0  0
    2.7778   -7.3398    2.1309 N   0  0  1  0  0  0  0  0  0  0  0  0
    2.8084   -8.8603    2.1896 C   0  0  0  0  0  0  0  0  0  0  0  0
    1.4938   -6.9278    2.0333 O   0  0  0  0  0  0  0  0  0  0  0  0
    3.5413   -6.9413    0.8730 C   0  0  0  0  0  0  0  0  0  0  0  0
    4.5150   -5.7828    0.9765 C   0  0  0  0  0  0  0  0  0  0  0  0
    5.6448   -6.0018    0.5566 O   0  0  0  0  0  0  0  0  0  0  0  0
    9.2563   -4.8113    0.6046 H   0  0  0  0  0  0  0  0  0  0  0  0
    8.8191   -4.6048    2.2767 H   0  0  0  0  0  0  0  0  0  0  0  0
    9.2070   -3.1893    1.2690 H   0  0  0  0  0  0  0  0  0  0  0  0
    6.4022   -3.8158    2.6360 H   0  0  0  0  0  0  0  0  0  0  0  0
    6.9304   -2.3686    1.7692 H   0  0  0  0  0  0  0  0  0  0  0  0
    5.1974   -1.1884    2.1990 H   0  0  0  0  0  0  0  0  0  0  0  0
    2.8476   -0.8570    2.7112 H   0  0  0  0  0  0  0  0  0  0  0  0
    1.6507   -3.0558    2.7226 H   0  0  0  0  0  0  0  0  0  0  0  0
    1.3793   -2.1419    1.2707 H   0  0  0  0  0  0  0  0  0  0  0  0
    1.9406   -4.7195    1.1507 H   0  0  0  0  0  0  0  0  0  0  0  0
    2.0159   -4.4357   -1.0510 H   0  0  0  0  0  0  0  0  0  0  0  0
    2.1048   -2.7018   -0.7547 H   0  0  0  0  0  0  0  0  0  0  0  0
    4.3427   -4.6030   -1.2780 H   0  0  0  0  0  0  0  0  0  0  0  0
    3.6592   -4.7518   -3.5424 H   0  0  0  0  0  0  0  0  0  0  0  0
    3.2688   -2.0361   -4.3591 H   0  0  0  0  0  0  0  0  0  0  0  0
    2.1305   -2.2861   -3.0314 H   0  0  0  0  0  0  0  0  0  0  0  0
    3.5755    0.0527   -3.4082 H   0  0  0  0  0  0  0  0  0  0  0  0
    3.0145   -0.6216   -1.8433 H   0  0  0  0  0  0  0  0  0  0  0  0
    5.7841   -0.2343   -2.5097 H   0  0  0  0  0  0  0  0  0  0  0  0
    6.1266   -2.6582   -3.4948 H   0  0  0  0  0  0  0  0  0  0  0  0
    6.8265   -3.6347   -1.3329 H   0  0  0  0  0  0  0  0  0  0  0  0
    4.9543   -0.4610   -0.0660 H   0  0  0  0  0  0  0  0  0  0  0  0
    3.3546   -5.1207    4.6643 H   0  0  0  0  0  0  0  0  0  0  0  0
    2.1374   -5.0539    3.4525 H   0  0  0  0  0  0  0  0  0  0  0  0
    4.4586   -7.1491    3.4807 H   0  0  0  0  0  0  0  0  0  0  0  0
    2.8687   -7.3401    4.2185 H   0  0  0  0  0  0  0  0  0  0  0  0
    3.8397   -9.1867    2.3330 H   0  0  0  0  0  0  0  0  0  0  0  0
    2.4172   -9.2600    1.2538 H   0  0  0  0  0  0  0  0  0  0  0  0
    2.1942   -9.1995    3.0256 H   0  0  0  0  0  0  0  0  0  0  0  0
    4.1306   -7.8070    0.5798 H   0  0  0  0  0  0  0  0  0  0  0  0
    2.8300   -6.6568    0.1044 H   0  0  0  0  0  0  0  0  0  0  0  0
  1  2  1  0
  1 31  1  0
  1 32  1  0
  1 33  1  0
  2  3  1  0
  4  3  1  1
  3 34  1  0
  3 35  1  0
 20  4  1  1
  4 21  1  0
  4  5  1  0
  5  6  2  0
  5 36  1  0
  6  7  1  0
  6 37  1  0
  7  8  1  0
  7 38  1  0
  7 39  1  0
  8  9  1  0
  8 21  1  0
  8 40  1  6
  9 10  1  0
  9 41  1  0
  9 42  1  0
 10 20  1  0
 10 11  1  0
 10 43  1  6
 11 16  1  0
 11 12  1  6
 11 13  1  0
 12 44  1  0
 13 14  1  0
 13 45  1  0
 13 46  1  0
 14 15  1  0
 14 47  1  0
 14 48  1  0
 15 19  1  0
 15 16  1  0
 15 49  1  6
 16 17  1  0
 16 50  1  6
 17 20  1  0
 17 18  1  0
 17 51  1  6
 18 19  1  0
 19 20  1  0
 19 52  1  1
 21 29  1  0
 21 22  1  1
 22 23  1  0
 23 24  1  0
 23 53  1  0
 23 54  1  0
 24 25  1  0
 24 55  1  0
 24 56  1  0
 25 26  1  0
 25 27  1  6
 25 28  1  0
 26 57  1  0
 26 58  1  0
 26 59  1  0
 28 29  1  0
 28 60  1  0
 28 61  1  0
 29 30  2  0
M  CHG  2  25   1  27  -1
M  END
>  <i_m_ct_stereo_status>  (353) 
1

>  <s_m_source_file>  (353) 
/var/tmp/pbs.5076255.sched01/tmpulc5pjk6/123bob0etdf.sdf

>  <i_m_source_file_index>  (353) 
32

>  <i_lp_mmshare_version>  (353) 
48012

>  <i_f3d_flags>  (353) 
0

>  <s_epik_input>  (353) 
Tz1DMVtDSDJdW05AQCtdKFtPLV0pKFtDSDNdKVtDSDJdW0NIMl1PW0NAXTEoW0NAXTIoW0NAXTM0NSlbQ0gyXU9bQ0gzXSlbQ0BASF0oW0NIMl1bQ0hdPVtDSF0yKVtDSDJdW0NASF0zW0NAXTYoW09IXSlbQ0BIXTdbQ0BASF0oW0NIMl1bQ0gyXTYpW0NAQEhdNU9bQ0BASF00Nw==

>  <s_epik_cmdline>  (353) 
J2VwaWtfcHl0aG9uJywgJy1waHQnLCAnMi4wJywgJy1waCcsICc3LjAnLCAnLXRuJywgJzgnLCAnLW1hJywgJzIwMCcsICctaW1hZScsICc8aW5maWxlLm1hZT4nLCAnLW9tYWUnLCAnPG91dGZpbGUubWFlPic=

>  <r_epik_Ionization_Penalty>  (353) 
0.000352708

>  <r_epik_Ionization_Penalty_Charging>  (353) 
0.000352302

>  <r_epik_Ionization_Penalty_Neutral>  (353) 
4.05596e-07

>  <r_epik_State_Penalty>  (353) 
0.000214087

>  <r_epik_Charging_Adjusted_Penalty>  (353) 
0.000566389

>  <i_epik_Tot_Q>  (353) 
0

>  <i_epik_Tot_abs_Q>  (353) 
2

>  <s_lp_Force_Field>  (353) 
OPLS3e

>  <r_lp_Energy>  (353) 
99.6755

>  <b_lp_Chiralities_Consistent>  (353) 
1

>  <s_lp_Variant>  (353) 
101:0-1

>  <s_i_glide_gridfile>  (353) 
pfpi4k_grid

>  <i_i_glide_lignum>  (353) 
32

>  <i_i_glide_rotatable_bonds>  (353) 
3

>  <r_i_docking_score>  (353) 
-3.90956

>  <r_i_glide_ligand_efficiency>  (353) 
-0.130319

>  <r_i_glide_ligand_efficiency_sa>  (353) 
-0.40493

>  <r_i_glide_ligand_efficiency_ln>  (353) 
-0.888294

>  <r_i_glide_gscore>  (353) 
-3.90956

>  <r_i_glide_lipo>  (353) 
-0.379672

>  <r_i_glide_hbond>  (353) 
-0.458581

>  <r_i_glide_metal>  (353) 
-0

>  <r_i_glide_rewards>  (353) 
-0.661137

>  <r_i_glide_evdw>  (353) 
-21.6235

>  <r_i_glide_ecoul>  (353) 
-9.61135

>  <r_i_glide_erotb>  (353) 
0.113399

>  <r_i_glide_esite>  (353) 
-0.000691169

>  <r_i_glide_emodel>  (353) 
-34.419

>  <r_i_glide_energy>  (353) 
-31.2348

>  <r_i_glide_einternal>  (353) 
2.51095

>  <r_i_glide_intrahb_reward>  (353) 
-0

>  <i_i_glide_confnum>  (353) 
2

>  <i_i_glide_posenum>  (353) 
38

>  <r_i_glide_eff_state_penalty>  (353) 
0

>  <ligand_id>  (353) 
101

>  <original_smiles>  (353) 
COCC12C=CCC(CC3C4(O)CCC5C4C4OC5C431)C21OCC[N+](C)([O-])CC1=O

>  <smiles>  (353) 
[H]OC12C([H])([H])C([H])([H])C3([H])C4([H])OC([H])(C31[H])C41C2([H])C([H])([H])C2([H])C([H])([H])C([H])=C([H])C1(C([H])([H])OC([H])([H])[H])C21OC([H])([H])C([H])([H])[N+]([O-])(C([H])([H])[H])C([H])([H])C1=O

$$$$
101:0:1
     RDKit          3D

 61 67  0  0  1  0  0  0  0  0999 V2000
    7.1762   -5.7549    2.8980 C   0  0  0  0  0  0  0  0  0  0  0  0
    6.1859   -4.7267    2.9616 O   0  0  0  0  0  0  0  0  0  0  0  0
    6.2385   -3.7555    1.9134 C   0  0  0  0  0  0  0  0  0  0  0  0
    4.8673   -3.3318    1.3441 C   0  0  1  0  0  0  0  0  0  0  0  0
    4.4212   -2.0523    2.0771 C   0  0  0  0  0  0  0  0  0  0  0  0
    3.1390   -1.7130    2.2932 C   0  0  0  0  0  0  0  0  0  0  0  0
    1.9953   -2.5580    1.8159 C   0  0  0  0  0  0  0  0  0  0  0  0
    2.4555   -3.8115    0.9965 C   0  0  1  0  0  0  0  0  0  0  0  0
    2.5526   -3.5563   -0.5389 C   0  0  0  0  0  0  0  0  0  0  0  0
    3.9724   -3.5891   -1.1097 C   0  0  1  0  0  0  0  0  0  0  0  0
    4.2920   -3.1071   -2.5685 C   0  0  1  0  0  0  0  0  0  0  0  0
    4.3748   -4.1379   -3.5326 O   0  0  0  0  0  0  0  0  0  0  0  0
    3.4454   -1.9603   -3.1486 C   0  0  0  0  0  0  0  0  0  0  0  0
    4.0316   -0.7199   -2.5118 C   0  0  0  0  0  0  0  0  0  0  0  0
    5.4163   -1.1335   -1.9952 C   0  0  2  0  0  0  0  0  0  0  0  0
    5.7052   -2.5471   -2.4054 C   0  0  1  0  0  0  0  0  0  0  0  0
    6.2468   -3.0486   -1.0705 C   0  0  1  0  0  0  0  0  0  0  0  0
    6.8042   -1.8878   -0.4358 O   0  0  0  0  0  0  0  0  0  0  0  0
    5.4569   -1.4161   -0.5067 C   0  0  2  0  0  0  0  0  0  0  0  0
    5.0055   -2.8976   -0.1863 C   0  0  2  0  0  0  0  0  0  0  0  0
    3.7493   -4.4236    1.6035 C   0  0  2  0  0  0  0  0  0  0  0  0
    3.6252   -4.5270    3.0287 O   0  0  0  0  0  0  0  0  0  0  0  0
    2.6067   -5.3101    3.6404 C   0  0  0  0  0  0  0  0  0  0  0  0
    2.6936   -6.8263    3.4247 C   0  0  0  0  0  0  0  0  0  0  0  0
    2.0943   -7.2285    2.0938 N   0  0  1  0  0  0  0  0  0  0  0  0
    1.9409   -8.7422    2.1148 C   0  0  0  0  0  0  0  0  0  0  0  0
    0.8660   -6.6670    1.9285 O   0  0  0  0  0  0  0  0  0  0  0  0
    2.9767   -6.9094    0.9053 C   0  0  0  0  0  0  0  0  0  0  0  0
    4.0665   -5.8342    1.0162 C   0  0  0  0  0  0  0  0  0  0  0  0
    5.1321   -6.0628    0.4763 O   0  0  0  0  0  0  0  0  0  0  0  0
    7.0231   -6.4304    3.7343 H   0  0  0  0  0  0  0  0  0  0  0  0
    8.1942   -5.3722    2.9397 H   0  0  0  0  0  0  0  0  0  0  0  0
    7.0887   -6.3434    1.9891 H   0  0  0  0  0  0  0  0  0  0  0  0
    6.6664   -2.8417    2.3081 H   0  0  0  0  0  0  0  0  0  0  0  0
    6.9522   -4.0781    1.1504 H   0  0  0  0  0  0  0  0  0  0  0  0
    5.1873   -1.3844    2.4458 H   0  0  0  0  0  0  0  0  0  0  0  0
    2.8817   -0.8028    2.8236 H   0  0  0  0  0  0  0  0  0  0  0  0
    1.4513   -2.8624    2.7080 H   0  0  0  0  0  0  0  0  0  0  0  0
    1.3248   -1.9005    1.2704 H   0  0  0  0  0  0  0  0  0  0  0  0
    1.6958   -4.5714    1.1367 H   0  0  0  0  0  0  0  0  0  0  0  0
    1.9111   -4.2630   -1.0783 H   0  0  0  0  0  0  0  0  0  0  0  0
    2.2348   -2.5490   -0.7550 H   0  0  0  0  0  0  0  0  0  0  0  0
    4.2284   -4.6364   -1.1942 H   0  0  0  0  0  0  0  0  0  0  0  0
    3.8934   -4.8754   -3.1607 H   0  0  0  0  0  0  0  0  0  0  0  0
    3.6003   -1.9078   -4.2242 H   0  0  0  0  0  0  0  0  0  0  0  0
    2.3710   -2.0493   -2.9749 H   0  0  0  0  0  0  0  0  0  0  0  0
    4.1017    0.1123   -3.2208 H   0  0  0  0  0  0  0  0  0  0  0  0
    3.4180   -0.4470   -1.6748 H   0  0  0  0  0  0  0  0  0  0  0  0
    6.1700   -0.4549   -2.3124 H   0  0  0  0  0  0  0  0  0  0  0  0
    6.3596   -2.6656   -3.2688 H   0  0  0  0  0  0  0  0  0  0  0  0
    6.7784   -3.9788   -0.9993 H   0  0  0  0  0  0  0  0  0  0  0  0
    5.2454   -0.6112    0.1775 H   0  0  0  0  0  0  0  0  0  0  0  0
    2.7652   -5.1492    4.7041 H   0  0  0  0  0  0  0  0  0  0  0  0
    1.6061   -4.9261    3.4429 H   0  0  0  0  0  0  0  0  0  0  0  0
    3.6941   -7.2576    3.5242 H   0  0  0  0  0  0  0  0  0  0  0  0
    2.0551   -7.2928    4.1748 H   0  0  0  0  0  0  0  0  0  0  0  0
    2.9188   -9.1901    2.3033 H   0  0  0  0  0  0  0  0  0  0  0  0
    1.5741   -9.0589    1.1440 H   0  0  0  0  0  0  0  0  0  0  0  0
    1.2354   -9.0276    2.8973 H   0  0  0  0  0  0  0  0  0  0  0  0
    3.4904   -7.8340    0.6287 H   0  0  0  0  0  0  0  0  0  0  0  0
    2.3003   -6.6503    0.0882 H   0  0  0  0  0  0  0  0  0  0  0  0
  1  2  1  0
  1 31  1  0
  1 32  1  0
  1 33  1  0
  2  3  1  0
  4  3  1  1
  3 34  1  0
  3 35  1  0
 20  4  1  1
  4 21  1  0
  4  5  1  0
  5  6  2  0
  5 36  1  0
  6  7  1  0
  6 37  1  0
  7  8  1  0
  7 38  1  0
  7 39  1  0
  8  9  1  0
  8 21  1  0
  8 40  1  6
  9 10  1  0
  9 41  1  0
  9 42  1  0
 10 20  1  0
 10 11  1  0
 10 43  1  6
 11 16  1  0
 11 12  1  6
 11 13  1  0
 12 44  1  0
 13 14  1  0
 13 45  1  0
 13 46  1  0
 14 15  1  0
 14 47  1  0
 14 48  1  0
 15 19  1  0
 15 16  1  0
 15 49  1  1
 16 17  1  0
 16 50  1  6
 17 20  1  0
 17 18  1  0
 17 51  1  6
 18 19  1  0
 19 20  1  0
 19 52  1  1
 21 29  1  0
 21 22  1  1
 22 23  1  0
 23 24  1  0
 23 53  1  0
 23 54  1  0
 24 25  1  0
 24 55  1  0
 24 56  1  0
 25 26  1  0
 25 27  1  6
 25 28  1  0
 26 57  1  0
 26 58  1  0
 26 59  1  0
 28 29  1  0
 28 60  1  0
 28 61  1  0
 29 30  2  0
M  CHG  2  25   1  27  -1
M  END
>  <i_m_ct_stereo_status>  (354) 
1

>  <s_m_source_file>  (354) 
/var/tmp/pbs.5076255.sched01/tmpulc5pjk6/123bob0etdf.sdf

>  <i_m_source_file_index>  (354) 
32

>  <i_lp_mmshare_version>  (354) 
48012

>  <i_f3d_flags>  (354) 
0

>  <s_epik_input>  (354) 
Tz1DMVtDSDJdW05AQCtdKFtPLV0pKFtDSDNdKVtDSDJdW0NIMl1PW0NAXTEoW0NAXTIoW0NAXTM0NSlbQ0gyXU9bQ0gzXSlbQ0BASF0oW0NIMl1bQ0hdPVtDSF0yKVtDSDJdW0NASF0zW0NAXTYoW09IXSlbQ0BIXTdbQ0BASF0oW0NIMl1bQ0gyXTYpW0NAQEhdNU9bQ0BASF00Nw==

>  <s_epik_cmdline>  (354) 
J2VwaWtfcHl0aG9uJywgJy1waHQnLCAnMi4wJywgJy1waCcsICc3LjAnLCAnLXRuJywgJzgnLCAnLW1hJywgJzIwMCcsICctaW1hZScsICc8aW5maWxlLm1hZT4nLCAnLW9tYWUnLCAnPG91dGZpbGUubWFlPic=

>  <r_epik_Ionization_Penalty>  (354) 
0.000352708

>  <r_epik_Ionization_Penalty_Charging>  (354) 
0.000352302

>  <r_epik_Ionization_Penalty_Neutral>  (354) 
4.05596e-07

>  <r_epik_State_Penalty>  (354) 
0.000214087

>  <r_epik_Charging_Adjusted_Penalty>  (354) 
0.000566389

>  <i_epik_Tot_Q>  (354) 
0

>  <i_epik_Tot_abs_Q>  (354) 
2

>  <s_lp_Force_Field>  (354) 
OPLS3e

>  <r_lp_Energy>  (354) 
99.6755

>  <b_lp_Chiralities_Consistent>  (354) 
1

>  <s_lp_Variant>  (354) 
101:0-1

>  <s_i_glide_gridfile>  (354) 
pfpi4k_grid

>  <i_i_glide_lignum>  (354) 
32

>  <i_i_glide_rotatable_bonds>  (354) 
3

>  <r_i_docking_score>  (354) 
-3.87791

>  <r_i_glide_ligand_efficiency>  (354) 
-0.129264

>  <r_i_glide_ligand_efficiency_sa>  (354) 
-0.401653

>  <r_i_glide_ligand_efficiency_ln>  (354) 
-0.881104

>  <r_i_glide_gscore>  (354) 
-3.87791

>  <r_i_glide_lipo>  (354) 
-0.360308

>  <r_i_glide_hbond>  (354) 
-0.475712

>  <r_i_glide_metal>  (354) 
-0

>  <r_i_glide_rewards>  (354) 
-0.643548

>  <r_i_glide_evdw>  (354) 
-16.4096

>  <r_i_glide_ecoul>  (354) 
-11.1817

>  <r_i_glide_erotb>  (354) 
0.113399

>  <r_i_glide_esite>  (354) 
-0.0140049

>  <r_i_glide_emodel>  (354) 
-27.114

>  <r_i_glide_energy>  (354) 
-27.5913

>  <r_i_glide_einternal>  (354) 
7.0084

>  <r_i_glide_intrahb_reward>  (354) 
-0

>  <i_i_glide_confnum>  (354) 
1

>  <i_i_glide_posenum>  (354) 
37

>  <r_i_glide_eff_state_penalty>  (354) 
0

>  <ligand_id>  (354) 
101

>  <original_smiles>  (354) 
COCC12C=CCC(CC3C4(O)CCC5C4C4OC5C431)C21OCC[N+](C)([O-])CC1=O

>  <smiles>  (354) 
[H]OC12C([H])([H])C([H])([H])C3([H])C4([H])OC([H])(C31[H])C41C2([H])C([H])([H])C2([H])C([H])([H])C([H])=C([H])C1(C([H])([H])OC([H])([H])[H])C21OC([H])([H])C([H])([H])[N+]([O-])(C([H])([H])[H])C([H])([H])C1=O

$$$$
103:0:0
     RDKit          3D

 63 69  0  0  1  0  0  0  0  0999 V2000
    3.7093   -1.0166   -2.1171 C   0  0  0  0  0  0  0  0  0  0  0  0
    4.3975   -2.0826   -1.1961 C   0  0  1  0  0  0  0  0  0  0  0  0
    5.1399   -3.0040   -2.1428 C   0  0  0  0  0  0  0  0  0  0  0  0
    5.0767   -3.0241   -3.3739 O   0  0  0  0  0  0  0  0  0  0  0  0
    5.7596   -3.8652   -1.4047 O   0  0  0  0  0  0  0  0  0  0  0  0
    5.9600   -3.4003   -0.0922 C   0  0  1  0  0  0  0  0  0  0  0  0
    6.7279   -2.2671   -0.2350 O   0  0  0  0  0  0  0  0  0  0  0  0
    5.7149   -1.4040   -0.0478 C   0  0  2  0  0  0  0  0  0  0  0  0
    5.9546   -1.7808    1.7472 C   0  0  1  0  0  0  0  0  0  0  0  0
    5.0401   -1.2992    3.0604 C   0  0  1  0  0  0  0  0  0  0  0  0
    5.0352    0.1068    3.1359 O   0  0  0  0  0  0  0  0  0  0  0  0
    3.4820   -2.0656    3.2390 C   0  0  1  0  0  0  0  0  0  0  0  0
    3.1228   -1.9473    4.6051 O   0  0  0  0  0  0  0  0  0  0  0  0
    2.4783   -1.3834    2.4140 C   0  0  1  0  0  0  0  0  0  0  0  0
    2.0242    0.0603    2.7862 C   0  0  0  0  0  0  0  0  0  0  0  0
    0.8417    0.3616    2.0744 O   0  0  0  0  0  0  0  0  0  0  0  0
    3.3722   -1.5578    1.2187 C   0  0  0  0  0  0  0  0  0  0  0  0
    3.3565   -0.5102    0.5639 O   0  0  0  0  0  0  0  0  0  0  0  0
    4.5278   -3.0741    1.0608 C   0  0  2  0  0  0  0  0  0  0  0  0
    5.5776   -3.2985    2.1158 C   0  0  1  0  0  0  0  0  0  0  0  0
    6.1821   -4.7969    2.2362 C   0  0  0  0  0  0  0  0  0  0  0  0
    5.8139   -5.5252    3.3255 C   0  0  0  0  0  0  0  0  0  0  0  0
    5.0338   -6.8338    3.2010 C   0  0  0  0  0  0  0  0  0  0  0  0
    3.7699   -6.8127    2.2334 C   0  0  1  0  0  0  0  0  0  0  0  0
    3.5869   -8.3062    1.7963 C   0  0  0  0  0  0  0  0  0  0  0  0
    2.5562   -6.7098    2.9524 O   0  0  0  0  0  0  0  0  0  0  0  0
    3.8420   -5.7247    1.0232 C   0  0  2  0  0  0  0  0  0  0  0  0
    2.8244   -6.1448    0.1423 O   0  0  0  0  0  0  0  0  0  0  0  0
    5.1960   -6.1087    0.4074 C   0  0  0  0  0  0  0  0  0  0  0  0
    6.3384   -5.6051    1.1157 O   0  0  0  0  0  0  0  0  0  0  0  0
    3.5264   -4.0918    1.0700 C   0  0  2  0  0  0  0  0  0  0  0  0
    3.3155   -3.3562   -0.5145 C   0  0  1  0  0  0  0  0  0  0  0  0
    1.9587   -3.1106   -0.8341 O   0  0  0  0  0  0  0  0  0  0  0  0
    3.0286   -3.6112    2.6454 C   0  0  1  0  0  0  0  0  0  0  0  0
    3.2418   -4.4177    3.7775 O   0  0  0  0  0  0  0  0  0  0  0  0
    2.7385   -0.6987   -1.7513 H   0  0  0  0  0  0  0  0  0  0  0  0
    3.4920   -1.3463   -3.1334 H   0  0  0  0  0  0  0  0  0  0  0  0
    4.3429   -0.1319   -2.2029 H   0  0  0  0  0  0  0  0  0  0  0  0
    6.8657   -3.8956    0.2290 H   0  0  0  0  0  0  0  0  0  0  0  0
    6.0155   -0.3864   -0.3009 H   0  0  0  0  0  0  0  0  0  0  0  0
    6.9894   -1.5492    1.9953 H   0  0  0  0  0  0  0  0  0  0  0  0
    5.6117   -1.5403    3.9595 H   0  0  0  0  0  0  0  0  0  0  0  0
    4.6000    0.3724    3.9307 H   0  0  0  0  0  0  0  0  0  0  0  0
    3.1604   -1.0341    4.8490 H   0  0  0  0  0  0  0  0  0  0  0  0
    1.5448   -1.9249    2.2820 H   0  0  0  0  0  0  0  0  0  0  0  0
    1.7716    0.1319    3.8416 H   0  0  0  0  0  0  0  0  0  0  0  0
    2.7642    0.8367    2.5845 H   0  0  0  0  0  0  0  0  0  0  0  0
    1.0111    0.2794    1.1416 H   0  0  0  0  0  0  0  0  0  0  0  0
    5.3828   -3.3606    3.1715 H   0  0  0  0  0  0  0  0  0  0  0  0
    5.6141   -5.0374    4.2689 H   0  0  0  0  0  0  0  0  0  0  0  0
    5.7499   -7.5869    2.8740 H   0  0  0  0  0  0  0  0  0  0  0  0
    4.7276   -7.1461    4.2022 H   0  0  0  0  0  0  0  0  0  0  0  0
    4.4395   -8.7461    1.2834 H   0  0  0  0  0  0  0  0  0  0  0  0
    2.7132   -8.4708    1.1685 H   0  0  0  0  0  0  0  0  0  0  0  0
    3.4476   -8.9450    2.6695 H   0  0  0  0  0  0  0  0  0  0  0  0
    2.5855   -5.8723    3.4162 H   0  0  0  0  0  0  0  0  0  0  0  0
    3.0384   -5.8935   -0.7537 H   0  0  0  0  0  0  0  0  0  0  0  0
    5.3501   -7.1811    0.3662 H   0  0  0  0  0  0  0  0  0  0  0  0
    5.2106   -5.9026   -0.6546 H   0  0  0  0  0  0  0  0  0  0  0  0
    3.3815   -4.2102   -1.1845 H   0  0  0  0  0  0  0  0  0  0  0  0
    1.7169   -2.1790   -0.7232 H   0  0  0  0  0  0  0  0  0  0  0  0
    1.9488   -3.7491    2.6288 H   0  0  0  0  0  0  0  0  0  0  0  0
    4.1695   -4.4376    3.9616 H   0  0  0  0  0  0  0  0  0  0  0  0
  2  1  1  6
  1 36  1  0
  1 37  1  0
  1 38  1  0
  2  8  1  0
  2 32  1  0
  2  3  1  0
  3  4  2  0
  3  5  1  0
  5  6  1  0
  6 19  1  0
  6  7  1  0
  6 39  1  1
  7  8  1  0
  8  9  1  0
  8 40  1  1
  9 20  1  0
  9 10  1  0
  9 41  1  1
 10 11  1  0
 10 12  1  0
 10 42  1  1
 11 43  1  0
 12 34  1  0
 12 13  1  1
 12 14  1  0
 13 44  1  0
 14 15  1  0
 14 17  1  0
 14 45  1  6
 15 16  1  0
 15 46  1  0
 15 47  1  0
 16 48  1  0
 17 18  2  0
 19 17  1  6
 19 31  1  0
 19 20  1  0
 20 21  1  0
 20 49  1  1
 21 30  1  0
 21 22  2  0
 22 23  1  0
 22 50  1  0
 23 24  1  0
 23 51  1  0
 23 52  1  0
 24 25  1  0
 24 26  1  1
 24 27  1  0
 25 53  1  0
 25 54  1  0
 25 55  1  0
 26 56  1  0
 27 28  1  6
 27 29  1  0
 31 27  1  6
 28 57  1  0
 29 30  1  0
 29 58  1  0
 29 59  1  0
 31 32  1  0
 31 34  1  0
 32 33  1  0
 32 60  1  6
 33 61  1  0
 34 35  1  0
 34 62  1  6
 35 63  1  0
M  END
>  <i_m_ct_stereo_status>  (355) 
1

>  <s_m_source_file>  (355) 
/var/tmp/pbs.5076255.sched01/tmpulc5pjk6/123bob0etdf.sdf

>  <i_m_source_file_index>  (355) 
34

>  <i_lp_mmshare_version>  (355) 
48012

>  <i_f3d_flags>  (355) 
0

>  <s_epik_input>  (355) 
TzFbQ0BASF0yT0MoPU8pW0NAQF0oW0NIM10pKFtDQEBIXTNbT0hdKVtDQEhdMVtDQEBIXShbQ0BASF0oW09IXSlbQ0BdKFtPSF0pKFtDQEBIXTRbT0hdKVtDQEhdKEM1PU8pW0NIMl1bT0hdKVtDQEhdNkMoT1tDSDJdNyk9W0NIXVtDSDJdW0NAQF0oW0NIM10pKFtPSF0pW0NAQF03KFtPSF0pW0NAQF0zNFtDQEBdMjU2

>  <s_epik_cmdline>  (355) 
J2VwaWtfcHl0aG9uJywgJy1waHQnLCAnMi4wJywgJy1waCcsICc3LjAnLCAnLXRuJywgJzgnLCAnLW1hJywgJzIwMCcsICctaW1hZScsICc8aW5maWxlLm1hZT4nLCAnLW9tYWUnLCAnPG91dGZpbGUubWFlPic=

>  <r_lp_tautomer_probability>  (355) 
1

>  <r_epik_Ionization_Penalty>  (355) 
9.07036e-06

>  <r_epik_Ionization_Penalty_Charging>  (355) 
0

>  <r_epik_Ionization_Penalty_Neutral>  (355) 
9.07036e-06

>  <r_epik_State_Penalty>  (355) 
-0

>  <r_epik_Charging_Adjusted_Penalty>  (355) 
0

>  <i_epik_Tot_Q>  (355) 
0

>  <i_epik_Tot_abs_Q>  (355) 
0

>  <s_epik_Chemistry_Notes>  (355) 
This compound has an ester and may undergo hydrolysis at high or low pH. This compound contains an acetal/aminal-like group ( X-CH(R)-Y where X, Y are N, S, or O) that may be acid/base labile, releasing an aldehyde.

>  <s_lp_Force_Field>  (355) 
OPLS3e

>  <r_lp_Energy>  (355) 
747.743

>  <b_lp_Chiralities_Consistent>  (355) 
1

>  <s_lp_Variant>  (355) 
103:0-1

>  <s_i_glide_gridfile>  (355) 
pfpi4k_grid

>  <i_i_glide_lignum>  (355) 
34

>  <i_i_glide_rotatable_bonds>  (355) 
8

>  <r_i_docking_score>  (355) 
-4.15566

>  <r_i_glide_ligand_efficiency>  (355) 
-0.118733

>  <r_i_glide_ligand_efficiency_sa>  (355) 
-0.388384

>  <r_i_glide_ligand_efficiency_ln>  (355) 
-0.91226

>  <r_i_glide_gscore>  (355) 
-4.15566

>  <r_i_glide_lipo>  (355) 
-0.572013

>  <r_i_glide_hbond>  (355) 
-0.00132631

>  <r_i_glide_metal>  (355) 
-0

>  <r_i_glide_rewards>  (355) 
-0.791082

>  <r_i_glide_evdw>  (355) 
-18.0957

>  <r_i_glide_ecoul>  (355) 
-12.7471

>  <r_i_glide_erotb>  (355) 
0.0579157

>  <r_i_glide_esite>  (355) 
-0.0323154

>  <r_i_glide_emodel>  (355) 
-44.9435

>  <r_i_glide_energy>  (355) 
-30.8427

>  <r_i_glide_einternal>  (355) 
1.66033

>  <r_i_glide_intrahb_reward>  (355) 
-0.5

>  <i_i_glide_confnum>  (355) 
4

>  <i_i_glide_posenum>  (355) 
16

>  <r_i_glide_eff_state_penalty>  (355) 
0

>  <ligand_id>  (355) 
103

>  <original_smiles>  (355) 
CC12C(=O)OC3OC1C1C(O)C4(O)C(CO)C(=O)C35C1C1=CCC(C)(O)C(O)(CO1)C5(C2O)C4O

>  <smiles>  (355) 
[H]OC([H])([H])C1([H])C(=O)C23C4([H])OC(=O)C5(C([H])([H])[H])C([H])(O4)C4([H])C([H])(O[H])C1(O[H])C([H])(O[H])C2(C5([H])O[H])C1(O[H])C([H])([H])OC(=C([H])C([H])([H])C1(O[H])C([H])([H])[H])C43[H]

$$$$
103:0:1
     RDKit          3D

 63 69  0  0  1  0  0  0  0  0999 V2000
    4.3183   -1.0869   -1.9091 C   0  0  0  0  0  0  0  0  0  0  0  0
    4.7429   -2.0710   -0.7635 C   0  0  1  0  0  0  0  0  0  0  0  0
    5.6862   -3.0566   -1.4196 C   0  0  0  0  0  0  0  0  0  0  0  0
    5.9562   -3.1434   -2.6153 O   0  0  0  0  0  0  0  0  0  0  0  0
    6.0851   -3.8535   -0.4838 O   0  0  0  0  0  0  0  0  0  0  0  0
    5.9688   -3.2776    0.7915 C   0  0  1  0  0  0  0  0  0  0  0  0
    6.7653   -2.1587    0.7435 O   0  0  0  0  0  0  0  0  0  0  0  0
    5.7551   -1.2850    0.6022 C   0  0  2  0  0  0  0  0  0  0  0  0
    5.5392   -1.4978    2.4236 C   0  0  1  0  0  0  0  0  0  0  0  0
    4.3413   -0.9099    3.4322 C   0  0  1  0  0  0  0  0  0  0  0  0
    4.3011    0.5023    3.3675 O   0  0  0  0  0  0  0  0  0  0  0  0
    2.7841   -1.6698    3.2920 C   0  0  1  0  0  0  0  0  0  0  0  0
    2.1020   -1.4340    4.5157 O   0  0  0  0  0  0  0  0  0  0  0  0
    2.0230   -1.0597    2.1960 C   0  0  1  0  0  0  0  0  0  0  0  0
    1.5189    0.4180    2.3262 C   0  0  0  0  0  0  0  0  0  0  0  0
    0.2650    0.5384    1.6825 O   0  0  0  0  0  0  0  0  0  0  0  0
    3.1740   -1.3389    1.2726 C   0  0  0  0  0  0  0  0  0  0  0  0
    3.3374   -0.3664    0.5433 O   0  0  0  0  0  0  0  0  0  0  0  0
    4.3063   -2.8605    1.5298 C   0  0  2  0  0  0  0  0  0  0  0  0
    5.0637   -2.9777    2.8195 C   0  0  1  0  0  0  0  0  0  0  0  0
    5.5851   -4.4614    3.2167 C   0  0  0  0  0  0  0  0  0  0  0  0
    4.9554   -5.0886    4.2405 C   0  0  0  0  0  0  0  0  0  0  0  0
    4.2175   -6.4111    4.0457 C   0  0  0  0  0  0  0  0  0  0  0  0
    3.2307   -6.4846    2.8006 C   0  0  1  0  0  0  0  0  0  0  0  0
    3.1410   -8.0102    2.4617 C   0  0  0  0  0  0  0  0  0  0  0  0
    1.8782   -6.3243    3.1909 O   0  0  0  0  0  0  0  0  0  0  0  0
    3.6126   -5.5185    1.5487 C   0  0  2  0  0  0  0  0  0  0  0  0
    2.8495   -6.0665    0.4887 O   0  0  0  0  0  0  0  0  0  0  0  0
    5.0727   -5.9374    1.3231 C   0  0  0  0  0  0  0  0  0  0  0  0
    6.0097   -5.3587    2.2420 O   0  0  0  0  0  0  0  0  0  0  0  0
    3.3199   -3.8827    1.3809 C   0  0  2  0  0  0  0  0  0  0  0  0
    3.4992   -3.2868   -0.2590 C   0  0  1  0  0  0  0  0  0  0  0  0
    2.2298   -3.0719   -0.8713 O   0  0  0  0  0  0  0  0  0  0  0  0
    2.4642   -3.2636    2.7415 C   0  0  1  0  0  0  0  0  0  0  0  0
    2.3853   -3.9675    3.9568 O   0  0  0  0  0  0  0  0  0  0  0  0
    3.2900   -0.7374   -1.8214 H   0  0  0  0  0  0  0  0  0  0  0  0
    4.3590   -1.4919   -2.9221 H   0  0  0  0  0  0  0  0  0  0  0  0
    4.9671   -0.2113   -1.9126 H   0  0  0  0  0  0  0  0  0  0  0  0
    6.7628   -3.7309    1.3709 H   0  0  0  0  0  0  0  0  0  0  0  0
    6.1318   -0.2957    0.3477 H   0  0  0  0  0  0  0  0  0  0  0  0
    6.4873   -1.2288    2.8789 H   0  0  0  0  0  0  0  0  0  0  0  0
    4.6820   -1.0572    4.4605 H   0  0  0  0  0  0  0  0  0  0  0  0
    3.7108    0.8343    4.0219 H   0  0  0  0  0  0  0  0  0  0  0  0
    2.0765   -0.5045    4.6700 H   0  0  0  0  0  0  0  0  0  0  0  0
    1.1512   -1.6223    1.8758 H   0  0  0  0  0  0  0  0  0  0  0  0
    1.3472    0.7028    3.3615 H   0  0  0  0  0  0  0  0  0  0  0  0
    2.1944    1.1774    1.9247 H   0  0  0  0  0  0  0  0  0  0  0  0
    0.3515    0.3590    0.7497 H   0  0  0  0  0  0  0  0  0  0  0  0
    4.6255   -2.9458    3.8028 H   0  0  0  0  0  0  0  0  0  0  0  0
    4.5531   -4.5250    5.0714 H   0  0  0  0  0  0  0  0  0  0  0  0
    4.9809   -7.1832    3.9716 H   0  0  0  0  0  0  0  0  0  0  0  0
    3.6748   -6.6364    4.9645 H   0  0  0  0  0  0  0  0  0  0  0  0
    4.0885   -8.4800    2.2096 H   0  0  0  0  0  0  0  0  0  0  0  0
    2.4454   -8.2362    1.6536 H   0  0  0  0  0  0  0  0  0  0  0  0
    2.7838   -8.5717    3.3247 H   0  0  0  0  0  0  0  0  0  0  0  0
    1.8140   -5.4643    3.6007 H   0  0  0  0  0  0  0  0  0  0  0  0
    3.1930   -5.7738   -0.3445 H   0  0  0  0  0  0  0  0  0  0  0  0
    5.2284   -7.0073    1.3965 H   0  0  0  0  0  0  0  0  0  0  0  0
    5.3544   -5.8231    0.2868 H   0  0  0  0  0  0  0  0  0  0  0  0
    3.7083   -4.1855   -0.8331 H   0  0  0  0  0  0  0  0  0  0  0  0
    1.9239   -2.1624   -0.7528 H   0  0  0  0  0  0  0  0  0  0  0  0
    1.4190   -3.4020    2.4786 H   0  0  0  0  0  0  0  0  0  0  0  0
    3.2363   -3.9591    4.3613 H   0  0  0  0  0  0  0  0  0  0  0  0
  2  1  1  6
  1 36  1  0
  1 37  1  0
  1 38  1  0
  2  8  1  0
  2 32  1  0
  2  3  1  0
  3  4  2  0
  3  5  1  0
  5  6  1  0
  6 19  1  0
  6  7  1  0
  6 39  1  1
  7  8  1  0
  8  9  1  0
  8 40  1  1
  9 20  1  0
  9 10  1  0
  9 41  1  1
 10 11  1  0
 10 12  1  0
 10 42  1  1
 11 43  1  0
 12 34  1  0
 12 13  1  1
 12 14  1  0
 13 44  1  0
 14 15  1  0
 14 17  1  0
 14 45  1  6
 15 16  1  0
 15 46  1  0
 15 47  1  0
 16 48  1  0
 17 18  2  0
 19 17  1  6
 19 31  1  0
 19 20  1  0
 20 21  1  0
 20 49  1  1
 21 30  1  0
 21 22  2  0
 22 23  1  0
 22 50  1  0
 23 24  1  0
 23 51  1  0
 23 52  1  0
 24 25  1  0
 24 26  1  1
 24 27  1  0
 25 53  1  0
 25 54  1  0
 25 55  1  0
 26 56  1  0
 27 28  1  6
 27 29  1  0
 31 27  1  6
 28 57  1  0
 29 30  1  0
 29 58  1  0
 29 59  1  0
 31 32  1  0
 31 34  1  0
 32 33  1  0
 32 60  1  6
 33 61  1  0
 34 35  1  0
 34 62  1  6
 35 63  1  0
M  END
>  <i_m_ct_stereo_status>  (356) 
1

>  <s_m_source_file>  (356) 
/var/tmp/pbs.5076255.sched01/tmpulc5pjk6/123bob0etdf.sdf

>  <i_m_source_file_index>  (356) 
34

>  <i_lp_mmshare_version>  (356) 
48012

>  <i_f3d_flags>  (356) 
0

>  <s_epik_input>  (356) 
TzFbQ0BASF0yT0MoPU8pW0NAQF0oW0NIM10pKFtDQEBIXTNbT0hdKVtDQEhdMVtDQEBIXShbQ0BASF0oW09IXSlbQ0BdKFtPSF0pKFtDQEBIXTRbT0hdKVtDQEhdKEM1PU8pW0NIMl1bT0hdKVtDQEhdNkMoT1tDSDJdNyk9W0NIXVtDSDJdW0NAQF0oW0NIM10pKFtPSF0pW0NAQF03KFtPSF0pW0NAQF0zNFtDQEBdMjU2

>  <s_epik_cmdline>  (356) 
J2VwaWtfcHl0aG9uJywgJy1waHQnLCAnMi4wJywgJy1waCcsICc3LjAnLCAnLXRuJywgJzgnLCAnLW1hJywgJzIwMCcsICctaW1hZScsICc8aW5maWxlLm1hZT4nLCAnLW9tYWUnLCAnPG91dGZpbGUubWFlPic=

>  <r_lp_tautomer_probability>  (356) 
1

>  <r_epik_Ionization_Penalty>  (356) 
9.07036e-06

>  <r_epik_Ionization_Penalty_Charging>  (356) 
0

>  <r_epik_Ionization_Penalty_Neutral>  (356) 
9.07036e-06

>  <r_epik_State_Penalty>  (356) 
-0

>  <r_epik_Charging_Adjusted_Penalty>  (356) 
0

>  <i_epik_Tot_Q>  (356) 
0

>  <i_epik_Tot_abs_Q>  (356) 
0

>  <s_epik_Chemistry_Notes>  (356) 
This compound has an ester and may undergo hydrolysis at high or low pH. This compound contains an acetal/aminal-like group ( X-CH(R)-Y where X, Y are N, S, or O) that may be acid/base labile, releasing an aldehyde.

>  <s_lp_Force_Field>  (356) 
OPLS3e

>  <r_lp_Energy>  (356) 
747.743

>  <b_lp_Chiralities_Consistent>  (356) 
1

>  <s_lp_Variant>  (356) 
103:0-1

>  <s_i_glide_gridfile>  (356) 
pfpi4k_grid

>  <i_i_glide_lignum>  (356) 
34

>  <i_i_glide_rotatable_bonds>  (356) 
8

>  <r_i_docking_score>  (356) 
-3.61147

>  <r_i_glide_ligand_efficiency>  (356) 
-0.103185

>  <r_i_glide_ligand_efficiency_sa>  (356) 
-0.337524

>  <r_i_glide_ligand_efficiency_ln>  (356) 
-0.792797

>  <r_i_glide_gscore>  (356) 
-3.61147

>  <r_i_glide_lipo>  (356) 
-0.445733

>  <r_i_glide_hbond>  (356) 
0

>  <r_i_glide_metal>  (356) 
-0

>  <r_i_glide_rewards>  (356) 
-0.703224

>  <r_i_glide_evdw>  (356) 
-23.937

>  <r_i_glide_ecoul>  (356) 
-8.71972

>  <r_i_glide_erotb>  (356) 
0.0827368

>  <r_i_glide_esite>  (356) 
-0.04044

>  <r_i_glide_emodel>  (356) 
-44.5252

>  <r_i_glide_energy>  (356) 
-32.6567

>  <r_i_glide_einternal>  (356) 
2.97552

>  <r_i_glide_intrahb_reward>  (356) 
-0.5

>  <i_i_glide_confnum>  (356) 
1

>  <i_i_glide_posenum>  (356) 
1

>  <r_i_glide_eff_state_penalty>  (356) 
0

>  <ligand_id>  (356) 
103

>  <original_smiles>  (356) 
CC12C(=O)OC3OC1C1C(O)C4(O)C(CO)C(=O)C35C1C1=CCC(C)(O)C(O)(CO1)C5(C2O)C4O

>  <smiles>  (356) 
[H]OC([H])([H])C1([H])C(=O)C23C4([H])OC(=O)C5(C([H])([H])[H])C([H])(O4)C4([H])C([H])(O[H])C1(O[H])C([H])(O[H])C2(C5([H])O[H])C1(O[H])C([H])([H])OC(=C([H])C([H])([H])C1(O[H])C([H])([H])[H])C43[H]

$$$$
103:0:2
     RDKit          3D

 63 69  0  0  1  0  0  0  0  0999 V2000
    5.0346   -1.0682   -1.6056 C   0  0  0  0  0  0  0  0  0  0  0  0
    5.1073   -2.1004   -0.4359 C   0  0  1  0  0  0  0  0  0  0  0  0
    6.0217   -3.1984   -0.9309 C   0  0  0  0  0  0  0  0  0  0  0  0
    6.5293   -3.2934   -2.0464 O   0  0  0  0  0  0  0  0  0  0  0  0
    6.0925   -4.0732    0.0363 O   0  0  0  0  0  0  0  0  0  0  0  0
    5.8134   -3.4810    1.2806 C   0  0  1  0  0  0  0  0  0  0  0  0
    6.7457   -2.4844    1.3965 O   0  0  0  0  0  0  0  0  0  0  0  0
    5.9240   -1.4693    1.1090 C   0  0  2  0  0  0  0  0  0  0  0  0
    5.3356   -1.6617    2.8459 C   0  0  1  0  0  0  0  0  0  0  0  0
    4.0731   -0.9040    3.6183 C   0  0  1  0  0  0  0  0  0  0  0  0
    4.3171    0.4817    3.6047 O   0  0  0  0  0  0  0  0  0  0  0  0
    2.4761   -1.4200    3.1581 C   0  0  1  0  0  0  0  0  0  0  0  0
    1.6137   -1.1108    4.2346 O   0  0  0  0  0  0  0  0  0  0  0  0
    2.0260   -0.7070    1.9565 C   0  0  1  0  0  0  0  0  0  0  0  0
    1.7087    0.8211    2.0230 C   0  0  0  0  0  0  0  0  0  0  0  0
    0.3323    1.0038    2.2613 O   0  0  0  0  0  0  0  0  0  0  0  0
    3.2910   -1.1441    1.2659 C   0  0  0  0  0  0  0  0  0  0  0  0
    3.7251   -0.2038    0.6270 O   0  0  0  0  0  0  0  0  0  0  0  0
    4.1210   -2.8167    1.6913 C   0  0  2  0  0  0  0  0  0  0  0  0
    4.5869   -3.0499    3.0982 C   0  0  1  0  0  0  0  0  0  0  0  0
    4.8303   -4.5780    3.5653 C   0  0  0  0  0  0  0  0  0  0  0  0
    3.9118   -5.1068    4.4142 C   0  0  0  0  0  0  0  0  0  0  0  0
    3.0505   -6.3131    4.0387 C   0  0  0  0  0  0  0  0  0  0  0  0
    2.3258   -6.2504    2.6285 C   0  0  1  0  0  0  0  0  0  0  0  0
    2.0963   -7.7479    2.2343 C   0  0  0  0  0  0  0  0  0  0  0  0
    0.9660   -5.8826    2.7657 O   0  0  0  0  0  0  0  0  0  0  0  0
    3.0781   -5.3376    1.5104 C   0  0  2  0  0  0  0  0  0  0  0  0
    2.4405   -5.7693    0.3195 O   0  0  0  0  0  0  0  0  0  0  0  0
    4.4806   -5.9751    1.5706 C   0  0  0  0  0  0  0  0  0  0  0  0
    5.3046   -5.5279    2.6631 O   0  0  0  0  0  0  0  0  0  0  0  0
    3.0532   -3.6793    1.3295 C   0  0  2  0  0  0  0  0  0  0  0  0
    3.6412   -3.1187   -0.2236 C   0  0  1  0  0  0  0  0  0  0  0  0
    2.6230   -2.7714   -1.1522 O   0  0  0  0  0  0  0  0  0  0  0  0
    2.0586   -2.9439    2.5292 C   0  0  1  0  0  0  0  0  0  0  0  0
    1.6269   -3.6345    3.6713 O   0  0  0  0  0  0  0  0  0  0  0  0
    4.0480   -0.6215   -1.7114 H   0  0  0  0  0  0  0  0  0  0  0  0
    5.2306   -1.4809   -2.5959 H   0  0  0  0  0  0  0  0  0  0  0  0
    5.7484   -0.2579   -1.4416 H   0  0  0  0  0  0  0  0  0  0  0  0
    6.4267   -3.9962    2.0209 H   0  0  0  0  0  0  0  0  0  0  0  0
    6.4933   -0.5475    0.9641 H   0  0  0  0  0  0  0  0  0  0  0  0
    6.1893   -1.5310    3.4928 H   0  0  0  0  0  0  0  0  0  0  0  0
    4.1677   -1.1102    4.6800 H   0  0  0  0  0  0  0  0  0  0  0  0
    3.6216    0.9126    4.0762 H   0  0  0  0  0  0  0  0  0  0  0  0
    1.5738   -0.1712    4.3112 H   0  0  0  0  0  0  0  0  0  0  0  0
    1.1911   -1.1257    1.3991 H   0  0  0  0  0  0  0  0  0  0  0  0
    2.2246    1.4045    2.7837 H   0  0  0  0  0  0  0  0  0  0  0  0
    1.9259    1.2902    1.0666 H   0  0  0  0  0  0  0  0  0  0  0  0
    0.1051    1.8721    1.9540 H   0  0  0  0  0  0  0  0  0  0  0  0
    3.9821   -2.9489    3.9876 H   0  0  0  0  0  0  0  0  0  0  0  0
    3.4204   -4.4881    5.1584 H   0  0  0  0  0  0  0  0  0  0  0  0
    3.7094   -7.1752    4.0832 H   0  0  0  0  0  0  0  0  0  0  0  0
    2.3152   -6.4672    4.8278 H   0  0  0  0  0  0  0  0  0  0  0  0
    2.9993   -8.3486    2.1667 H   0  0  0  0  0  0  0  0  0  0  0  0
    1.5524   -7.8726    1.3001 H   0  0  0  0  0  0  0  0  0  0  0  0
    1.5020   -8.2409    2.9983 H   0  0  0  0  0  0  0  0  0  0  0  0
    0.9865   -5.0258    3.1994 H   0  0  0  0  0  0  0  0  0  0  0  0
    2.9651   -5.5348   -0.4347 H   0  0  0  0  0  0  0  0  0  0  0  0
    4.4640   -7.0564    1.6569 H   0  0  0  0  0  0  0  0  0  0  0  0
    4.9604   -5.9229    0.6044 H   0  0  0  0  0  0  0  0  0  0  0  0
    3.8700   -4.0520   -0.7274 H   0  0  0  0  0  0  0  0  0  0  0  0
    2.1034   -2.0094   -0.8706 H   0  0  0  0  0  0  0  0  0  0  0  0
    1.0824   -2.8838    2.0975 H   0  0  0  0  0  0  0  0  0  0  0  0
    2.3649   -3.7028    4.2565 H   0  0  0  0  0  0  0  0  0  0  0  0
  2  1  1  6
  1 36  1  0
  1 37  1  0
  1 38  1  0
  2  8  1  0
  2 32  1  0
  2  3  1  0
  3  4  2  0
  3  5  1  0
  5  6  1  0
  6 19  1  0
  6  7  1  0
  6 39  1  1
  7  8  1  0
  8  9  1  0
  8 40  1  6
  9 20  1  0
  9 10  1  0
  9 41  1  1
 10 11  1  0
 10 12  1  0
 10 42  1  1
 11 43  1  0
 12 34  1  0
 12 13  1  1
 12 14  1  0
 13 44  1  0
 14 15  1  0
 14 17  1  0
 14 45  1  6
 15 16  1  0
 15 46  1  0
 15 47  1  0
 16 48  1  0
 17 18  2  0
 19 17  1  1
 19 31  1  0
 19 20  1  0
 20 21  1  0
 20 49  1  1
 21 30  1  0
 21 22  2  0
 22 23  1  0
 22 50  1  0
 23 24  1  0
 23 51  1  0
 23 52  1  0
 24 25  1  0
 24 26  1  1
 24 27  1  0
 25 53  1  0
 25 54  1  0
 25 55  1  0
 26 56  1  0
 27 28  1  6
 27 29  1  0
 31 27  1  6
 28 57  1  0
 29 30  1  0
 29 58  1  0
 29 59  1  0
 31 32  1  0
 31 34  1  0
 32 33  1  0
 32 60  1  6
 33 61  1  0
 34 35  1  0
 34 62  1  6
 35 63  1  0
M  END
>  <i_m_ct_stereo_status>  (357) 
1

>  <s_m_source_file>  (357) 
/var/tmp/pbs.5076255.sched01/tmpulc5pjk6/123bob0etdf.sdf

>  <i_m_source_file_index>  (357) 
34

>  <i_lp_mmshare_version>  (357) 
48012

>  <i_f3d_flags>  (357) 
0

>  <s_epik_input>  (357) 
TzFbQ0BASF0yT0MoPU8pW0NAQF0oW0NIM10pKFtDQEBIXTNbT0hdKVtDQEhdMVtDQEBIXShbQ0BASF0oW09IXSlbQ0BdKFtPSF0pKFtDQEBIXTRbT0hdKVtDQEhdKEM1PU8pW0NIMl1bT0hdKVtDQEhdNkMoT1tDSDJdNyk9W0NIXVtDSDJdW0NAQF0oW0NIM10pKFtPSF0pW0NAQF03KFtPSF0pW0NAQF0zNFtDQEBdMjU2

>  <s_epik_cmdline>  (357) 
J2VwaWtfcHl0aG9uJywgJy1waHQnLCAnMi4wJywgJy1waCcsICc3LjAnLCAnLXRuJywgJzgnLCAnLW1hJywgJzIwMCcsICctaW1hZScsICc8aW5maWxlLm1hZT4nLCAnLW9tYWUnLCAnPG91dGZpbGUubWFlPic=

>  <r_lp_tautomer_probability>  (357) 
1

>  <r_epik_Ionization_Penalty>  (357) 
9.07036e-06

>  <r_epik_Ionization_Penalty_Charging>  (357) 
0

>  <r_epik_Ionization_Penalty_Neutral>  (357) 
9.07036e-06

>  <r_epik_State_Penalty>  (357) 
-0

>  <r_epik_Charging_Adjusted_Penalty>  (357) 
0

>  <i_epik_Tot_Q>  (357) 
0

>  <i_epik_Tot_abs_Q>  (357) 
0

>  <s_epik_Chemistry_Notes>  (357) 
This compound has an ester and may undergo hydrolysis at high or low pH. This compound contains an acetal/aminal-like group ( X-CH(R)-Y where X, Y are N, S, or O) that may be acid/base labile, releasing an aldehyde.

>  <s_lp_Force_Field>  (357) 
OPLS3e

>  <r_lp_Energy>  (357) 
747.743

>  <b_lp_Chiralities_Consistent>  (357) 
1

>  <s_lp_Variant>  (357) 
103:0-1

>  <s_i_glide_gridfile>  (357) 
pfpi4k_grid

>  <i_i_glide_lignum>  (357) 
34

>  <i_i_glide_rotatable_bonds>  (357) 
8

>  <r_i_docking_score>  (357) 
-3.42639

>  <r_i_glide_ligand_efficiency>  (357) 
-0.097897

>  <r_i_glide_ligand_efficiency_sa>  (357) 
-0.320227

>  <r_i_glide_ligand_efficiency_ln>  (357) 
-0.752169

>  <r_i_glide_gscore>  (357) 
-3.42639

>  <r_i_glide_lipo>  (357) 
-0.33258

>  <r_i_glide_hbond>  (357) 
0

>  <r_i_glide_metal>  (357) 
-0

>  <r_i_glide_rewards>  (357) 
-0.733151

>  <r_i_glide_evdw>  (357) 
-22.9666

>  <r_i_glide_ecoul>  (357) 
-8.39735

>  <r_i_glide_erotb>  (357) 
0.0827368

>  <r_i_glide_esite>  (357) 
-0.0354648

>  <r_i_glide_emodel>  (357) 
-41.9028

>  <r_i_glide_energy>  (357) 
-31.364

>  <r_i_glide_einternal>  (357) 
4.9695

>  <r_i_glide_intrahb_reward>  (357) 
-0.5

>  <i_i_glide_confnum>  (357) 
2

>  <i_i_glide_posenum>  (357) 
7

>  <r_i_glide_eff_state_penalty>  (357) 
0

>  <ligand_id>  (357) 
103

>  <original_smiles>  (357) 
CC12C(=O)OC3OC1C1C(O)C4(O)C(CO)C(=O)C35C1C1=CCC(C)(O)C(O)(CO1)C5(C2O)C4O

>  <smiles>  (357) 
[H]OC([H])([H])C1([H])C(=O)C23C4([H])OC(=O)C5(C([H])([H])[H])C([H])(O4)C4([H])C([H])(O[H])C1(O[H])C([H])(O[H])C2(C5([H])O[H])C1(O[H])C([H])([H])OC(=C([H])C([H])([H])C1(O[H])C([H])([H])[H])C43[H]

$$$$
104:0:0
     RDKit          3D

 51 55  0  0  1  0  0  0  0  0999 V2000
    5.7718   -5.4645    2.9748 C   0  0  0  0  0  0  0  0  0  0  0  0
    5.4869   -4.5514    1.7877 C   0  0  0  0  0  0  0  0  0  0  0  0
    5.0860   -5.0672    0.6017 C   0  0  0  0  0  0  0  0  0  0  0  0
    3.6305   -5.3264    0.7918 C   0  0  0  0  0  0  0  0  0  0  0  0
    3.2539   -4.0061    1.4693 C   0  0  0  0  0  0  0  0  0  0  0  0
    4.6003   -3.3215    1.9735 C   0  0  1  0  0  0  0  0  0  0  0  0
    4.1425   -2.6129    3.2732 C   0  0  0  0  0  0  0  0  0  0  0  0
    4.0575   -3.1971    4.4859 C   0  0  0  0  0  0  0  0  0  0  0  0
    3.1996   -2.6009    5.5283 C   0  0  0  0  0  0  0  0  0  0  0  0
    3.3316   -2.8942    6.7145 O   0  0  0  0  0  0  0  0  0  0  0  0
    2.1508   -1.6721    5.0752 C   0  0  0  0  0  0  0  0  0  0  0  0
    2.2796   -1.0545    3.8820 C   0  0  0  0  0  0  0  0  0  0  0  0
    3.5273   -1.1913    3.0082 C   0  0  1  0  0  0  0  0  0  0  0  0
    4.4570   -0.0496    3.5179 C   0  0  0  0  0  0  0  0  0  0  0  0
    3.1933   -0.9433    1.4840 C   0  0  0  0  0  0  0  0  0  0  0  0
    4.3546   -1.2972    0.4764 C   0  0  2  0  0  0  0  0  0  0  0  0
    3.9425   -1.8259   -0.9444 C   0  0  1  0  0  0  0  0  0  0  0  0
    4.4961   -0.9122   -2.0575 C   0  0  0  0  0  0  0  0  0  0  0  0
    4.1269   -3.3528   -1.3209 C   0  0  0  0  0  0  0  0  0  0  0  0
    5.2797   -4.2655   -0.7313 C   0  0  1  0  0  0  0  0  0  0  0  0
    6.5911   -3.4810   -0.7539 C   0  0  0  0  0  0  0  0  0  0  0  0
    6.6747   -2.4825    0.3918 C   0  0  0  0  0  0  0  0  0  0  0  0
    5.3505   -2.2084    1.1632 C   0  0  2  0  0  0  0  0  0  0  0  0
    6.4307   -4.9909    3.7083 H   0  0  0  0  0  0  0  0  0  0  0  0
    6.2759   -6.3708    2.6248 H   0  0  0  0  0  0  0  0  0  0  0  0
    4.8542   -5.8021    3.4634 H   0  0  0  0  0  0  0  0  0  0  0  0
    3.0815   -5.5898   -0.1069 H   0  0  0  0  0  0  0  0  0  0  0  0
    3.5065   -6.1603    1.4875 H   0  0  0  0  0  0  0  0  0  0  0  0
    2.6497   -3.4197    0.7954 H   0  0  0  0  0  0  0  0  0  0  0  0
    2.5854   -4.2419    2.2981 H   0  0  0  0  0  0  0  0  0  0  0  0
    4.4300   -4.1795    4.7033 H   0  0  0  0  0  0  0  0  0  0  0  0
    1.2846   -1.5281    5.7076 H   0  0  0  0  0  0  0  0  0  0  0  0
    1.5039   -0.3891    3.5348 H   0  0  0  0  0  0  0  0  0  0  0  0
    4.8137   -0.2390    4.5323 H   0  0  0  0  0  0  0  0  0  0  0  0
    3.9240    0.9019    3.5555 H   0  0  0  0  0  0  0  0  0  0  0  0
    5.3324    0.1346    2.9002 H   0  0  0  0  0  0  0  0  0  0  0  0
    2.2707   -1.4598    1.2278 H   0  0  0  0  0  0  0  0  0  0  0  0
    2.9200    0.1010    1.3377 H   0  0  0  0  0  0  0  0  0  0  0  0
    4.8873   -0.3589    0.3220 H   0  0  0  0  0  0  0  0  0  0  0  0
    2.8689   -1.6705   -1.0144 H   0  0  0  0  0  0  0  0  0  0  0  0
    5.5802   -0.9550   -2.1169 H   0  0  0  0  0  0  0  0  0  0  0  0
    4.2169    0.1257   -1.8822 H   0  0  0  0  0  0  0  0  0  0  0  0
    4.0883   -1.1706   -3.0341 H   0  0  0  0  0  0  0  0  0  0  0  0
    3.1603   -3.8529   -1.2900 H   0  0  0  0  0  0  0  0  0  0  0  0
    4.3031   -3.3701   -2.3932 H   0  0  0  0  0  0  0  0  0  0  0  0
    5.3767   -5.0647   -1.4660 H   0  0  0  0  0  0  0  0  0  0  0  0
    7.4369   -4.1691   -0.6881 H   0  0  0  0  0  0  0  0  0  0  0  0
    6.6978   -2.9762   -1.7126 H   0  0  0  0  0  0  0  0  0  0  0  0
    7.4216   -2.8546    1.0957 H   0  0  0  0  0  0  0  0  0  0  0  0
    7.0911   -1.5454    0.0221 H   0  0  0  0  0  0  0  0  0  0  0  0
    5.8276   -1.6077    1.9282 H   0  0  0  0  0  0  0  0  0  0  0  0
  1  2  1  0
  1 24  1  0
  1 25  1  0
  1 26  1  0
  2  6  1  0
  2  3  2  0
  3 20  1  0
  3  4  1  0
  4  5  1  0
  4 27  1  0
  4 28  1  0
  6  5  1  6
  5 29  1  0
  5 30  1  0
  6 23  1  0
  6  7  1  0
  7 13  1  0
  7  8  2  0
  8  9  1  0
  8 31  1  0
  9 10  2  0
  9 11  1  0
 11 12  2  0
 11 32  1  0
 12 13  1  0
 12 33  1  0
 13 14  1  1
 13 15  1  0
 14 34  1  0
 14 35  1  0
 14 36  1  0
 15 16  1  0
 15 37  1  0
 15 38  1  0
 16 23  1  0
 16 17  1  0
 16 39  1  6
 17 18  1  0
 17 19  1  0
 17 40  1  1
 18 41  1  0
 18 42  1  0
 18 43  1  0
 19 20  1  0
 19 44  1  0
 19 45  1  0
 20 21  1  0
 20 46  1  6
 21 22  1  0
 21 47  1  0
 21 48  1  0
 22 23  1  0
 22 49  1  0
 22 50  1  0
 23 51  1  1
M  END
>  <i_m_ct_stereo_status>  (358) 
1

>  <s_m_source_file>  (358) 
/var/tmp/pbs.5076255.sched01/tmpulc5pjk6/123bob0etdf.sdf

>  <i_m_source_file_index>  (358) 
35

>  <i_lp_mmshare_version>  (358) 
48012

>  <i_f3d_flags>  (358) 
0

>  <s_epik_input>  (358) 
W0NIM11DMT1DKFtDSDJdW0NIMl0yKVtDQEBIXShbQ0gyXVtDQEBIXTNbQ0gzXSlbQ0gyXVtDSDJdW0NASF00W0NAQEhdM1tDSDJdW0NAQF0oQz01W0NAQF0xMjQpKFtDSDNdKVtDSF09W0NIXUMoPU8pW0NIXTU=

>  <s_epik_cmdline>  (358) 
J2VwaWtfcHl0aG9uJywgJy1waHQnLCAnMi4wJywgJy1waCcsICc3LjAnLCAnLXRuJywgJzgnLCAnLW1hJywgJzIwMCcsICctaW1hZScsICc8aW5maWxlLm1hZT4nLCAnLW9tYWUnLCAnPG91dGZpbGUubWFlPic=

>  <r_lp_tautomer_probability>  (358) 
1

>  <r_epik_Ionization_Penalty>  (358) 
0

>  <r_epik_Ionization_Penalty_Charging>  (358) 
0

>  <r_epik_Ionization_Penalty_Neutral>  (358) 
0

>  <r_epik_State_Penalty>  (358) 
-0

>  <r_epik_Charging_Adjusted_Penalty>  (358) 
0

>  <i_epik_Tot_Q>  (358) 
0

>  <i_epik_Tot_abs_Q>  (358) 
0

>  <s_lp_Force_Field>  (358) 
OPLS3e

>  <r_lp_Energy>  (358) 
160.568

>  <b_lp_Chiralities_Consistent>  (358) 
1

>  <s_lp_Variant>  (358) 
104:0-1

>  <s_i_glide_gridfile>  (358) 
pfpi4k_grid

>  <i_i_glide_lignum>  (358) 
35

>  <i_i_glide_rotatable_bonds>  (358) 
0

>  <r_i_docking_score>  (358) 
-3.05336

>  <r_i_glide_ligand_efficiency>  (358) 
-0.132755

>  <r_i_glide_ligand_efficiency_sa>  (358) 
-0.377537

>  <r_i_glide_ligand_efficiency_ln>  (358) 
-0.73833

>  <r_i_glide_gscore>  (358) 
-3.05336

>  <r_i_glide_lipo>  (358) 
-0.520354

>  <r_i_glide_hbond>  (358) 
0

>  <r_i_glide_metal>  (358) 
-0

>  <r_i_glide_rewards>  (358) 
-1.30597

>  <r_i_glide_evdw>  (358) 
-22.2128

>  <r_i_glide_ecoul>  (358) 
-0.775935

>  <r_i_glide_erotb>  (358) 
0

>  <r_i_glide_esite>  (358) 
0

>  <r_i_glide_emodel>  (358) 
-26.9336

>  <r_i_glide_energy>  (358) 
-22.9888

>  <r_i_glide_einternal>  (358) 
0

>  <r_i_glide_intrahb_reward>  (358) 
-0

>  <i_i_glide_confnum>  (358) 
1

>  <i_i_glide_posenum>  (358) 
36

>  <r_i_glide_eff_state_penalty>  (358) 
0

>  <ligand_id>  (358) 
104

>  <original_smiles>  (358) 
CC1=C2CCC13C1=CC(=O)C=CC1(C)CC1C(C)CC2CCC13

>  <smiles>  (358) 
[H]C1=C([H])C2(C([H])([H])[H])C(=C([H])C1=O)C13C(C([H])([H])[H])=C(C([H])([H])C1([H])[H])C1([H])C([H])([H])C([H])([H])C3([H])C([H])(C2([H])[H])C([H])(C([H])([H])[H])C1([H])[H]

$$$$
104:0:1
     RDKit          3D

 51 55  0  0  1  0  0  0  0  0999 V2000
    6.3498   -5.5068    1.6811 C   0  0  0  0  0  0  0  0  0  0  0  0
    5.8273   -4.5202    0.6506 C   0  0  0  0  0  0  0  0  0  0  0  0
    5.1324   -4.9763   -0.4172 C   0  0  0  0  0  0  0  0  0  0  0  0
    3.7550   -5.2184    0.0936 C   0  0  0  0  0  0  0  0  0  0  0  0
    3.5674   -3.9535    0.9182 C   0  0  0  0  0  0  0  0  0  0  0  0
    5.0125   -3.3196    1.1204 C   0  0  1  0  0  0  0  0  0  0  0  0
    4.8765   -2.7056    2.5364 C   0  0  0  0  0  0  0  0  0  0  0  0
    5.0548   -3.3659    3.6882 C   0  0  0  0  0  0  0  0  0  0  0  0
    4.4759   -2.8197    4.9314 C   0  0  0  0  0  0  0  0  0  0  0  0
    4.8977   -3.1679    6.0255 O   0  0  0  0  0  0  0  0  0  0  0  0
    3.3725   -1.8511    4.8033 C   0  0  0  0  0  0  0  0  0  0  0  0
    3.2364   -1.1679    3.6514 C   0  0  0  0  0  0  0  0  0  0  0  0
    4.2405   -1.2711    2.5049 C   0  0  1  0  0  0  0  0  0  0  0  0
    5.2855   -0.1895    2.8622 C   0  0  0  0  0  0  0  0  0  0  0  0
    3.5702   -0.9221    1.1168 C   0  0  0  0  0  0  0  0  0  0  0  0
    4.4605   -1.2003   -0.1535 C   0  0  2  0  0  0  0  0  0  0  0  0
    3.7360   -1.6552   -1.4737 C   0  0  1  0  0  0  0  0  0  0  0  0
    4.0391   -0.6964   -2.6486 C   0  0  0  0  0  0  0  0  0  0  0  0
    3.7842   -3.1560   -1.9643 C   0  0  0  0  0  0  0  0  0  0  0  0
    5.0326   -4.0940   -1.7134 C   0  0  1  0  0  0  0  0  0  0  0  0
    6.2813   -3.2606   -2.0112 C   0  0  0  0  0  0  0  0  0  0  0  0
    6.6558   -2.3921   -0.8300 C   0  0  0  0  0  0  0  0  0  0  0  0
    5.5598   -2.1589    0.2323 C   0  0  2  0  0  0  0  0  0  0  0  0
    7.1629   -5.0794    2.2732 H   0  0  0  0  0  0  0  0  0  0  0  0
    6.7441   -6.3879    1.1764 H   0  0  0  0  0  0  0  0  0  0  0  0
    5.5635   -5.8767    2.3414 H   0  0  0  0  0  0  0  0  0  0  0  0
    2.9903   -5.4079   -0.6494 H   0  0  0  0  0  0  0  0  0  0  0  0
    3.7835   -6.1022    0.7411 H   0  0  0  0  0  0  0  0  0  0  0  0
    2.8399   -3.3263    0.4269 H   0  0  0  0  0  0  0  0  0  0  0  0
    3.1063   -4.2425    1.8641 H   0  0  0  0  0  0  0  0  0  0  0  0
    5.4622   -4.3597    3.7631 H   0  0  0  0  0  0  0  0  0  0  0  0
    2.6899   -1.7428    5.6365 H   0  0  0  0  0  0  0  0  0  0  0  0
    2.4220   -0.4727    3.5163 H   0  0  0  0  0  0  0  0  0  0  0  0
    5.8782   -0.4334    3.7443 H   0  0  0  0  0  0  0  0  0  0  0  0
    4.7720    0.7399    3.1057 H   0  0  0  0  0  0  0  0  0  0  0  0
    5.9748    0.0525    2.0576 H   0  0  0  0  0  0  0  0  0  0  0  0
    2.5948   -1.3964    1.0336 H   0  0  0  0  0  0  0  0  0  0  0  0
    3.3078    0.1333    1.1060 H   0  0  0  0  0  0  0  0  0  0  0  0
    4.9629   -0.2591   -0.3739 H   0  0  0  0  0  0  0  0  0  0  0  0
    2.6779   -1.4840   -1.2985 H   0  0  0  0  0  0  0  0  0  0  0  0
    5.0724   -0.7503   -2.9691 H   0  0  0  0  0  0  0  0  0  0  0  0
    3.8757    0.3256   -2.3665 H   0  0  0  0  0  0  0  0  0  0  0  0
    3.3863   -0.8705   -3.5047 H   0  0  0  0  0  0  0  0  0  0  0  0
    2.8316   -3.6386   -1.7424 H   0  0  0  0  0  0  0  0  0  0  0  0
    3.7065   -3.0997   -3.0481 H   0  0  0  0  0  0  0  0  0  0  0  0
    4.9734   -4.8395   -2.5053 H   0  0  0  0  0  0  0  0  0  0  0  0
    7.1725   -3.8274   -2.2529 H   0  0  0  0  0  0  0  0  0  0  0  0
    6.1201   -2.6749   -2.9183 H   0  0  0  0  0  0  0  0  0  0  0  0
    7.5481   -2.8205   -0.3654 H   0  0  0  0  0  0  0  0  0  0  0  0
    6.9700   -1.4526   -1.2314 H   0  0  0  0  0  0  0  0  0  0  0  0
    6.2194   -1.6172    0.8978 H   0  0  0  0  0  0  0  0  0  0  0  0
  1  2  1  0
  1 24  1  0
  1 25  1  0
  1 26  1  0
  2  6  1  0
  2  3  2  0
  3 20  1  0
  3  4  1  0
  4  5  1  0
  4 27  1  0
  4 28  1  0
  6  5  1  6
  5 29  1  0
  5 30  1  0
  6 23  1  0
  6  7  1  0
  7 13  1  0
  7  8  2  0
  8  9  1  0
  8 31  1  0
  9 10  2  0
  9 11  1  0
 11 12  2  0
 11 32  1  0
 12 13  1  0
 12 33  1  0
 13 14  1  1
 13 15  1  0
 14 34  1  0
 14 35  1  0
 14 36  1  0
 15 16  1  0
 15 37  1  0
 15 38  1  0
 16 23  1  0
 16 17  1  0
 16 39  1  6
 17 18  1  0
 17 19  1  0
 17 40  1  1
 18 41  1  0
 18 42  1  0
 18 43  1  0
 19 20  1  0
 19 44  1  0
 19 45  1  0
 20 21  1  0
 20 46  1  6
 21 22  1  0
 21 47  1  0
 21 48  1  0
 22 23  1  0
 22 49  1  0
 22 50  1  0
 23 51  1  1
M  END
>  <i_m_ct_stereo_status>  (359) 
1

>  <s_m_source_file>  (359) 
/var/tmp/pbs.5076255.sched01/tmpulc5pjk6/123bob0etdf.sdf

>  <i_m_source_file_index>  (359) 
35

>  <i_lp_mmshare_version>  (359) 
48012

>  <i_f3d_flags>  (359) 
0

>  <s_epik_input>  (359) 
W0NIM11DMT1DKFtDSDJdW0NIMl0yKVtDQEBIXShbQ0gyXVtDQEBIXTNbQ0gzXSlbQ0gyXVtDSDJdW0NASF00W0NAQEhdM1tDSDJdW0NAQF0oQz01W0NAQF0xMjQpKFtDSDNdKVtDSF09W0NIXUMoPU8pW0NIXTU=

>  <s_epik_cmdline>  (359) 
J2VwaWtfcHl0aG9uJywgJy1waHQnLCAnMi4wJywgJy1waCcsICc3LjAnLCAnLXRuJywgJzgnLCAnLW1hJywgJzIwMCcsICctaW1hZScsICc8aW5maWxlLm1hZT4nLCAnLW9tYWUnLCAnPG91dGZpbGUubWFlPic=

>  <r_lp_tautomer_probability>  (359) 
1

>  <r_epik_Ionization_Penalty>  (359) 
0

>  <r_epik_Ionization_Penalty_Charging>  (359) 
0

>  <r_epik_Ionization_Penalty_Neutral>  (359) 
0

>  <r_epik_State_Penalty>  (359) 
-0

>  <r_epik_Charging_Adjusted_Penalty>  (359) 
0

>  <i_epik_Tot_Q>  (359) 
0

>  <i_epik_Tot_abs_Q>  (359) 
0

>  <s_lp_Force_Field>  (359) 
OPLS3e

>  <r_lp_Energy>  (359) 
160.568

>  <b_lp_Chiralities_Consistent>  (359) 
1

>  <s_lp_Variant>  (359) 
104:0-1

>  <s_i_glide_gridfile>  (359) 
pfpi4k_grid

>  <i_i_glide_lignum>  (359) 
35

>  <i_i_glide_rotatable_bonds>  (359) 
0

>  <r_i_docking_score>  (359) 
-3.04996

>  <r_i_glide_ligand_efficiency>  (359) 
-0.132607

>  <r_i_glide_ligand_efficiency_sa>  (359) 
-0.377117

>  <r_i_glide_ligand_efficiency_ln>  (359) 
-0.737508

>  <r_i_glide_gscore>  (359) 
-3.04996

>  <r_i_glide_lipo>  (359) 
-0.690973

>  <r_i_glide_hbond>  (359) 
0

>  <r_i_glide_metal>  (359) 
-0

>  <r_i_glide_rewards>  (359) 
-1.32189

>  <r_i_glide_evdw>  (359) 
-19.1515

>  <r_i_glide_ecoul>  (359) 
-0.530152

>  <r_i_glide_erotb>  (359) 
0

>  <r_i_glide_esite>  (359) 
0

>  <r_i_glide_emodel>  (359) 
-23.34

>  <r_i_glide_energy>  (359) 
-19.6817

>  <r_i_glide_einternal>  (359) 
0

>  <r_i_glide_intrahb_reward>  (359) 
-0

>  <i_i_glide_confnum>  (359) 
1

>  <i_i_glide_posenum>  (359) 
13

>  <r_i_glide_eff_state_penalty>  (359) 
0

>  <ligand_id>  (359) 
104

>  <original_smiles>  (359) 
CC1=C2CCC13C1=CC(=O)C=CC1(C)CC1C(C)CC2CCC13

>  <smiles>  (359) 
[H]C1=C([H])C2(C([H])([H])[H])C(=C([H])C1=O)C13C(C([H])([H])[H])=C(C([H])([H])C1([H])[H])C1([H])C([H])([H])C([H])([H])C3([H])C([H])(C2([H])[H])C([H])(C([H])([H])[H])C1([H])[H]

$$$$
104:0:2
     RDKit          3D

 51 55  0  0  1  0  0  0  0  0999 V2000
    6.5015   -5.8189    4.0850 C   0  0  0  0  0  0  0  0  0  0  0  0
    5.9398   -5.0393    2.9029 C   0  0  0  0  0  0  0  0  0  0  0  0
    6.7362   -4.7109    1.8730 C   0  0  0  0  0  0  0  0  0  0  0  0
    6.8285   -5.9546    1.0525 C   0  0  0  0  0  0  0  0  0  0  0  0
    5.3497   -6.3466    1.0713 C   0  0  0  0  0  0  0  0  0  0  0  0
    4.6499   -5.5257    2.2397 C   0  0  1  0  0  0  0  0  0  0  0  0
    3.5818   -6.5194    2.7540 C   0  0  0  0  0  0  0  0  0  0  0  0
    3.8116   -7.5071    3.6599 C   0  0  0  0  0  0  0  0  0  0  0  0
    2.8957   -8.6533    3.7143 C   0  0  0  0  0  0  0  0  0  0  0  0
    2.8548   -9.3749    4.7094 O   0  0  0  0  0  0  0  0  0  0  0  0
    2.0481   -8.9123    2.5435 C   0  0  0  0  0  0  0  0  0  0  0  0
    1.7868   -7.8984    1.6866 C   0  0  0  0  0  0  0  0  0  0  0  0
    2.2519   -6.4655    1.9334 C   0  0  1  0  0  0  0  0  0  0  0  0
    1.0836   -5.8474    2.7528 C   0  0  0  0  0  0  0  0  0  0  0  0
    2.4093   -5.6571    0.5798 C   0  0  0  0  0  0  0  0  0  0  0  0
    3.1061   -4.2507    0.7031 C   0  0  2  0  0  0  0  0  0  0  0  0
    3.9757   -3.7688   -0.5115 C   0  0  1  0  0  0  0  0  0  0  0  0
    3.4322   -2.4442   -1.0785 C   0  0  0  0  0  0  0  0  0  0  0  0
    5.5576   -3.7501   -0.4206 C   0  0  0  0  0  0  0  0  0  0  0  0
    6.3691   -3.5202    0.9248 C   0  0  1  0  0  0  0  0  0  0  0  0
    5.7178   -2.3593    1.6779 C   0  0  0  0  0  0  0  0  0  0  0  0
    4.4452   -2.7943    2.3975 C   0  0  0  0  0  0  0  0  0  0  0  0
    3.8660   -4.1906    2.0019 C   0  0  2  0  0  0  0  0  0  0  0  0
    5.8946   -5.6953    4.9825 H   0  0  0  0  0  0  0  0  0  0  0  0
    7.5040   -5.4471    4.3231 H   0  0  0  0  0  0  0  0  0  0  0  0
    6.6400   -6.8852    3.8696 H   0  0  0  0  0  0  0  0  0  0  0  0
    7.3025   -5.8259    0.0860 H   0  0  0  0  0  0  0  0  0  0  0  0
    7.4243   -6.6787    1.5967 H   0  0  0  0  0  0  0  0  0  0  0  0
    4.9370   -6.2119    0.0840 H   0  0  0  0  0  0  0  0  0  0  0  0
    5.3024   -7.4235    1.2477 H   0  0  0  0  0  0  0  0  0  0  0  0
    4.7210   -7.6076    4.2189 H   0  0  0  0  0  0  0  0  0  0  0  0
    1.6743   -9.9206    2.3808 H   0  0  0  0  0  0  0  0  0  0  0  0
    1.1858   -8.0868    0.8176 H   0  0  0  0  0  0  0  0  0  0  0  0
    1.0163   -6.2836    3.7503 H   0  0  0  0  0  0  0  0  0  0  0  0
    0.1287   -6.0509    2.2682 H   0  0  0  0  0  0  0  0  0  0  0  0
    1.1320   -4.7673    2.8777 H   0  0  0  0  0  0  0  0  0  0  0  0
    2.9300   -6.2561   -0.1639 H   0  0  0  0  0  0  0  0  0  0  0  0
    1.4372   -5.5277    0.1181 H   0  0  0  0  0  0  0  0  0  0  0  0
    2.2865   -3.5341    0.8099 H   0  0  0  0  0  0  0  0  0  0  0  0
    3.7800   -4.4670   -1.3196 H   0  0  0  0  0  0  0  0  0  0  0  0
    3.5527   -1.6171   -0.3799 H   0  0  0  0  0  0  0  0  0  0  0  0
    2.3711   -2.5397   -1.3031 H   0  0  0  0  0  0  0  0  0  0  0  0
    3.9142   -2.1670   -2.0154 H   0  0  0  0  0  0  0  0  0  0  0  0
    5.9382   -4.5992   -0.9780 H   0  0  0  0  0  0  0  0  0  0  0  0
    5.8742   -2.9375   -1.0757 H   0  0  0  0  0  0  0  0  0  0  0  0
    7.3355   -3.1608    0.5881 H   0  0  0  0  0  0  0  0  0  0  0  0
    6.4168   -1.9356    2.3981 H   0  0  0  0  0  0  0  0  0  0  0  0
    5.4900   -1.5468    0.9850 H   0  0  0  0  0  0  0  0  0  0  0  0
    4.6511   -2.7855    3.4692 H   0  0  0  0  0  0  0  0  0  0  0  0
    3.6793   -2.0296    2.2631 H   0  0  0  0  0  0  0  0  0  0  0  0
    3.1205   -4.1907    2.7803 H   0  0  0  0  0  0  0  0  0  0  0  0
  1  2  1  0
  1 24  1  0
  1 25  1  0
  1 26  1  0
  2  6  1  0
  2  3  2  0
  3 20  1  0
  3  4  1  0
  4  5  1  0
  4 27  1  0
  4 28  1  0
  6  5  1  6
  5 29  1  0
  5 30  1  0
  6 23  1  0
  6  7  1  0
  7 13  1  0
  7  8  2  0
  8  9  1  0
  8 31  1  0
  9 10  2  0
  9 11  1  0
 11 12  2  0
 11 32  1  0
 12 13  1  0
 12 33  1  0
 13 14  1  1
 13 15  1  0
 14 34  1  0
 14 35  1  0
 14 36  1  0
 15 16  1  0
 15 37  1  0
 15 38  1  0
 16 23  1  0
 16 17  1  0
 16 39  1  1
 17 18  1  0
 17 19  1  0
 17 40  1  6
 18 41  1  0
 18 42  1  0
 18 43  1  0
 19 20  1  0
 19 44  1  0
 19 45  1  0
 20 21  1  0
 20 46  1  6
 21 22  1  0
 21 47  1  0
 21 48  1  0
 22 23  1  0
 22 49  1  0
 22 50  1  0
 23 51  1  1
M  END
>  <i_m_ct_stereo_status>  (360) 
1

>  <s_m_source_file>  (360) 
/var/tmp/pbs.5076255.sched01/tmpulc5pjk6/123bob0etdf.sdf

>  <i_m_source_file_index>  (360) 
35

>  <i_lp_mmshare_version>  (360) 
48012

>  <i_f3d_flags>  (360) 
0

>  <s_epik_input>  (360) 
W0NIM11DMT1DKFtDSDJdW0NIMl0yKVtDQEBIXShbQ0gyXVtDQEBIXTNbQ0gzXSlbQ0gyXVtDSDJdW0NASF00W0NAQEhdM1tDSDJdW0NAQF0oQz01W0NAQF0xMjQpKFtDSDNdKVtDSF09W0NIXUMoPU8pW0NIXTU=

>  <s_epik_cmdline>  (360) 
J2VwaWtfcHl0aG9uJywgJy1waHQnLCAnMi4wJywgJy1waCcsICc3LjAnLCAnLXRuJywgJzgnLCAnLW1hJywgJzIwMCcsICctaW1hZScsICc8aW5maWxlLm1hZT4nLCAnLW9tYWUnLCAnPG91dGZpbGUubWFlPic=

>  <r_lp_tautomer_probability>  (360) 
1

>  <r_epik_Ionization_Penalty>  (360) 
0

>  <r_epik_Ionization_Penalty_Charging>  (360) 
0

>  <r_epik_Ionization_Penalty_Neutral>  (360) 
0

>  <r_epik_State_Penalty>  (360) 
-0

>  <r_epik_Charging_Adjusted_Penalty>  (360) 
0

>  <i_epik_Tot_Q>  (360) 
0

>  <i_epik_Tot_abs_Q>  (360) 
0

>  <s_lp_Force_Field>  (360) 
OPLS3e

>  <r_lp_Energy>  (360) 
160.568

>  <b_lp_Chiralities_Consistent>  (360) 
1

>  <s_lp_Variant>  (360) 
104:0-1

>  <s_i_glide_gridfile>  (360) 
pfpi4k_grid

>  <i_i_glide_lignum>  (360) 
35

>  <i_i_glide_rotatable_bonds>  (360) 
0

>  <r_i_docking_score>  (360) 
-2.81401

>  <r_i_glide_ligand_efficiency>  (360) 
-0.122348

>  <r_i_glide_ligand_efficiency_sa>  (360) 
-0.347942

>  <r_i_glide_ligand_efficiency_ln>  (360) 
-0.680454

>  <r_i_glide_gscore>  (360) 
-2.81401

>  <r_i_glide_lipo>  (360) 
-0.507698

>  <r_i_glide_hbond>  (360) 
0

>  <r_i_glide_metal>  (360) 
-0

>  <r_i_glide_rewards>  (360) 
-1.30597

>  <r_i_glide_evdw>  (360) 
-19.7267

>  <r_i_glide_ecoul>  (360) 
-0.0703529

>  <r_i_glide_erotb>  (360) 
0

>  <r_i_glide_esite>  (360) 
-0.00345377

>  <r_i_glide_emodel>  (360) 
-23.3635

>  <r_i_glide_energy>  (360) 
-19.797

>  <r_i_glide_einternal>  (360) 
0

>  <r_i_glide_intrahb_reward>  (360) 
-0

>  <i_i_glide_confnum>  (360) 
1

>  <i_i_glide_posenum>  (360) 
2

>  <r_i_glide_eff_state_penalty>  (360) 
0

>  <ligand_id>  (360) 
104

>  <original_smiles>  (360) 
CC1=C2CCC13C1=CC(=O)C=CC1(C)CC1C(C)CC2CCC13

>  <smiles>  (360) 
[H]C1=C([H])C2(C([H])([H])[H])C(=C([H])C1=O)C13C(C([H])([H])[H])=C(C([H])([H])C1([H])[H])C1([H])C([H])([H])C([H])([H])C3([H])C([H])(C2([H])[H])C([H])(C([H])([H])[H])C1([H])[H]

$$$$
105:0:0
     RDKit          3D

 88 95  0  0  1  0  0  0  0  0999 V2000
    3.2115    0.1322    1.5891 C   0  0  0  0  0  0  0  0  0  0  0  0
    3.5203   -1.1708    1.7000 C   0  0  0  0  0  0  0  0  0  0  0  0
    4.5854   -1.7612    2.5629 C   0  0  2  0  0  0  0  0  0  0  0  0
    5.6607   -2.5304    1.7531 C   0  0  0  0  0  0  0  0  0  0  0  0
    5.5681   -3.0147    0.4776 C   0  0  0  0  0  0  0  0  0  0  0  0
    5.4700   -4.5171    0.4287 C   0  0  0  0  0  0  0  0  0  0  0  0
    3.9340   -4.5718    0.6061 C   0  0  2  0  0  0  0  0  0  0  0  0
    3.1838   -5.8911    0.4782 C   0  0  0  0  0  0  0  0  0  0  0  0
    2.5320   -6.3369    1.8310 C   0  0  0  0  0  0  0  0  0  0  0  0
    3.4450   -6.9208    3.0113 C   0  0  2  0  0  0  0  0  0  0  0  0
    4.6668   -7.2772    2.3903 O   0  0  0  0  0  0  0  0  0  0  0  0
    2.7169   -8.2476    3.4702 C   0  0  2  0  0  0  0  0  0  0  0  0
    1.5316   -7.9496    4.3728 C   0  0  0  0  0  0  0  0  0  0  0  0
    1.3089   -6.7640    4.9716 C   0  0  0  0  0  0  0  0  0  0  0  0
    0.0954   -6.5266    5.8460 C   0  0  0  0  0  0  0  0  0  0  0  0
    2.2598   -5.5807    4.8290 C   0  0  0  0  0  0  0  0  0  0  0  0
    3.6809   -5.9818    4.3164 C   0  0  2  0  0  0  0  0  0  0  0  0
    4.6078   -4.7098    4.0632 C   0  0  1  0  0  0  0  0  0  0  0  0
    3.9899   -3.4899    4.3835 O   0  0  0  0  0  0  0  0  0  0  0  0
    3.5446   -2.6184    3.3729 C   0  0  2  0  0  0  0  0  0  0  0  0
    2.5462   -3.0832    2.4937 O   0  0  0  0  0  0  0  0  0  0  0  0
    2.6702   -2.3411    1.2738 C   0  0  2  0  0  0  0  0  0  0  0  0
    3.2960   -3.2104    0.1004 C   0  0  1  0  0  0  0  0  0  0  0  0
    4.5510   -2.5710   -0.5775 C   0  0  0  0  0  0  0  0  0  0  0  0
    4.6207   -1.0560   -0.9172 C   0  0  0  0  0  0  0  0  0  0  0  0
    4.7595   -3.2283   -1.9832 C   0  0  0  0  0  0  0  0  0  0  0  0
    5.7167   -4.8205    4.8999 O   0  0  0  0  0  0  0  0  0  0  0  0
    5.3888   -5.4971    6.0931 C   0  0  0  0  0  0  0  0  0  0  0  0
    6.7280   -5.9092    6.7580 C   0  0  0  0  0  0  0  0  0  0  0  0
    4.6953   -4.5511    7.1079 C   0  0  0  0  0  0  0  0  0  0  0  0
    4.4537   -6.6184    5.5429 C   0  0  2  0  0  0  0  0  0  0  0  0
    5.1683   -7.9572    5.2299 C   0  0  0  0  0  0  0  0  0  0  0  0
    6.3311   -8.0251    4.8334 O   0  0  0  0  0  0  0  0  0  0  0  0
    4.3392   -9.2357    5.3199 C   0  0  1  0  0  0  0  0  0  0  0  0
    3.4242   -9.1895    6.4139 O   0  0  0  0  0  0  0  0  0  0  0  0
    3.7981   -9.5057    7.6799 C   0  0  0  0  0  0  0  0  0  0  0  0
    4.9314   -9.8791    7.9865 O   0  0  0  0  0  0  0  0  0  0  0  0
    2.6835   -9.3222    8.6611 C   0  0  0  0  0  0  0  0  0  0  0  0
    1.4234   -8.8348    8.2444 C   0  0  0  0  0  0  0  0  0  0  0  0
    0.3747   -8.6495    9.1610 C   0  0  0  0  0  0  0  0  0  0  0  0
    0.5668   -8.9587   10.5187 C   0  0  0  0  0  0  0  0  0  0  0  0
    1.8114   -9.4542   10.9522 C   0  0  0  0  0  0  0  0  0  0  0  0
    2.8659   -9.6320   10.0289 C   0  0  0  0  0  0  0  0  0  0  0  0
    3.5689   -9.4337    4.0031 C   0  0  0  0  0  0  0  0  0  0  0  0
    2.3400    0.4431    1.0332 H   0  0  0  0  0  0  0  0  0  0  0  0
    3.8223    0.8991    2.0398 H   0  0  0  0  0  0  0  0  0  0  0  0
    5.0559   -1.0198    3.2074 H   0  0  0  0  0  0  0  0  0  0  0  0
    6.2785   -3.0997    2.4259 H   0  0  0  0  0  0  0  0  0  0  0  0
    5.8167   -4.9458   -0.5110 H   0  0  0  0  0  0  0  0  0  0  0  0
    6.0322   -5.0280    1.2117 H   0  0  0  0  0  0  0  0  0  0  0  0
    3.9054   -4.5119    1.6544 H   0  0  0  0  0  0  0  0  0  0  0  0
    2.4052   -5.7667   -0.2677 H   0  0  0  0  0  0  0  0  0  0  0  0
    3.8299   -6.6658    0.0703 H   0  0  0  0  0  0  0  0  0  0  0  0
    1.8848   -5.5373    2.1764 H   0  0  0  0  0  0  0  0  0  0  0  0
    1.8061   -7.0790    1.5036 H   0  0  0  0  0  0  0  0  0  0  0  0
    4.4943   -7.9282    1.7269 H   0  0  0  0  0  0  0  0  0  0  0  0
    2.2618   -8.7142    2.5974 H   0  0  0  0  0  0  0  0  0  0  0  0
    0.8393   -8.7674    4.5180 H   0  0  0  0  0  0  0  0  0  0  0  0
   -0.4850   -5.6778    5.4857 H   0  0  0  0  0  0  0  0  0  0  0  0
    0.3970   -6.3262    6.8753 H   0  0  0  0  0  0  0  0  0  0  0  0
   -0.5498   -7.4053    5.8493 H   0  0  0  0  0  0  0  0  0  0  0  0
    1.7796   -4.8567    4.1754 H   0  0  0  0  0  0  0  0  0  0  0  0
    2.3084   -5.0988    5.7980 H   0  0  0  0  0  0  0  0  0  0  0  0
    5.1303   -4.7310    3.1265 H   0  0  0  0  0  0  0  0  0  0  0  0
    2.9878   -1.9070    3.9880 H   0  0  0  0  0  0  0  0  0  0  0  0
    1.6911   -1.9759    0.9856 H   0  0  0  0  0  0  0  0  0  0  0  0
    2.5263   -3.3956   -0.6474 H   0  0  0  0  0  0  0  0  0  0  0  0
    3.6236   -0.6574   -1.0981 H   0  0  0  0  0  0  0  0  0  0  0  0
    5.2104   -0.8558   -1.8123 H   0  0  0  0  0  0  0  0  0  0  0  0
    5.1099   -0.4683   -0.1448 H   0  0  0  0  0  0  0  0  0  0  0  0
    4.1403   -2.7420   -2.7412 H   0  0  0  0  0  0  0  0  0  0  0  0
    4.4723   -4.2791   -2.0252 H   0  0  0  0  0  0  0  0  0  0  0  0
    5.7995   -3.1576   -2.3114 H   0  0  0  0  0  0  0  0  0  0  0  0
    6.5824   -6.6653    7.5303 H   0  0  0  0  0  0  0  0  0  0  0  0
    7.2128   -5.0563    7.2329 H   0  0  0  0  0  0  0  0  0  0  0  0
    7.4600   -6.2797    6.0414 H   0  0  0  0  0  0  0  0  0  0  0  0
    4.3717   -5.0996    7.9935 H   0  0  0  0  0  0  0  0  0  0  0  0
    3.8292   -4.0254    6.7206 H   0  0  0  0  0  0  0  0  0  0  0  0
    5.3755   -3.7683    7.4445 H   0  0  0  0  0  0  0  0  0  0  0  0
    3.7423   -6.8443    6.3355 H   0  0  0  0  0  0  0  0  0  0  0  0
    5.0107  -10.0861    5.4498 H   0  0  0  0  0  0  0  0  0  0  0  0
    1.2375   -8.6014    7.2097 H   0  0  0  0  0  0  0  0  0  0  0  0
   -0.5758   -8.2782    8.8074 H   0  0  0  0  0  0  0  0  0  0  0  0
   -0.2418   -8.8269   11.2259 H   0  0  0  0  0  0  0  0  0  0  0  0
    1.9559   -9.6988   11.9944 H   0  0  0  0  0  0  0  0  0  0  0  0
    3.8150  -10.0137   10.3780 H   0  0  0  0  0  0  0  0  0  0  0  0
    2.9188  -10.3030    4.1198 H   0  0  0  0  0  0  0  0  0  0  0  0
    4.2765   -9.7321    3.2275 H   0  0  0  0  0  0  0  0  0  0  0  0
  1  2  2  0
  1 45  1  0
  1 46  1  0
  2 22  1  0
  2  3  1  0
  3 20  1  0
  3  4  1  0
  3 47  1  1
  4  5  2  0
  4 48  1  0
  5 24  1  0
  5  6  1  0
  6  7  1  0
  6 49  1  0
  6 50  1  0
  7 23  1  0
  7  8  1  0
  7 51  1  1
  8  9  1  0
  8 52  1  0
  8 53  1  0
  9 10  1  0
  9 54  1  0
  9 55  1  0
 10 17  1  0
 10 11  1  6
 10 12  1  0
 11 56  1  0
 12 44  1  0
 12 13  1  0
 12 57  1  6
 13 14  2  0
 13 58  1  0
 14 15  1  0
 14 16  1  0
 15 59  1  0
 15 60  1  0
 15 61  1  0
 17 16  1  1
 16 62  1  0
 16 63  1  0
 17 31  1  0
 17 18  1  0
 18 19  1  0
 18 27  1  0
 18 64  1  6
 19 20  1  0
 20 21  1  0
 20 65  1  1
 21 22  1  0
 22 23  1  0
 22 66  1  6
 23 24  1  0
 23 67  1  6
 24 25  1  0
 24 26  1  0
 25 68  1  0
 25 69  1  0
 25 70  1  0
 26 71  1  0
 26 72  1  0
 26 73  1  0
 27 28  1  0
 28 29  1  0
 28 30  1  0
 28 31  1  0
 29 74  1  0
 29 75  1  0
 29 76  1  0
 30 77  1  0
 30 78  1  0
 30 79  1  0
 31 32  1  0
 31 80  1  1
 32 33  2  0
 32 34  1  0
 34 35  1  0
 34 44  1  0
 34 81  1  1
 35 36  1  0
 36 37  2  0
 36 38  1  0
 38 43  1  0
 38 39  2  0
 39 40  1  0
 39 82  1  0
 40 41  2  0
 40 83  1  0
 41 42  1  0
 41 84  1  0
 42 43  2  0
 42 85  1  0
 43 86  1  0
 44 87  1  0
 44 88  1  0
M  END
>  <i_m_ct_stereo_status>  (361) 
1

>  <s_m_source_file>  (361) 
/var/tmp/pbs.5076255.sched01/tmpulc5pjk6/123bob0etdf.sdf

>  <i_m_source_file_index>  (361) 
36

>  <i_lp_mmshare_version>  (361) 
48012

>  <i_f3d_flags>  (361) 
0

>  <s_epik_input>  (361) 
W0NIM11DMShbQ0gzXSlDKD1bQ0hdMilbQ0gyXVtDQEhdKFtDSDJdW0NIMl0zKVtDQEhdMVtDQEBIXShPNClDKD1bQ0gyXSlbQ0BIXTJbQ0BASF00T1tDQEhdNU9DKFtDSDNdKShbQ0gzXSlbQ0BASF02Qyg9TylbQ0BIXShbQ0gyXVtDQEhdKFtDQEBdMyhbQ0BdNTY3KVtPSF0pW0NIXT1DKFtDSDNdKVtDSDJdNylPQyg9TyljOFtjSF1bY0hdW2NIXVtjSF1bY0hdOA==

>  <s_epik_cmdline>  (361) 
J2VwaWtfcHl0aG9uJywgJy1waHQnLCAnMi4wJywgJy1waCcsICc3LjAnLCAnLXRuJywgJzgnLCAnLW1hJywgJzIwMCcsICctaW1hZScsICc8aW5maWxlLm1hZT4nLCAnLW9tYWUnLCAnPG91dGZpbGUubWFlPic=

>  <r_lp_tautomer_probability>  (361) 
1

>  <r_epik_Ionization_Penalty>  (361) 
3.12539e-08

>  <r_epik_Ionization_Penalty_Charging>  (361) 
0

>  <r_epik_Ionization_Penalty_Neutral>  (361) 
3.12539e-08

>  <r_epik_State_Penalty>  (361) 
-0

>  <r_epik_Charging_Adjusted_Penalty>  (361) 
0

>  <i_epik_Tot_Q>  (361) 
0

>  <i_epik_Tot_abs_Q>  (361) 
0

>  <s_epik_Chemistry_Notes>  (361) 
This compound has an ester and may undergo hydrolysis at high or low pH. This compound contains an acetal/aminal-like group ( X-CH(R)-Y where X, Y are N, S, or O) that may be acid/base labile, releasing an aldehyde.

>  <s_lp_Force_Field>  (361) 
OPLS3e

>  <r_lp_Energy>  (361) 
144.865

>  <b_lp_Chiralities_Consistent>  (361) 
1

>  <s_lp_Variant>  (361) 
105:0-1

>  <s_i_glide_gridfile>  (361) 
pfpi4k_grid

>  <i_i_glide_lignum>  (361) 
36

>  <i_i_glide_rotatable_bonds>  (361) 
4

>  <r_i_docking_score>  (361) 
-2.00952

>  <r_i_glide_ligand_efficiency>  (361) 
-0.0456709

>  <r_i_glide_ligand_efficiency_sa>  (361) 
-0.161234

>  <r_i_glide_ligand_efficiency_ln>  (361) 
-0.420033

>  <r_i_glide_gscore>  (361) 
-2.00952

>  <r_i_glide_lipo>  (361) 
-0.33098

>  <r_i_glide_hbond>  (361) 
0

>  <r_i_glide_metal>  (361) 
-0

>  <r_i_glide_rewards>  (361) 
-0.00195771

>  <r_i_glide_evdw>  (361) 
-32.4789

>  <r_i_glide_ecoul>  (361) 
-0.55461

>  <r_i_glide_erotb>  (361) 
0.0573372

>  <r_i_glide_esite>  (361) 
-0.026784

>  <r_i_glide_emodel>  (361) 
-36.6927

>  <r_i_glide_energy>  (361) 
-33.0335

>  <r_i_glide_einternal>  (361) 
0.758606

>  <r_i_glide_intrahb_reward>  (361) 
-0

>  <i_i_glide_confnum>  (361) 
3

>  <i_i_glide_posenum>  (361) 
18

>  <r_i_glide_eff_state_penalty>  (361) 
0

>  <ligand_id>  (361) 
105

>  <original_smiles>  (361) 
C=C1C2C=C3CC4CCC5(O)C6C=C(C)CC57C(OC2OC1C4C3(C)C)OC(C)(C)C7C(=O)C(OC(=O)c1ccccc1)C6

>  <smiles>  (361) 
[H]OC12C([H])([H])C([H])([H])C3([H])C([H])([H])C4=C([H])C5([H])C(=C([H])[H])C([H])(OC5([H])OC5([H])OC(C([H])([H])[H])(C([H])([H])[H])C6([H])C(=O)C([H])(OC(=O)c7c([H])c([H])c([H])c([H])c7[H])C([H])([H])C1([H])C([H])=C(C([H])([H])[H])C([H])([H])C562)C3([H])C4(C([H])([H])[H])C([H])([H])[H]

$$$$
105:0:1
     RDKit          3D

 88 95  0  0  1  0  0  0  0  0999 V2000
    4.1853  -12.5514    5.3010 C   0  0  0  0  0  0  0  0  0  0  0  0
    4.5451  -11.3118    4.8927 C   0  0  0  0  0  0  0  0  0  0  0  0
    4.1303  -10.6673    3.6179 C   0  0  2  0  0  0  0  0  0  0  0  0
    5.3523  -10.2855    2.7335 C   0  0  0  0  0  0  0  0  0  0  0  0
    6.6753  -10.1690    3.1003 C   0  0  0  0  0  0  0  0  0  0  0  0
    7.1254   -8.7373    3.1141 C   0  0  0  0  0  0  0  0  0  0  0  0
    6.6593   -8.4292    4.5559 C   0  0  2  0  0  0  0  0  0  0  0  0
    7.0133   -7.1053    5.2264 C   0  0  0  0  0  0  0  0  0  0  0  0
    5.7371   -6.2343    5.4878 C   0  0  0  0  0  0  0  0  0  0  0  0
    5.0109   -5.4708    4.2745 C   0  0  2  0  0  0  0  0  0  0  0  0
    5.9617   -5.4510    3.2262 O   0  0  0  0  0  0  0  0  0  0  0  0
    4.8110   -3.9889    4.7862 C   0  0  2  0  0  0  0  0  0  0  0  0
    3.6253   -3.8658    5.7288 C   0  0  0  0  0  0  0  0  0  0  0  0
    2.6709   -4.8004    5.8742 C   0  0  0  0  0  0  0  0  0  0  0  0
    1.5204   -4.6239    6.8478 C   0  0  0  0  0  0  0  0  0  0  0  0
    2.6586   -6.0935    5.0647 C   0  0  0  0  0  0  0  0  0  0  0  0
    3.5591   -6.0397    3.7958 C   0  0  2  0  0  0  0  0  0  0  0  0
    3.6282   -7.4474    3.0393 C   0  0  1  0  0  0  0  0  0  0  0  0
    2.8233   -8.4355    3.6311 O   0  0  0  0  0  0  0  0  0  0  0  0
    3.4118   -9.4820    4.3672 C   0  0  2  0  0  0  0  0  0  0  0  0
    4.1517   -9.1483    5.5232 O   0  0  0  0  0  0  0  0  0  0  0  0
    5.0848  -10.2119    5.7595 C   0  0  2  0  0  0  0  0  0  0  0  0
    6.5768   -9.7842    5.3888 C   0  0  1  0  0  0  0  0  0  0  0  0
    7.2729  -10.7451    4.3805 C   0  0  0  0  0  0  0  0  0  0  0  0
    7.1701  -12.2907    4.4904 C   0  0  0  0  0  0  0  0  0  0  0  0
    8.8276  -10.5281    4.4913 C   0  0  0  0  0  0  0  0  0  0  0  0
    3.1263   -7.2413    1.7515 O   0  0  0  0  0  0  0  0  0  0  0  0
    2.1449   -6.2331    1.7402 C   0  0  0  0  0  0  0  0  0  0  0  0
    1.9378   -5.8156    0.2651 C   0  0  0  0  0  0  0  0  0  0  0  0
    0.7695   -6.7769    2.2102 C   0  0  0  0  0  0  0  0  0  0  0  0
    2.7730   -5.1877    2.7202 C   0  0  2  0  0  0  0  0  0  0  0  0
    3.6163   -4.0993    2.0261 C   0  0  0  0  0  0  0  0  0  0  0  0
    4.3241   -4.3296    1.0442 O   0  0  0  0  0  0  0  0  0  0  0  0
    3.7359   -2.7431    2.7115 C   0  0  1  0  0  0  0  0  0  0  0  0
    2.4857   -2.3829    3.3001 O   0  0  0  0  0  0  0  0  0  0  0  0
    2.0324   -1.1103    3.2132 C   0  0  0  0  0  0  0  0  0  0  0  0
    2.6284   -0.2068    2.6303 O   0  0  0  0  0  0  0  0  0  0  0  0
    0.7295   -0.9234    3.9061 C   0  0  0  0  0  0  0  0  0  0  0  0
   -0.0001    0.2822    3.7318 C   0  0  0  0  0  0  0  0  0  0  0  0
   -1.2468    0.4675    4.3710 C   0  0  0  0  0  0  0  0  0  0  0  0
   -1.7790   -0.5447    5.1986 C   0  0  0  0  0  0  0  0  0  0  0  0
   -1.0552   -1.7425    5.3932 C   0  0  0  0  0  0  0  0  0  0  0  0
    0.1857   -1.9279    4.7447 C   0  0  0  0  0  0  0  0  0  0  0  0
    4.8557   -2.8210    3.7621 C   0  0  0  0  0  0  0  0  0  0  0  0
    4.4020  -12.8917    6.3021 H   0  0  0  0  0  0  0  0  0  0  0  0
    3.6690  -13.2332    4.6425 H   0  0  0  0  0  0  0  0  0  0  0  0
    3.4242  -11.2583    3.0496 H   0  0  0  0  0  0  0  0  0  0  0  0
    5.0297   -9.6682    1.9059 H   0  0  0  0  0  0  0  0  0  0  0  0
    8.2119   -8.6418    2.9716 H   0  0  0  0  0  0  0  0  0  0  0  0
    6.6785   -8.1155    2.3448 H   0  0  0  0  0  0  0  0  0  0  0  0
    5.6608   -8.1963    4.3309 H   0  0  0  0  0  0  0  0  0  0  0  0
    7.5010   -7.3269    6.1771 H   0  0  0  0  0  0  0  0  0  0  0  0
    7.7637   -6.5618    4.6509 H   0  0  0  0  0  0  0  0  0  0  0  0
    5.0417   -6.8169    6.0787 H   0  0  0  0  0  0  0  0  0  0  0  0
    6.0980   -5.5196    6.2269 H   0  0  0  0  0  0  0  0  0  0  0  0
    5.5823   -5.0750    2.4562 H   0  0  0  0  0  0  0  0  0  0  0  0
    5.6686   -3.7280    5.4095 H   0  0  0  0  0  0  0  0  0  0  0  0
    3.5911   -2.9571    6.3108 H   0  0  0  0  0  0  0  0  0  0  0  0
    1.4884   -5.4534    7.5545 H   0  0  0  0  0  0  0  0  0  0  0  0
    0.5673   -4.5946    6.3223 H   0  0  0  0  0  0  0  0  0  0  0  0
    1.6254   -3.6953    7.4118 H   0  0  0  0  0  0  0  0  0  0  0  0
    2.9490   -6.8993    5.7361 H   0  0  0  0  0  0  0  0  0  0  0  0
    1.6261   -6.2954    4.8083 H   0  0  0  0  0  0  0  0  0  0  0  0
    4.6136   -7.7584    2.7693 H   0  0  0  0  0  0  0  0  0  0  0  0
    2.5066   -9.9272    4.8045 H   0  0  0  0  0  0  0  0  0  0  0  0
    5.0353  -10.5116    6.8003 H   0  0  0  0  0  0  0  0  0  0  0  0
    7.1562   -9.7089    6.3032 H   0  0  0  0  0  0  0  0  0  0  0  0
    7.0010  -12.5965    5.5225 H   0  0  0  0  0  0  0  0  0  0  0  0
    8.0708  -12.8020    4.1495 H   0  0  0  0  0  0  0  0  0  0  0  0
    6.3868  -12.7044    3.8596 H   0  0  0  0  0  0  0  0  0  0  0  0
    9.2510  -11.1209    5.3073 H   0  0  0  0  0  0  0  0  0  0  0  0
    9.1232   -9.4994    4.7054 H   0  0  0  0  0  0  0  0  0  0  0  0
    9.3372  -10.8381    3.5781 H   0  0  0  0  0  0  0  0  0  0  0  0
    1.4322   -4.8675    0.1414 H   0  0  0  0  0  0  0  0  0  0  0  0
    1.3346   -6.5600   -0.2582 H   0  0  0  0  0  0  0  0  0  0  0  0
    2.8775   -5.7783   -0.2926 H   0  0  0  0  0  0  0  0  0  0  0  0
    0.0434   -5.9718    2.2753 H   0  0  0  0  0  0  0  0  0  0  0  0
    0.7850   -7.2729    3.1766 H   0  0  0  0  0  0  0  0  0  0  0  0
    0.3773   -7.5225    1.5156 H   0  0  0  0  0  0  0  0  0  0  0  0
    1.9437   -4.6710    3.1927 H   0  0  0  0  0  0  0  0  0  0  0  0
    4.0304   -2.0274    1.9462 H   0  0  0  0  0  0  0  0  0  0  0  0
    0.3853    1.0607    3.0963 H   0  0  0  0  0  0  0  0  0  0  0  0
   -1.8044    1.3756    4.2089 H   0  0  0  0  0  0  0  0  0  0  0  0
   -2.7363   -0.3990    5.6630 H   0  0  0  0  0  0  0  0  0  0  0  0
   -1.4558   -2.5233    6.0159 H   0  0  0  0  0  0  0  0  0  0  0  0
    0.7164   -2.8481    4.8937 H   0  0  0  0  0  0  0  0  0  0  0  0
    4.8795   -1.8763    4.3107 H   0  0  0  0  0  0  0  0  0  0  0  0
    5.8089   -2.8500    3.2379 H   0  0  0  0  0  0  0  0  0  0  0  0
  1  2  2  0
  1 45  1  0
  1 46  1  0
  2 22  1  0
  2  3  1  0
  3 20  1  0
  3  4  1  0
  3 47  1  6
  4  5  2  0
  4 48  1  0
  5 24  1  0
  5  6  1  0
  6  7  1  0
  6 49  1  0
  6 50  1  0
  7 23  1  0
  7  8  1  0
  7 51  1  6
  8  9  1  0
  8 52  1  0
  8 53  1  0
  9 10  1  0
  9 54  1  0
  9 55  1  0
 10 17  1  0
 10 11  1  6
 10 12  1  0
 11 56  1  0
 12 44  1  0
 12 13  1  0
 12 57  1  1
 13 14  2  0
 13 58  1  0
 14 15  1  0
 14 16  1  0
 15 59  1  0
 15 60  1  0
 15 61  1  0
 17 16  1  1
 16 62  1  0
 16 63  1  0
 17 31  1  0
 17 18  1  0
 18 19  1  0
 18 27  1  0
 18 64  1  6
 19 20  1  0
 20 21  1  0
 20 65  1  1
 21 22  1  0
 22 23  1  0
 22 66  1  1
 23 24  1  0
 23 67  1  1
 24 25  1  0
 24 26  1  0
 25 68  1  0
 25 69  1  0
 25 70  1  0
 26 71  1  0
 26 72  1  0
 26 73  1  0
 27 28  1  0
 28 29  1  0
 28 30  1  0
 28 31  1  0
 29 74  1  0
 29 75  1  0
 29 76  1  0
 30 77  1  0
 30 78  1  0
 30 79  1  0
 31 32  1  0
 31 80  1  1
 32 33  2  0
 32 34  1  0
 34 35  1  0
 34 44  1  0
 34 81  1  6
 35 36  1  0
 36 37  2  0
 36 38  1  0
 38 43  1  0
 38 39  2  0
 39 40  1  0
 39 82  1  0
 40 41  2  0
 40 83  1  0
 41 42  1  0
 41 84  1  0
 42 43  2  0
 42 85  1  0
 43 86  1  0
 44 87  1  0
 44 88  1  0
M  END
>  <i_m_ct_stereo_status>  (362) 
1

>  <s_m_source_file>  (362) 
/var/tmp/pbs.5076255.sched01/tmpulc5pjk6/123bob0etdf.sdf

>  <i_m_source_file_index>  (362) 
36

>  <i_lp_mmshare_version>  (362) 
48012

>  <i_f3d_flags>  (362) 
0

>  <s_epik_input>  (362) 
W0NIM11DMShbQ0gzXSlDKD1bQ0hdMilbQ0gyXVtDQEhdKFtDSDJdW0NIMl0zKVtDQEhdMVtDQEBIXShPNClDKD1bQ0gyXSlbQ0BIXTJbQ0BASF00T1tDQEhdNU9DKFtDSDNdKShbQ0gzXSlbQ0BASF02Qyg9TylbQ0BIXShbQ0gyXVtDQEhdKFtDQEBdMyhbQ0BdNTY3KVtPSF0pW0NIXT1DKFtDSDNdKVtDSDJdNylPQyg9TyljOFtjSF1bY0hdW2NIXVtjSF1bY0hdOA==

>  <s_epik_cmdline>  (362) 
J2VwaWtfcHl0aG9uJywgJy1waHQnLCAnMi4wJywgJy1waCcsICc3LjAnLCAnLXRuJywgJzgnLCAnLW1hJywgJzIwMCcsICctaW1hZScsICc8aW5maWxlLm1hZT4nLCAnLW9tYWUnLCAnPG91dGZpbGUubWFlPic=

>  <r_lp_tautomer_probability>  (362) 
1

>  <r_epik_Ionization_Penalty>  (362) 
3.12539e-08

>  <r_epik_Ionization_Penalty_Charging>  (362) 
0

>  <r_epik_Ionization_Penalty_Neutral>  (362) 
3.12539e-08

>  <r_epik_State_Penalty>  (362) 
-0

>  <r_epik_Charging_Adjusted_Penalty>  (362) 
0

>  <i_epik_Tot_Q>  (362) 
0

>  <i_epik_Tot_abs_Q>  (362) 
0

>  <s_epik_Chemistry_Notes>  (362) 
This compound has an ester and may undergo hydrolysis at high or low pH. This compound contains an acetal/aminal-like group ( X-CH(R)-Y where X, Y are N, S, or O) that may be acid/base labile, releasing an aldehyde.

>  <s_lp_Force_Field>  (362) 
OPLS3e

>  <r_lp_Energy>  (362) 
144.865

>  <b_lp_Chiralities_Consistent>  (362) 
1

>  <s_lp_Variant>  (362) 
105:0-1

>  <s_i_glide_gridfile>  (362) 
pfpi4k_grid

>  <i_i_glide_lignum>  (362) 
36

>  <i_i_glide_rotatable_bonds>  (362) 
4

>  <r_i_docking_score>  (362) 
-1.49987

>  <r_i_glide_ligand_efficiency>  (362) 
-0.0340879

>  <r_i_glide_ligand_efficiency_sa>  (362) 
-0.120342

>  <r_i_glide_ligand_efficiency_ln>  (362) 
-0.313505

>  <r_i_glide_gscore>  (362) 
-1.49987

>  <r_i_glide_lipo>  (362) 
-0.139648

>  <r_i_glide_hbond>  (362) 
0

>  <r_i_glide_metal>  (362) 
-0

>  <r_i_glide_rewards>  (362) 
-0.00409774

>  <r_i_glide_evdw>  (362) 
-31.093

>  <r_i_glide_ecoul>  (362) 
1.00786

>  <r_i_glide_erotb>  (362) 
0.0573372

>  <r_i_glide_esite>  (362) 
-0.0099871

>  <r_i_glide_emodel>  (362) 
-32.7461

>  <r_i_glide_energy>  (362) 
-30.0852

>  <r_i_glide_einternal>  (362) 
0.465477

>  <r_i_glide_intrahb_reward>  (362) 
-0

>  <i_i_glide_confnum>  (362) 
1

>  <i_i_glide_posenum>  (362) 
2

>  <r_i_glide_eff_state_penalty>  (362) 
0

>  <ligand_id>  (362) 
105

>  <original_smiles>  (362) 
C=C1C2C=C3CC4CCC5(O)C6C=C(C)CC57C(OC2OC1C4C3(C)C)OC(C)(C)C7C(=O)C(OC(=O)c1ccccc1)C6

>  <smiles>  (362) 
[H]OC12C([H])([H])C([H])([H])C3([H])C([H])([H])C4=C([H])C5([H])C(=C([H])[H])C([H])(OC5([H])OC5([H])OC(C([H])([H])[H])(C([H])([H])[H])C6([H])C(=O)C([H])(OC(=O)c7c([H])c([H])c([H])c([H])c7[H])C([H])([H])C1([H])C([H])=C(C([H])([H])[H])C([H])([H])C562)C3([H])C4(C([H])([H])[H])C([H])([H])[H]

$$$$
105:0:2
     RDKit          3D

 88 95  0  0  1  0  0  0  0  0999 V2000
    2.4790   -5.4686    0.5342 C   0  0  0  0  0  0  0  0  0  0  0  0
    2.6671   -5.8281    1.8138 C   0  0  0  0  0  0  0  0  0  0  0  0
    3.6837   -6.8032    2.3169 C   0  0  2  0  0  0  0  0  0  0  0  0
    3.0548   -8.0201    3.0449 C   0  0  0  0  0  0  0  0  0  0  0  0
    1.7983   -8.1189    3.5721 C   0  0  0  0  0  0  0  0  0  0  0  0
    1.7919   -8.1161    5.0781 C   0  0  0  0  0  0  0  0  0  0  0  0
    1.7621   -6.5740    5.2246 C   0  0  2  0  0  0  0  0  0  0  0  0
    1.5823   -5.9235    6.5945 C   0  0  0  0  0  0  0  0  0  0  0  0
    2.8600   -5.1249    7.0253 C   0  0  0  0  0  0  0  0  0  0  0  0
    4.1787   -5.8969    7.5139 C   0  0  2  0  0  0  0  0  0  0  0  0
    3.7421   -7.2090    7.8163 O   0  0  0  0  0  0  0  0  0  0  0  0
    4.5890   -5.1877    8.8666 C   0  0  2  0  0  0  0  0  0  0  0  0
    5.3230   -3.8800    8.6133 C   0  0  0  0  0  0  0  0  0  0  0  0
    5.8429   -3.5118    7.4262 C   0  0  0  0  0  0  0  0  0  0  0  0
    6.5378   -2.1768    7.2347 C   0  0  0  0  0  0  0  0  0  0  0  0
    5.7770   -4.4067    6.1931 C   0  0  0  0  0  0  0  0  0  0  0  0
    5.4697   -5.9025    6.5253 C   0  0  2  0  0  0  0  0  0  0  0  0
    5.2912   -6.7849    5.2086 C   0  0  1  0  0  0  0  0  0  0  0  0
    5.4788   -6.0632    4.0182 O   0  0  0  0  0  0  0  0  0  0  0  0
    4.3838   -5.7118    3.2068 C   0  0  2  0  0  0  0  0  0  0  0  0
    3.3984   -4.8665    3.7567 O   0  0  0  0  0  0  0  0  0  0  0  0
    2.1776   -5.1061    3.0478 C   0  0  2  0  0  0  0  0  0  0  0  0
    1.1315   -5.9310    3.9168 C   0  0  1  0  0  0  0  0  0  0  0  0
    0.5996   -7.2267    3.2248 C   0  0  0  0  0  0  0  0  0  0  0  0
    0.2129   -7.2585    1.7179 C   0  0  0  0  0  0  0  0  0  0  0  0
   -0.7395   -7.6554    3.9148 C   0  0  0  0  0  0  0  0  0  0  0  0
    6.2708   -7.7753    5.2304 O   0  0  0  0  0  0  0  0  0  0  0  0
    7.4365   -7.3283    5.8865 C   0  0  0  0  0  0  0  0  0  0  0  0
    8.2841   -8.5906    6.1940 C   0  0  0  0  0  0  0  0  0  0  0  0
    8.3129   -6.4583    4.9476 C   0  0  0  0  0  0  0  0  0  0  0  0
    6.8144   -6.5336    7.0805 C   0  0  2  0  0  0  0  0  0  0  0  0
    6.6519   -7.3464    8.3897 C   0  0  0  0  0  0  0  0  0  0  0  0
    6.4239   -8.5555    8.4037 O   0  0  0  0  0  0  0  0  0  0  0  0
    6.6688   -6.5909    9.7153 C   0  0  1  0  0  0  0  0  0  0  0  0
    7.6387   -5.5450    9.6832 O   0  0  0  0  0  0  0  0  0  0  0  0
    8.2230   -5.0856   10.8181 C   0  0  0  0  0  0  0  0  0  0  0  0
    8.0360   -5.5758   11.9315 O   0  0  0  0  0  0  0  0  0  0  0  0
    9.1084   -3.9069   10.5640 C   0  0  0  0  0  0  0  0  0  0  0  0
    9.1253   -3.2771    9.2983 C   0  0  0  0  0  0  0  0  0  0  0  0
    9.9304   -2.1511    9.0577 C   0  0  0  0  0  0  0  0  0  0  0  0
   10.7594   -1.6484   10.0738 C   0  0  0  0  0  0  0  0  0  0  0  0
   10.7660   -2.2705   11.3362 C   0  0  0  0  0  0  0  0  0  0  0  0
    9.9361   -3.3871   11.5845 C   0  0  0  0  0  0  0  0  0  0  0  0
    5.2625   -6.0268    9.9884 C   0  0  0  0  0  0  0  0  0  0  0  0
    1.8248   -4.6521    0.2750 H   0  0  0  0  0  0  0  0  0  0  0  0
    2.9817   -5.9811   -0.2740 H   0  0  0  0  0  0  0  0  0  0  0  0
    4.3529   -7.1416    1.5278 H   0  0  0  0  0  0  0  0  0  0  0  0
    3.8241   -8.5904    3.5438 H   0  0  0  0  0  0  0  0  0  0  0  0
    0.9270   -8.6226    5.5085 H   0  0  0  0  0  0  0  0  0  0  0  0
    2.6638   -8.5943    5.5267 H   0  0  0  0  0  0  0  0  0  0  0  0
    2.7959   -6.4024    5.1338 H   0  0  0  0  0  0  0  0  0  0  0  0
    0.7345   -5.2411    6.5386 H   0  0  0  0  0  0  0  0  0  0  0  0
    1.2921   -6.6614    7.3432 H   0  0  0  0  0  0  0  0  0  0  0  0
    3.0865   -4.3973    6.2525 H   0  0  0  0  0  0  0  0  0  0  0  0
    2.4784   -4.4822    7.8153 H   0  0  0  0  0  0  0  0  0  0  0  0
    3.0229   -7.1609    8.4254 H   0  0  0  0  0  0  0  0  0  0  0  0
    3.6825   -4.8765    9.3825 H   0  0  0  0  0  0  0  0  0  0  0  0
    5.4075   -3.2197    9.4634 H   0  0  0  0  0  0  0  0  0  0  0  0
    6.0612   -1.6061    6.4378 H   0  0  0  0  0  0  0  0  0  0  0  0
    7.5826   -2.3192    6.9592 H   0  0  0  0  0  0  0  0  0  0  0  0
    6.5091   -1.5842    8.1503 H   0  0  0  0  0  0  0  0  0  0  0  0
    5.0376   -3.9801    5.5189 H   0  0  0  0  0  0  0  0  0  0  0  0
    6.7253   -4.3013    5.6800 H   0  0  0  0  0  0  0  0  0  0  0  0
    4.4321   -7.4278    5.2242 H   0  0  0  0  0  0  0  0  0  0  0  0
    4.8941   -5.0415    2.5090 H   0  0  0  0  0  0  0  0  0  0  0  0
    1.7434   -4.1541    2.7524 H   0  0  0  0  0  0  0  0  0  0  0  0
    0.2990   -5.2776    4.1756 H   0  0  0  0  0  0  0  0  0  0  0  0
   -0.1135   -6.2800    1.3741 H   0  0  0  0  0  0  0  0  0  0  0  0
   -0.5991   -7.9591    1.5134 H   0  0  0  0  0  0  0  0  0  0  0  0
    1.0178   -7.6174    1.0813 H   0  0  0  0  0  0  0  0  0  0  0  0
   -1.5948   -7.1271    3.4878 H   0  0  0  0  0  0  0  0  0  0  0  0
   -0.7767   -7.4383    4.9833 H   0  0  0  0  0  0  0  0  0  0  0  0
   -0.9252   -8.7256    3.7916 H   0  0  0  0  0  0  0  0  0  0  0  0
    9.0617   -8.3878    6.9305 H   0  0  0  0  0  0  0  0  0  0  0  0
    8.7828   -8.9600    5.2975 H   0  0  0  0  0  0  0  0  0  0  0  0
    7.6834   -9.4305    6.5423 H   0  0  0  0  0  0  0  0  0  0  0  0
    9.1701   -6.0492    5.4829 H   0  0  0  0  0  0  0  0  0  0  0  0
    7.7945   -5.6253    4.4860 H   0  0  0  0  0  0  0  0  0  0  0  0
    8.7036   -7.0448    4.1151 H   0  0  0  0  0  0  0  0  0  0  0  0
    7.5173   -5.7375    7.3212 H   0  0  0  0  0  0  0  0  0  0  0  0
    6.9297   -7.3089   10.4949 H   0  0  0  0  0  0  0  0  0  0  0  0
    8.5120   -3.6498    8.4958 H   0  0  0  0  0  0  0  0  0  0  0  0
    9.9215   -1.6846    8.0827 H   0  0  0  0  0  0  0  0  0  0  0  0
   11.3895   -0.7886    9.8860 H   0  0  0  0  0  0  0  0  0  0  0  0
   11.3961   -1.8757   12.1197 H   0  0  0  0  0  0  0  0  0  0  0  0
    9.9416   -3.8393   12.5665 H   0  0  0  0  0  0  0  0  0  0  0  0
    5.3083   -5.4164   10.8922 H   0  0  0  0  0  0  0  0  0  0  0  0
    4.6032   -6.8535   10.2592 H   0  0  0  0  0  0  0  0  0  0  0  0
  1  2  2  0
  1 45  1  0
  1 46  1  0
  2 22  1  0
  2  3  1  0
  3 20  1  0
  3  4  1  0
  3 47  1  6
  4  5  2  0
  4 48  1  0
  5 24  1  0
  5  6  1  0
  6  7  1  0
  6 49  1  0
  6 50  1  0
  7 23  1  0
  7  8  1  0
  7 51  1  6
  8  9  1  0
  8 52  1  0
  8 53  1  0
  9 10  1  0
  9 54  1  0
  9 55  1  0
 10 17  1  0
 10 11  1  1
 10 12  1  0
 11 56  1  0
 12 44  1  0
 12 13  1  0
 12 57  1  1
 13 14  2  0
 13 58  1  0
 14 15  1  0
 14 16  1  0
 15 59  1  0
 15 60  1  0
 15 61  1  0
 17 16  1  6
 16 62  1  0
 16 63  1  0
 17 31  1  0
 17 18  1  0
 18 19  1  0
 18 27  1  0
 18 64  1  6
 19 20  1  0
 20 21  1  0
 20 65  1  6
 21 22  1  0
 22 23  1  0
 22 66  1  6
 23 24  1  0
 23 67  1  1
 24 25  1  0
 24 26  1  0
 25 68  1  0
 25 69  1  0
 25 70  1  0
 26 71  1  0
 26 72  1  0
 26 73  1  0
 27 28  1  0
 28 29  1  0
 28 30  1  0
 28 31  1  0
 29 74  1  0
 29 75  1  0
 29 76  1  0
 30 77  1  0
 30 78  1  0
 30 79  1  0
 31 32  1  0
 31 80  1  1
 32 33  2  0
 32 34  1  0
 34 35  1  0
 34 44  1  0
 34 81  1  1
 35 36  1  0
 36 37  2  0
 36 38  1  0
 38 43  1  0
 38 39  2  0
 39 40  1  0
 39 82  1  0
 40 41  2  0
 40 83  1  0
 41 42  1  0
 41 84  1  0
 42 43  2  0
 42 85  1  0
 43 86  1  0
 44 87  1  0
 44 88  1  0
M  END
>  <i_m_ct_stereo_status>  (363) 
1

>  <s_m_source_file>  (363) 
/var/tmp/pbs.5076255.sched01/tmpulc5pjk6/123bob0etdf.sdf

>  <i_m_source_file_index>  (363) 
36

>  <i_lp_mmshare_version>  (363) 
48012

>  <i_f3d_flags>  (363) 
0

>  <s_epik_input>  (363) 
W0NIM11DMShbQ0gzXSlDKD1bQ0hdMilbQ0gyXVtDQEhdKFtDSDJdW0NIMl0zKVtDQEhdMVtDQEBIXShPNClDKD1bQ0gyXSlbQ0BIXTJbQ0BASF00T1tDQEhdNU9DKFtDSDNdKShbQ0gzXSlbQ0BASF02Qyg9TylbQ0BIXShbQ0gyXVtDQEhdKFtDQEBdMyhbQ0BdNTY3KVtPSF0pW0NIXT1DKFtDSDNdKVtDSDJdNylPQyg9TyljOFtjSF1bY0hdW2NIXVtjSF1bY0hdOA==

>  <s_epik_cmdline>  (363) 
J2VwaWtfcHl0aG9uJywgJy1waHQnLCAnMi4wJywgJy1waCcsICc3LjAnLCAnLXRuJywgJzgnLCAnLW1hJywgJzIwMCcsICctaW1hZScsICc8aW5maWxlLm1hZT4nLCAnLW9tYWUnLCAnPG91dGZpbGUubWFlPic=

>  <r_lp_tautomer_probability>  (363) 
1

>  <r_epik_Ionization_Penalty>  (363) 
3.12539e-08

>  <r_epik_Ionization_Penalty_Charging>  (363) 
0

>  <r_epik_Ionization_Penalty_Neutral>  (363) 
3.12539e-08

>  <r_epik_State_Penalty>  (363) 
-0

>  <r_epik_Charging_Adjusted_Penalty>  (363) 
0

>  <i_epik_Tot_Q>  (363) 
0

>  <i_epik_Tot_abs_Q>  (363) 
0

>  <s_epik_Chemistry_Notes>  (363) 
This compound has an ester and may undergo hydrolysis at high or low pH. This compound contains an acetal/aminal-like group ( X-CH(R)-Y where X, Y are N, S, or O) that may be acid/base labile, releasing an aldehyde.

>  <s_lp_Force_Field>  (363) 
OPLS3e

>  <r_lp_Energy>  (363) 
144.865

>  <b_lp_Chiralities_Consistent>  (363) 
1

>  <s_lp_Variant>  (363) 
105:0-1

>  <s_i_glide_gridfile>  (363) 
pfpi4k_grid

>  <i_i_glide_lignum>  (363) 
36

>  <i_i_glide_rotatable_bonds>  (363) 
4

>  <r_i_docking_score>  (363) 
-1.39216

>  <r_i_glide_ligand_efficiency>  (363) 
-0.03164

>  <r_i_glide_ligand_efficiency_sa>  (363) 
-0.1117

>  <r_i_glide_ligand_efficiency_ln>  (363) 
-0.290991

>  <r_i_glide_gscore>  (363) 
-1.39216

>  <r_i_glide_lipo>  (363) 
-0.165376

>  <r_i_glide_hbond>  (363) 
0

>  <r_i_glide_metal>  (363) 
-0

>  <r_i_glide_rewards>  (363) 
0

>  <r_i_glide_evdw>  (363) 
-25.7018

>  <r_i_glide_ecoul>  (363) 
0.00646735

>  <r_i_glide_erotb>  (363) 
0.0573372

>  <r_i_glide_esite>  (363) 
0

>  <r_i_glide_emodel>  (363) 
-28.0819

>  <r_i_glide_energy>  (363) 
-25.6953

>  <r_i_glide_einternal>  (363) 
0.571915

>  <r_i_glide_intrahb_reward>  (363) 
-0

>  <i_i_glide_confnum>  (363) 
3

>  <i_i_glide_posenum>  (363) 
6

>  <r_i_glide_eff_state_penalty>  (363) 
0

>  <ligand_id>  (363) 
105

>  <original_smiles>  (363) 
C=C1C2C=C3CC4CCC5(O)C6C=C(C)CC57C(OC2OC1C4C3(C)C)OC(C)(C)C7C(=O)C(OC(=O)c1ccccc1)C6

>  <smiles>  (363) 
[H]OC12C([H])([H])C([H])([H])C3([H])C([H])([H])C4=C([H])C5([H])C(=C([H])[H])C([H])(OC5([H])OC5([H])OC(C([H])([H])[H])(C([H])([H])[H])C6([H])C(=O)C([H])(OC(=O)c7c([H])c([H])c([H])c([H])c7[H])C([H])([H])C1([H])C([H])=C(C([H])([H])[H])C([H])([H])C562)C3([H])C4(C([H])([H])[H])C([H])([H])[H]

$$$$
106:0:0
     RDKit          3D

 47 54  0  0  1  0  0  0  0  0999 V2000
    0.7902   -6.2968    1.1029 O   0  0  0  0  0  0  0  0  0  0  0  0
    1.6033   -6.4961    2.0123 C   0  0  0  0  0  0  0  0  0  0  0  0
    1.1562   -7.1508    3.3003 C   0  0  0  0  0  0  0  0  0  0  0  0
    0.3385   -8.4214    3.1855 C   0  0  0  0  0  0  0  0  0  0  0  0
   -0.3267   -7.1396    3.6200 C   0  0  0  0  0  0  0  0  0  0  0  0
    2.9236   -6.1992    1.8606 N   0  0  0  0  0  0  0  0  0  0  0  0
    3.5269   -6.1072    0.5053 C   0  0  0  0  0  0  0  0  0  0  0  0
    4.4158   -4.8591    0.2875 C   0  0  2  0  0  0  0  0  0  0  0  0
    5.4264   -4.7585    1.4400 C   0  0  1  0  0  0  0  0  0  0  0  0
    6.3850   -3.6047    1.1085 C   0  0  0  0  0  0  0  0  0  0  0  0
    5.5421   -2.4150    1.6233 C   0  0  1  0  0  0  0  0  0  0  0  0
    5.5253   -1.1526    1.8246 C   0  0  1  0  0  0  0  0  0  0  0  0
    5.6149   -1.2768    0.1434 C   0  0  0  0  0  0  0  0  0  0  0  0
    4.3371   -2.1895   -0.3698 C   0  0  2  0  0  0  0  0  0  0  0  0
    3.5914   -3.5462    0.1657 C   0  0  2  0  0  0  0  0  0  0  0  0
    2.8831   -3.2630    1.5431 C   0  0  1  0  0  0  0  0  0  0  0  0
    3.6644   -3.3655    2.8802 C   0  0  1  0  0  0  0  0  0  0  0  0
    4.6348   -4.6241    2.8100 C   0  0  1  0  0  0  0  0  0  0  0  0
    3.8789   -5.9670    2.9669 C   0  0  0  0  0  0  0  0  0  0  0  0
    4.1186   -1.7456    2.7206 C   0  0  2  0  0  0  0  0  0  0  0  0
    3.0388   -1.8438    1.7201 C   0  0  1  0  0  0  0  0  0  0  0  0
    4.1509   -1.6196    0.9002 C   0  0  1  0  0  0  0  0  0  0  0  0
    1.8232   -7.1495    4.1508 H   0  0  0  0  0  0  0  0  0  0  0  0
    0.1101   -8.8077    2.1935 H   0  0  0  0  0  0  0  0  0  0  0  0
    0.5050   -9.1819    3.9461 H   0  0  0  0  0  0  0  0  0  0  0  0
   -0.5901   -7.0262    4.6688 H   0  0  0  0  0  0  0  0  0  0  0  0
   -1.0119   -6.6715    2.9159 H   0  0  0  0  0  0  0  0  0  0  0  0
    4.1290   -7.0032    0.3571 H   0  0  0  0  0  0  0  0  0  0  0  0
    2.7773   -6.1356   -0.2879 H   0  0  0  0  0  0  0  0  0  0  0  0
    4.9501   -5.0039   -0.6518 H   0  0  0  0  0  0  0  0  0  0  0  0
    6.0205   -5.6732    1.4641 H   0  0  0  0  0  0  0  0  0  0  0  0
    7.3127   -3.7161    1.6745 H   0  0  0  0  0  0  0  0  0  0  0  0
    6.6572   -3.6254    0.0556 H   0  0  0  0  0  0  0  0  0  0  0  0
    5.9830   -2.5585    2.6462 H   0  0  0  0  0  0  0  0  0  0  0  0
    6.3745   -0.7091    2.3604 H   0  0  0  0  0  0  0  0  0  0  0  0
    5.5727   -0.2736   -0.3057 H   0  0  0  0  0  0  0  0  0  0  0  0
    6.5838   -1.5801   -0.2719 H   0  0  0  0  0  0  0  0  0  0  0  0
    3.7219   -1.6766   -1.1094 H   0  0  0  0  0  0  0  0  0  0  0  0
    2.8167   -3.7518   -0.5807 H   0  0  0  0  0  0  0  0  0  0  0  0
    1.8524   -3.5957    1.6289 H   0  0  0  0  0  0  0  0  0  0  0  0
    2.9595   -3.4384    3.7129 H   0  0  0  0  0  0  0  0  0  0  0  0
    5.3509   -4.5654    3.6314 H   0  0  0  0  0  0  0  0  0  0  0  0
    3.4214   -5.9325    3.9513 H   0  0  0  0  0  0  0  0  0  0  0  0
    4.5835   -6.8025    2.9837 H   0  0  0  0  0  0  0  0  0  0  0  0
    3.8314   -1.1465    3.5862 H   0  0  0  0  0  0  0  0  0  0  0  0
    2.1841   -1.1648    1.7175 H   0  0  0  0  0  0  0  0  0  0  0  0
    3.8109   -0.5242    0.7538 H   0  0  0  0  0  0  0  0  0  0  0  0
  1  2  2  0
  2  3  1  0
  2  6  1  0
  3  5  1  0
  3  4  1  0
  3 23  1  0
  4  5  1  0
  4 24  1  0
  4 25  1  0
  5 26  1  0
  5 27  1  0
  6 19  1  0
  6  7  1  0
  7  8  1  0
  7 28  1  0
  7 29  1  0
  8 15  1  0
  8  9  1  0
  8 30  1  6
  9 18  1  0
  9 10  1  0
  9 31  1  1
 10 11  1  0
 10 32  1  0
 10 33  1  0
 11 22  1  0
 11 12  1  0
 11 34  1  1
 12 20  1  0
 12 13  1  0
 12 35  1  1
 13 14  1  0
 13 36  1  0
 13 37  1  0
 14 22  1  0
 14 15  1  0
 14 38  1  6
 15 16  1  0
 15 39  1  6
 16 21  1  0
 16 17  1  0
 16 40  1  1
 17 18  1  0
 17 20  1  0
 17 41  1  1
 18 19  1  0
 18 42  1  1
 19 43  1  0
 19 44  1  0
 20 21  1  0
 20 45  1  1
 21 22  1  0
 21 46  1  1
 22 47  1  6
M  END
>  <i_m_ct_stereo_status>  (364) 
1

>  <s_m_source_file>  (364) 
/var/tmp/pbs.5076255.sched01/tmpulc5pjk6/123bob0etdf.sdf

>  <i_m_source_file_index>  (364) 
37

>  <i_lp_mmshare_version>  (364) 
48012

>  <i_f3d_flags>  (364) 
0

>  <s_epik_input>  (364) 
W0NIMl0xW0NIMl1bQ0hdMUMoPU8pTihbQ0gyXTIpW0NIMl1bQ0BASF0oW0NASF0zW0NAQEhdMjQpW0NAQEhdNVtDQEBIXTZbQ0BIXTRbQ0BIXTdbQ0BASF04W0NIXShbQ0gyXTMpW0NAQEhdKFtDSDJdNylbQ0BIXTVbQ0BIXTY4

>  <s_epik_cmdline>  (364) 
J2VwaWtfcHl0aG9uJywgJy1waHQnLCAnMi4wJywgJy1waCcsICc3LjAnLCAnLXRuJywgJzgnLCAnLW1hJywgJzIwMCcsICctaW1hZScsICc8aW5maWxlLm1hZT4nLCAnLW9tYWUnLCAnPG91dGZpbGUubWFlPic=

>  <r_lp_tautomer_probability>  (364) 
1

>  <r_epik_Ionization_Penalty>  (364) 
1.11629e-06

>  <r_epik_Ionization_Penalty_Charging>  (364) 
0

>  <r_epik_Ionization_Penalty_Neutral>  (364) 
1.11629e-06

>  <r_epik_State_Penalty>  (364) 
-0

>  <r_epik_Charging_Adjusted_Penalty>  (364) 
0

>  <i_epik_Tot_Q>  (364) 
0

>  <i_epik_Tot_abs_Q>  (364) 
0

>  <s_lp_Force_Field>  (364) 
OPLS3e

>  <r_lp_Energy>  (364) 
478.866

>  <b_lp_Chiralities_Consistent>  (364) 
1

>  <s_lp_Variant>  (364) 
106:0-1

>  <s_i_glide_gridfile>  (364) 
pfpi4k_grid

>  <i_i_glide_lignum>  (364) 
37

>  <i_i_glide_rotatable_bonds>  (364) 
2

>  <r_i_docking_score>  (364) 
-3.24256

>  <r_i_glide_ligand_efficiency>  (364) 
-0.147389

>  <r_i_glide_ligand_efficiency_sa>  (364) 
-0.41299

>  <r_i_glide_ligand_efficiency_ln>  (364) 
-0.792599

>  <r_i_glide_gscore>  (364) 
-3.24256

>  <r_i_glide_lipo>  (364) 
-0.411345

>  <r_i_glide_hbond>  (364) 
-0.16

>  <r_i_glide_metal>  (364) 
-0

>  <r_i_glide_rewards>  (364) 
-1.40375

>  <r_i_glide_evdw>  (364) 
-23.7281

>  <r_i_glide_ecoul>  (364) 
-3.09034

>  <r_i_glide_erotb>  (364) 
0.41947

>  <r_i_glide_esite>  (364) 
-0.0369763

>  <r_i_glide_emodel>  (364) 
-30.8245

>  <r_i_glide_energy>  (364) 
-26.8185

>  <r_i_glide_einternal>  (364) 
3.18963

>  <r_i_glide_intrahb_reward>  (364) 
-0

>  <i_i_glide_confnum>  (364) 
2

>  <i_i_glide_posenum>  (364) 
2

>  <r_i_glide_eff_state_penalty>  (364) 
0

>  <ligand_id>  (364) 
106

>  <original_smiles>  (364) 
O=C(C1CC1)N1CC2C3CC4C5CC6C2C2C(C3C1)C5C2C46

>  <smiles>  (364) 
[H]C1([H])N(C(=O)C2([H])C([H])([H])C2([H])[H])C([H])([H])C2([H])C3([H])C([H])([H])C4([H])C5([H])C([H])([H])C6([H])C([H])(C13[H])C1([H])C2([H])C5([H])C1([H])C46[H]

$$$$
106:0:1
     RDKit          3D

 47 54  0  0  1  0  0  0  0  0999 V2000
    0.8329   -5.9233    1.8052 O   0  0  0  0  0  0  0  0  0  0  0  0
    1.8529   -5.9881    2.4964 C   0  0  0  0  0  0  0  0  0  0  0  0
    1.7527   -6.3881    3.9481 C   0  0  0  0  0  0  0  0  0  0  0  0
    0.6162   -7.3101    4.3430 C   0  0  0  0  0  0  0  0  0  0  0  0
    0.5710   -5.8542    4.7367 C   0  0  0  0  0  0  0  0  0  0  0  0
    3.0859   -5.7693    1.9665 N   0  0  0  0  0  0  0  0  0  0  0  0
    3.3054   -5.8619    0.4997 C   0  0  0  0  0  0  0  0  0  0  0  0
    4.1236   -4.6886   -0.0959 C   0  0  2  0  0  0  0  0  0  0  0  0
    5.4080   -4.5054    0.7277 C   0  0  1  0  0  0  0  0  0  0  0  0
    6.2622   -3.4459    0.0123 C   0  0  0  0  0  0  0  0  0  0  0  0
    5.6025   -2.1691    0.5785 C   0  0  1  0  0  0  0  0  0  0  0  0
    5.6586   -0.8936    0.6114 C   0  0  1  0  0  0  0  0  0  0  0  0
    5.2884   -1.2161   -1.0036 C   0  0  0  0  0  0  0  0  0  0  0  0
    3.9055   -2.1187   -1.0380 C   0  0  2  0  0  0  0  0  0  0  0  0
    3.3136   -3.3649   -0.1604 C   0  0  2  0  0  0  0  0  0  0  0  0
    3.0042   -2.8893    1.3096 C   0  0  1  0  0  0  0  0  0  0  0  0
    4.1128   -2.8723    2.3947 C   0  0  1  0  0  0  0  0  0  0  0  0
    5.0107   -4.1758    2.2295 C   0  0  1  0  0  0  0  0  0  0  0  0
    4.3010   -5.4511    2.7482 C   0  0  0  0  0  0  0  0  0  0  0  0
    4.5363   -1.3057    1.9168 C   0  0  2  0  0  0  0  0  0  0  0  0
    3.2254   -1.4682    1.2619 C   0  0  1  0  0  0  0  0  0  0  0  0
    4.0796   -1.3988    0.1545 C   0  0  1  0  0  0  0  0  0  0  0  0
    2.6685   -6.5788    4.4945 H   0  0  0  0  0  0  0  0  0  0  0  0
   -0.0669   -7.6548    3.5697 H   0  0  0  0  0  0  0  0  0  0  0  0
    0.8299   -8.0375    5.1230 H   0  0  0  0  0  0  0  0  0  0  0  0
    0.7549   -5.6002    5.7789 H   0  0  0  0  0  0  0  0  0  0  0  0
   -0.1466   -5.2140    4.2247 H   0  0  0  0  0  0  0  0  0  0  0  0
    3.8363   -6.7959    0.3142 H   0  0  0  0  0  0  0  0  0  0  0  0
    2.3716   -5.9499   -0.0599 H   0  0  0  0  0  0  0  0  0  0  0  0
    4.3890   -4.9671   -1.1172 H   0  0  0  0  0  0  0  0  0  0  0  0
    5.9705   -5.4408    0.7043 H   0  0  0  0  0  0  0  0  0  0  0  0
    7.3053   -3.5321    0.3257 H   0  0  0  0  0  0  0  0  0  0  0  0
    6.2394   -3.6043   -1.0649 H   0  0  0  0  0  0  0  0  0  0  0  0
    6.3019   -2.2112    1.4580 H   0  0  0  0  0  0  0  0  0  0  0  0
    6.6231   -0.4313    0.8437 H   0  0  0  0  0  0  0  0  0  0  0  0
    5.1370   -0.2743   -1.5514 H   0  0  0  0  0  0  0  0  0  0  0  0
    6.0988   -1.6143   -1.6247 H   0  0  0  0  0  0  0  0  0  0  0  0
    3.1224   -1.6658   -1.6469 H   0  0  0  0  0  0  0  0  0  0  0  0
    2.3658   -3.6195   -0.6446 H   0  0  0  0  0  0  0  0  0  0  0  0
    2.0250   -3.1596    1.7001 H   0  0  0  0  0  0  0  0  0  0  0  0
    3.6576   -2.8152    3.3868 H   0  0  0  0  0  0  0  0  0  0  0  0
    5.9216   -4.0564    2.8181 H   0  0  0  0  0  0  0  0  0  0  0  0
    4.1134   -5.2839    3.8051 H   0  0  0  0  0  0  0  0  0  0  0  0
    4.9733   -6.3100    2.6849 H   0  0  0  0  0  0  0  0  0  0  0  0
    4.4994   -0.5971    2.7439 H   0  0  0  0  0  0  0  0  0  0  0  0
    2.4107   -0.7546    1.3954 H   0  0  0  0  0  0  0  0  0  0  0  0
    3.7327   -0.3122   -0.0305 H   0  0  0  0  0  0  0  0  0  0  0  0
  1  2  2  0
  2  3  1  0
  2  6  1  0
  3  5  1  0
  3  4  1  0
  3 23  1  0
  4  5  1  0
  4 24  1  0
  4 25  1  0
  5 26  1  0
  5 27  1  0
  6 19  1  0
  6  7  1  0
  7  8  1  0
  7 28  1  0
  7 29  1  0
  8 15  1  0
  8  9  1  0
  8 30  1  6
  9 18  1  0
  9 10  1  0
  9 31  1  1
 10 11  1  0
 10 32  1  0
 10 33  1  0
 11 22  1  0
 11 12  1  0
 11 34  1  1
 12 20  1  0
 12 13  1  0
 12 35  1  6
 13 14  1  0
 13 36  1  0
 13 37  1  0
 14 22  1  0
 14 15  1  0
 14 38  1  6
 15 16  1  0
 15 39  1  6
 16 21  1  0
 16 17  1  0
 16 40  1  1
 17 18  1  0
 17 20  1  0
 17 41  1  1
 18 19  1  0
 18 42  1  1
 19 43  1  0
 19 44  1  0
 20 21  1  0
 20 45  1  1
 21 22  1  0
 21 46  1  6
 22 47  1  6
M  END
>  <i_m_ct_stereo_status>  (365) 
1

>  <s_m_source_file>  (365) 
/var/tmp/pbs.5076255.sched01/tmpulc5pjk6/123bob0etdf.sdf

>  <i_m_source_file_index>  (365) 
37

>  <i_lp_mmshare_version>  (365) 
48012

>  <i_f3d_flags>  (365) 
0

>  <s_epik_input>  (365) 
W0NIMl0xW0NIMl1bQ0hdMUMoPU8pTihbQ0gyXTIpW0NIMl1bQ0BASF0oW0NASF0zW0NAQEhdMjQpW0NAQEhdNVtDQEBIXTZbQ0BIXTRbQ0BIXTdbQ0BASF04W0NIXShbQ0gyXTMpW0NAQEhdKFtDSDJdNylbQ0BIXTVbQ0BIXTY4

>  <s_epik_cmdline>  (365) 
J2VwaWtfcHl0aG9uJywgJy1waHQnLCAnMi4wJywgJy1waCcsICc3LjAnLCAnLXRuJywgJzgnLCAnLW1hJywgJzIwMCcsICctaW1hZScsICc8aW5maWxlLm1hZT4nLCAnLW9tYWUnLCAnPG91dGZpbGUubWFlPic=

>  <r_lp_tautomer_probability>  (365) 
1

>  <r_epik_Ionization_Penalty>  (365) 
1.11629e-06

>  <r_epik_Ionization_Penalty_Charging>  (365) 
0

>  <r_epik_Ionization_Penalty_Neutral>  (365) 
1.11629e-06

>  <r_epik_State_Penalty>  (365) 
-0

>  <r_epik_Charging_Adjusted_Penalty>  (365) 
0

>  <i_epik_Tot_Q>  (365) 
0

>  <i_epik_Tot_abs_Q>  (365) 
0

>  <s_lp_Force_Field>  (365) 
OPLS3e

>  <r_lp_Energy>  (365) 
478.866

>  <b_lp_Chiralities_Consistent>  (365) 
1

>  <s_lp_Variant>  (365) 
106:0-1

>  <s_i_glide_gridfile>  (365) 
pfpi4k_grid

>  <i_i_glide_lignum>  (365) 
37

>  <i_i_glide_rotatable_bonds>  (365) 
2

>  <r_i_docking_score>  (365) 
-3.18637

>  <r_i_glide_ligand_efficiency>  (365) 
-0.144835

>  <r_i_glide_ligand_efficiency_sa>  (365) 
-0.405833

>  <r_i_glide_ligand_efficiency_ln>  (365) 
-0.778864

>  <r_i_glide_gscore>  (365) 
-3.18637

>  <r_i_glide_lipo>  (365) 
-0.427981

>  <r_i_glide_hbond>  (365) 
-0.13209

>  <r_i_glide_metal>  (365) 
-0

>  <r_i_glide_rewards>  (365) 
-1.40499

>  <r_i_glide_evdw>  (365) 
-22.6354

>  <r_i_glide_ecoul>  (365) 
-3.2456

>  <r_i_glide_erotb>  (365) 
0.41947

>  <r_i_glide_esite>  (365) 
-0.022165

>  <r_i_glide_emodel>  (365) 
-30.0542

>  <r_i_glide_energy>  (365) 
-25.881

>  <r_i_glide_einternal>  (365) 
2.73011

>  <r_i_glide_intrahb_reward>  (365) 
-0

>  <i_i_glide_confnum>  (365) 
1

>  <i_i_glide_posenum>  (365) 
26

>  <r_i_glide_eff_state_penalty>  (365) 
0

>  <ligand_id>  (365) 
106

>  <original_smiles>  (365) 
O=C(C1CC1)N1CC2C3CC4C5CC6C2C2C(C3C1)C5C2C46

>  <smiles>  (365) 
[H]C1([H])N(C(=O)C2([H])C([H])([H])C2([H])[H])C([H])([H])C2([H])C3([H])C([H])([H])C4([H])C5([H])C([H])([H])C6([H])C([H])(C13[H])C1([H])C2([H])C5([H])C1([H])C46[H]

$$$$
106:0:2
     RDKit          3D

 47 54  0  0  1  0  0  0  0  0999 V2000
    0.7958   -6.0630    2.3050 O   0  0  0  0  0  0  0  0  0  0  0  0
    1.8256   -5.6823    2.8702 C   0  0  0  0  0  0  0  0  0  0  0  0
    1.7841   -5.2585    4.3145 C   0  0  0  0  0  0  0  0  0  0  0  0
    1.3087   -6.2667    5.3399 C   0  0  0  0  0  0  0  0  0  0  0  0
    0.4128   -5.1194    4.9546 C   0  0  0  0  0  0  0  0  0  0  0  0
    3.0064   -5.5748    2.2051 N   0  0  0  0  0  0  0  0  0  0  0  0
    3.0494   -5.6945    0.7266 C   0  0  0  0  0  0  0  0  0  0  0  0
    3.9205   -4.6017    0.0499 C   0  0  2  0  0  0  0  0  0  0  0  0
    5.3112   -4.5985    0.7030 C   0  0  1  0  0  0  0  0  0  0  0  0
    6.1948   -3.6360   -0.1099 C   0  0  0  0  0  0  0  0  0  0  0  0
    5.7824   -2.3037    0.5516 C   0  0  1  0  0  0  0  0  0  0  0  0
    6.0108   -1.0484    0.5951 C   0  0  1  0  0  0  0  0  0  0  0  0
    5.3989   -1.2740   -0.9619 C   0  0  0  0  0  0  0  0  0  0  0  0
    3.9172   -1.9939   -0.8267 C   0  0  2  0  0  0  0  0  0  0  0  0
    3.2862   -3.1810    0.1072 C   0  0  2  0  0  0  0  0  0  0  0  0
    3.2309   -2.7073    1.6098 C   0  0  1  0  0  0  0  0  0  0  0  0
    4.4626   -2.8600    2.5420 C   0  0  1  0  0  0  0  0  0  0  0  0
    5.1520   -4.2618    2.2507 C   0  0  1  0  0  0  0  0  0  0  0  0
    4.3400   -5.4465    2.8382 C   0  0  0  0  0  0  0  0  0  0  0  0
    5.0207   -1.3492    2.0292 C   0  0  2  0  0  0  0  0  0  0  0  0
    3.6269   -1.3252    1.5480 C   0  0  1  0  0  0  0  0  0  0  0  0
    4.3318   -1.3321    0.3396 C   0  0  1  0  0  0  0  0  0  0  0  0
    2.5115   -4.5214    4.6360 H   0  0  0  0  0  0  0  0  0  0  0  0
    1.0320   -7.2595    4.9920 H   0  0  0  0  0  0  0  0  0  0  0  0
    1.7658   -6.2314    6.3257 H   0  0  0  0  0  0  0  0  0  0  0  0
    0.2815   -4.3103    5.6698 H   0  0  0  0  0  0  0  0  0  0  0  0
   -0.4716   -5.3625    4.3697 H   0  0  0  0  0  0  0  0  0  0  0  0
    3.4334   -6.6831    0.4769 H   0  0  0  0  0  0  0  0  0  0  0  0
    2.0540   -5.6391    0.2800 H   0  0  0  0  0  0  0  0  0  0  0  0
    4.0229   -4.8688   -1.0020 H   0  0  0  0  0  0  0  0  0  0  0  0
    5.7425   -5.5958    0.5929 H   0  0  0  0  0  0  0  0  0  0  0  0
    7.2504   -3.8608    0.0600 H   0  0  0  0  0  0  0  0  0  0  0  0
    6.0130   -3.7603   -1.1768 H   0  0  0  0  0  0  0  0  0  0  0  0
    6.5782   -2.4603    1.3301 H   0  0  0  0  0  0  0  0  0  0  0  0
    7.0500   -0.7175    0.7080 H   0  0  0  0  0  0  0  0  0  0  0  0
    5.3014   -0.3052   -1.4736 H   0  0  0  0  0  0  0  0  0  0  0  0
    6.0654   -1.7520   -1.6892 H   0  0  0  0  0  0  0  0  0  0  0  0
    3.1269   -1.4290   -1.3235 H   0  0  0  0  0  0  0  0  0  0  0  0
    2.2589   -3.2958   -0.2526 H   0  0  0  0  0  0  0  0  0  0  0  0
    2.2829   -2.8630    2.1219 H   0  0  0  0  0  0  0  0  0  0  0  0
    4.1508   -2.7715    3.5863 H   0  0  0  0  0  0  0  0  0  0  0  0
    6.1413   -4.2811    2.7127 H   0  0  0  0  0  0  0  0  0  0  0  0
    4.3158   -5.3682    3.9225 H   0  0  0  0  0  0  0  0  0  0  0  0
    4.8786   -6.3776    2.6501 H   0  0  0  0  0  0  0  0  0  0  0  0
    5.1829   -0.6690    2.8643 H   0  0  0  0  0  0  0  0  0  0  0  0
    2.9382   -0.5184    1.8021 H   0  0  0  0  0  0  0  0  0  0  0  0
    4.1101   -0.2056    0.2119 H   0  0  0  0  0  0  0  0  0  0  0  0
  1  2  2  0
  2  3  1  0
  2  6  1  0
  3  5  1  0
  3  4  1  0
  3 23  1  0
  4  5  1  0
  4 24  1  0
  4 25  1  0
  5 26  1  0
  5 27  1  0
  6 19  1  0
  6  7  1  0
  7  8  1  0
  7 28  1  0
  7 29  1  0
  8 15  1  0
  8  9  1  0
  8 30  1  6
  9 18  1  0
  9 10  1  0
  9 31  1  1
 10 11  1  0
 10 32  1  0
 10 33  1  0
 11 22  1  0
 11 12  1  0
 11 34  1  1
 12 20  1  0
 12 13  1  0
 12 35  1  6
 13 14  1  0
 13 36  1  0
 13 37  1  0
 14 22  1  0
 14 15  1  0
 14 38  1  6
 15 16  1  0
 15 39  1  6
 16 21  1  0
 16 17  1  0
 16 40  1  1
 17 18  1  0
 17 20  1  0
 17 41  1  1
 18 19  1  0
 18 42  1  1
 19 43  1  0
 19 44  1  0
 20 21  1  0
 20 45  1  1
 21 22  1  0
 21 46  1  1
 22 47  1  6
M  END
>  <i_m_ct_stereo_status>  (366) 
1

>  <s_m_source_file>  (366) 
/var/tmp/pbs.5076255.sched01/tmpulc5pjk6/123bob0etdf.sdf

>  <i_m_source_file_index>  (366) 
37

>  <i_lp_mmshare_version>  (366) 
48012

>  <i_f3d_flags>  (366) 
0

>  <s_epik_input>  (366) 
W0NIMl0xW0NIMl1bQ0hdMUMoPU8pTihbQ0gyXTIpW0NIMl1bQ0BASF0oW0NASF0zW0NAQEhdMjQpW0NAQEhdNVtDQEBIXTZbQ0BIXTRbQ0BIXTdbQ0BASF04W0NIXShbQ0gyXTMpW0NAQEhdKFtDSDJdNylbQ0BIXTVbQ0BIXTY4

>  <s_epik_cmdline>  (366) 
J2VwaWtfcHl0aG9uJywgJy1waHQnLCAnMi4wJywgJy1waCcsICc3LjAnLCAnLXRuJywgJzgnLCAnLW1hJywgJzIwMCcsICctaW1hZScsICc8aW5maWxlLm1hZT4nLCAnLW9tYWUnLCAnPG91dGZpbGUubWFlPic=

>  <r_lp_tautomer_probability>  (366) 
1

>  <r_epik_Ionization_Penalty>  (366) 
1.11629e-06

>  <r_epik_Ionization_Penalty_Charging>  (366) 
0

>  <r_epik_Ionization_Penalty_Neutral>  (366) 
1.11629e-06

>  <r_epik_State_Penalty>  (366) 
-0

>  <r_epik_Charging_Adjusted_Penalty>  (366) 
0

>  <i_epik_Tot_Q>  (366) 
0

>  <i_epik_Tot_abs_Q>  (366) 
0

>  <s_lp_Force_Field>  (366) 
OPLS3e

>  <r_lp_Energy>  (366) 
478.866

>  <b_lp_Chiralities_Consistent>  (366) 
1

>  <s_lp_Variant>  (366) 
106:0-1

>  <s_i_glide_gridfile>  (366) 
pfpi4k_grid

>  <i_i_glide_lignum>  (366) 
37

>  <i_i_glide_rotatable_bonds>  (366) 
2

>  <r_i_docking_score>  (366) 
-2.94574

>  <r_i_glide_ligand_efficiency>  (366) 
-0.133897

>  <r_i_glide_ligand_efficiency_sa>  (366) 
-0.375186

>  <r_i_glide_ligand_efficiency_ln>  (366) 
-0.720047

>  <r_i_glide_gscore>  (366) 
-2.94574

>  <r_i_glide_lipo>  (366) 
-0.45821

>  <r_i_glide_hbond>  (366) 
-0.0463261

>  <r_i_glide_metal>  (366) 
-0

>  <r_i_glide_rewards>  (366) 
-1.39487

>  <r_i_glide_evdw>  (366) 
-22.8683

>  <r_i_glide_ecoul>  (366) 
-2.0209

>  <r_i_glide_erotb>  (366) 
0.41947

>  <r_i_glide_esite>  (366) 
-0.0192542

>  <r_i_glide_emodel>  (366) 
-29.8043

>  <r_i_glide_energy>  (366) 
-24.8892

>  <r_i_glide_einternal>  (366) 
0.537776

>  <r_i_glide_intrahb_reward>  (366) 
-0

>  <i_i_glide_confnum>  (366) 
1

>  <i_i_glide_posenum>  (366) 
9

>  <r_i_glide_eff_state_penalty>  (366) 
0

>  <ligand_id>  (366) 
106

>  <original_smiles>  (366) 
O=C(C1CC1)N1CC2C3CC4C5CC6C2C2C(C3C1)C5C2C46

>  <smiles>  (366) 
[H]C1([H])N(C(=O)C2([H])C([H])([H])C2([H])[H])C([H])([H])C2([H])C3([H])C([H])([H])C4([H])C5([H])C([H])([H])C6([H])C([H])(C13[H])C1([H])C2([H])C5([H])C1([H])C46[H]

$$$$
107:0:0
     RDKit          3D

 15 15  0  0  1  0  0  0  0  0999 V2000
   -1.6088    0.9056    4.0605 C   0  0  0  0  0  0  0  0  0  0  0  0
   -0.8988    1.6788    5.1787 C   0  0  2  0  0  0  0  0  0  0  0  0
   -1.7490    1.6578    6.4706 C   0  0  0  0  0  0  0  0  0  0  0  0
   -2.1673    0.5488    6.8748 O   0  0  0  0  0  0  0  0  0  0  0  0
   -1.9702    2.7370    7.0588 O   0  0  0  0  0  0  0  0  0  0  0  0
   -0.4963    3.0042    4.7101 N   0  0  0  0  0  0  0  0  0  0  0  0
    0.7955    3.3278    4.4799 N   0  0  0  0  0  0  0  0  0  0  0  0
    0.6408    4.5565    4.0179 C   0  0  0  0  0  0  0  0  0  0  0  0
   -0.6552    4.9828    3.9993 N   0  0  0  0  0  0  0  0  0  0  0  0
   -1.3735    3.9861    4.3966 N   0  0  0  0  0  0  0  0  0  0  0  0
   -1.8108   -0.1272    4.3419 H   0  0  0  0  0  0  0  0  0  0  0  0
   -1.0159    0.8817    3.1465 H   0  0  0  0  0  0  0  0  0  0  0  0
   -2.5571    1.3857    3.8283 H   0  0  0  0  0  0  0  0  0  0  0  0
    0.0141    1.1389    5.4185 H   0  0  0  0  0  0  0  0  0  0  0  0
    1.4727    5.1790    3.7204 H   0  0  0  0  0  0  0  0  0  0  0  0
  1  2  1  0
  1 11  1  0
  1 12  1  0
  1 13  1  0
  2  3  1  0
  2  6  1  0
  2 14  1  1
  3  4  2  0
  3  5  1  0
  6 10  1  0
  6  7  1  0
  7  8  2  0
  8  9  1  0
  8 15  1  0
  9 10  2  0
M  CHG  1   5  -1
M  END
>  <i_m_ct_stereo_status>  (367) 
1

>  <s_m_source_file>  (367) 
/var/tmp/pbs.5076255.sched01/tmpulc5pjk6/123bob0etdf.sdf

>  <i_m_source_file_index>  (367) 
38

>  <i_lp_mmshare_version>  (367) 
48012

>  <i_f3d_flags>  (367) 
0

>  <s_epik_input>  (367) 
Tz1DKFtPSF0pW0NAQEhdKFtDSDNdKW4xbltjSF1ubjE=

>  <s_epik_cmdline>  (367) 
J2VwaWtfcHl0aG9uJywgJy1waHQnLCAnMi4wJywgJy1waCcsICc3LjAnLCAnLXRuJywgJzgnLCAnLW1hJywgJzIwMCcsICctaW1hZScsICc8aW5maWxlLm1hZT4nLCAnLW9tYWUnLCAnPG91dGZpbGUubWFlPic=

>  <r_lp_tautomer_probability>  (367) 
1

>  <r_epik_Ionization_Penalty>  (367) 
0.000813084

>  <r_epik_Ionization_Penalty_Charging>  (367) 
0.000812606

>  <r_epik_Ionization_Penalty_Neutral>  (367) 
4.77861e-07

>  <r_epik_State_Penalty>  (367) 
0.000522359

>  <r_epik_Charging_Adjusted_Penalty>  (367) 
0.00133497

>  <i_epik_Tot_Q>  (367) 
-1

>  <i_epik_Tot_abs_Q>  (367) 
1

>  <s_lp_Force_Field>  (367) 
OPLS3e

>  <r_lp_Energy>  (367) 
6.20611

>  <b_lp_Chiralities_Consistent>  (367) 
1

>  <s_lp_Variant>  (367) 
107:0-1

>  <s_i_glide_gridfile>  (367) 
pfpi4k_grid

>  <i_i_glide_lignum>  (367) 
38

>  <i_i_glide_rotatable_bonds>  (367) 
2

>  <r_i_docking_score>  (367) 
-4.24616

>  <r_i_glide_ligand_efficiency>  (367) 
-0.424616

>  <r_i_glide_ligand_efficiency_sa>  (367) 
-0.914808

>  <r_i_glide_ligand_efficiency_ln>  (367) 
-1.28571

>  <r_i_glide_gscore>  (367) 
-4.24616

>  <r_i_glide_lipo>  (367) 
0

>  <r_i_glide_hbond>  (367) 
-0.2

>  <r_i_glide_metal>  (367) 
-0

>  <r_i_glide_rewards>  (367) 
-2.25

>  <r_i_glide_evdw>  (367) 
-7.77907

>  <r_i_glide_ecoul>  (367) 
-7.53609

>  <r_i_glide_erotb>  (367) 
0

>  <r_i_glide_esite>  (367) 
-0.276794

>  <r_i_glide_emodel>  (367) 
-23.394

>  <r_i_glide_energy>  (367) 
-15.3152

>  <r_i_glide_einternal>  (367) 
0.808461

>  <r_i_glide_intrahb_reward>  (367) 
-0

>  <i_i_glide_confnum>  (367) 
2

>  <i_i_glide_posenum>  (367) 
27

>  <r_i_glide_eff_state_penalty>  (367) 
0

>  <ligand_id>  (367) 
107

>  <original_smiles>  (367) 
CC(C(=O)O)n1ncnn1

>  <smiles>  (367) 
[H]c1nnn(C([H])(C(=O)[O-])C([H])([H])[H])n1

$$$$
107:0:1
     RDKit          3D

 15 15  0  0  1  0  0  0  0  0999 V2000
    2.9903   -2.4404    0.6459 C   0  0  0  0  0  0  0  0  0  0  0  0
    2.6516   -3.4479   -0.4711 C   0  0  2  0  0  0  0  0  0  0  0  0
    2.5995   -4.8787    0.0904 C   0  0  0  0  0  0  0  0  0  0  0  0
    1.4822   -5.4589    0.0754 O   0  0  0  0  0  0  0  0  0  0  0  0
    3.6508   -5.3596    0.5595 O   0  0  0  0  0  0  0  0  0  0  0  0
    3.5566   -3.3130   -1.6065 N   0  0  0  0  0  0  0  0  0  0  0  0
    4.9009   -3.4065   -1.5230 N   0  0  0  0  0  0  0  0  0  0  0  0
    5.2148   -3.2961   -2.7971 C   0  0  0  0  0  0  0  0  0  0  0  0
    4.1567   -3.0473   -3.6201 N   0  0  0  0  0  0  0  0  0  0  0  0
    3.1103   -3.0578   -2.8571 N   0  0  0  0  0  0  0  0  0  0  0  0
    2.2481   -2.4769    1.4398 H   0  0  0  0  0  0  0  0  0  0  0  0
    2.9920   -1.4188    0.2663 H   0  0  0  0  0  0  0  0  0  0  0  0
    3.9662   -2.6312    1.0916 H   0  0  0  0  0  0  0  0  0  0  0  0
    1.6584   -3.2006   -0.8429 H   0  0  0  0  0  0  0  0  0  0  0  0
    6.2366   -3.3767   -3.1467 H   0  0  0  0  0  0  0  0  0  0  0  0
  1  2  1  0
  1 11  1  0
  1 12  1  0
  1 13  1  0
  2  3  1  0
  2  6  1  0
  2 14  1  6
  3  4  2  0
  3  5  1  0
  6 10  1  0
  6  7  1  0
  7  8  2  0
  8  9  1  0
  8 15  1  0
  9 10  2  0
M  CHG  1   5  -1
M  END
>  <i_m_ct_stereo_status>  (368) 
1

>  <s_m_source_file>  (368) 
/var/tmp/pbs.5076255.sched01/tmpulc5pjk6/123bob0etdf.sdf

>  <i_m_source_file_index>  (368) 
38

>  <i_lp_mmshare_version>  (368) 
48012

>  <i_f3d_flags>  (368) 
0

>  <s_epik_input>  (368) 
Tz1DKFtPSF0pW0NAQEhdKFtDSDNdKW4xbltjSF1ubjE=

>  <s_epik_cmdline>  (368) 
J2VwaWtfcHl0aG9uJywgJy1waHQnLCAnMi4wJywgJy1waCcsICc3LjAnLCAnLXRuJywgJzgnLCAnLW1hJywgJzIwMCcsICctaW1hZScsICc8aW5maWxlLm1hZT4nLCAnLW9tYWUnLCAnPG91dGZpbGUubWFlPic=

>  <r_lp_tautomer_probability>  (368) 
1

>  <r_epik_Ionization_Penalty>  (368) 
0.000813084

>  <r_epik_Ionization_Penalty_Charging>  (368) 
0.000812606

>  <r_epik_Ionization_Penalty_Neutral>  (368) 
4.77861e-07

>  <r_epik_State_Penalty>  (368) 
0.000522359

>  <r_epik_Charging_Adjusted_Penalty>  (368) 
0.00133497

>  <i_epik_Tot_Q>  (368) 
-1

>  <i_epik_Tot_abs_Q>  (368) 
1

>  <s_lp_Force_Field>  (368) 
OPLS3e

>  <r_lp_Energy>  (368) 
6.20611

>  <b_lp_Chiralities_Consistent>  (368) 
1

>  <s_lp_Variant>  (368) 
107:0-1

>  <s_i_glide_gridfile>  (368) 
pfpi4k_grid

>  <i_i_glide_lignum>  (368) 
38

>  <i_i_glide_rotatable_bonds>  (368) 
2

>  <r_i_docking_score>  (368) 
-4.00577

>  <r_i_glide_ligand_efficiency>  (368) 
-0.400577

>  <r_i_glide_ligand_efficiency_sa>  (368) 
-0.863016

>  <r_i_glide_ligand_efficiency_ln>  (368) 
-1.21292

>  <r_i_glide_gscore>  (368) 
-4.00577

>  <r_i_glide_lipo>  (368) 
0

>  <r_i_glide_hbond>  (368) 
-0.140957

>  <r_i_glide_metal>  (368) 
-0

>  <r_i_glide_rewards>  (368) 
-2.60344

>  <r_i_glide_evdw>  (368) 
-13.8311

>  <r_i_glide_ecoul>  (368) 
-3.35125

>  <r_i_glide_erotb>  (368) 
0

>  <r_i_glide_esite>  (368) 
-0.0671265

>  <r_i_glide_emodel>  (368) 
-24.74

>  <r_i_glide_energy>  (368) 
-17.1823

>  <r_i_glide_einternal>  (368) 
1.14067

>  <r_i_glide_intrahb_reward>  (368) 
-0

>  <i_i_glide_confnum>  (368) 
2

>  <i_i_glide_posenum>  (368) 
5

>  <r_i_glide_eff_state_penalty>  (368) 
0

>  <ligand_id>  (368) 
107

>  <original_smiles>  (368) 
CC(C(=O)O)n1ncnn1

>  <smiles>  (368) 
[H]c1nnn(C([H])(C(=O)[O-])C([H])([H])[H])n1

$$$$
107:0:2
     RDKit          3D

 15 15  0  0  1  0  0  0  0  0999 V2000
    3.4320   -1.4719   -1.3721 C   0  0  0  0  0  0  0  0  0  0  0  0
    4.7559   -1.7387   -2.1027 C   0  0  2  0  0  0  0  0  0  0  0  0
    4.4945   -2.3181   -3.5012 C   0  0  0  0  0  0  0  0  0  0  0  0
    4.6024   -3.5499   -3.6988 O   0  0  0  0  0  0  0  0  0  0  0  0
    4.2147   -1.4827   -4.3860 O   0  0  0  0  0  0  0  0  0  0  0  0
    5.6725   -2.5192   -1.2826 N   0  0  0  0  0  0  0  0  0  0  0  0
    6.8947   -2.0658   -0.9368 N   0  0  0  0  0  0  0  0  0  0  0  0
    7.2998   -3.0633   -0.1683 C   0  0  0  0  0  0  0  0  0  0  0  0
    6.3812   -4.0567   -0.0164 N   0  0  0  0  0  0  0  0  0  0  0  0
    5.3547   -3.7054   -0.7161 N   0  0  0  0  0  0  0  0  0  0  0  0
    2.8008   -0.7861   -1.9429 H   0  0  0  0  0  0  0  0  0  0  0  0
    3.6047   -1.0242   -0.3912 H   0  0  0  0  0  0  0  0  0  0  0  0
    2.8756   -2.3977   -1.2280 H   0  0  0  0  0  0  0  0  0  0  0  0
    5.2222   -0.7711   -2.2723 H   0  0  0  0  0  0  0  0  0  0  0  0
    8.2701   -3.0669    0.3070 H   0  0  0  0  0  0  0  0  0  0  0  0
  1  2  1  0
  1 11  1  0
  1 12  1  0
  1 13  1  0
  2  3  1  0
  2  6  1  0
  2 14  1  6
  3  4  2  0
  3  5  1  0
  6 10  1  0
  6  7  1  0
  7  8  2  0
  8  9  1  0
  8 15  1  0
  9 10  2  0
M  CHG  1   5  -1
M  END
>  <i_m_ct_stereo_status>  (369) 
1

>  <s_m_source_file>  (369) 
/var/tmp/pbs.5076255.sched01/tmpulc5pjk6/123bob0etdf.sdf

>  <i_m_source_file_index>  (369) 
38

>  <i_lp_mmshare_version>  (369) 
48012

>  <i_f3d_flags>  (369) 
0

>  <s_epik_input>  (369) 
Tz1DKFtPSF0pW0NAQEhdKFtDSDNdKW4xbltjSF1ubjE=

>  <s_epik_cmdline>  (369) 
J2VwaWtfcHl0aG9uJywgJy1waHQnLCAnMi4wJywgJy1waCcsICc3LjAnLCAnLXRuJywgJzgnLCAnLW1hJywgJzIwMCcsICctaW1hZScsICc8aW5maWxlLm1hZT4nLCAnLW9tYWUnLCAnPG91dGZpbGUubWFlPic=

>  <r_lp_tautomer_probability>  (369) 
1

>  <r_epik_Ionization_Penalty>  (369) 
0.000813084

>  <r_epik_Ionization_Penalty_Charging>  (369) 
0.000812606

>  <r_epik_Ionization_Penalty_Neutral>  (369) 
4.77861e-07

>  <r_epik_State_Penalty>  (369) 
0.000522359

>  <r_epik_Charging_Adjusted_Penalty>  (369) 
0.00133497

>  <i_epik_Tot_Q>  (369) 
-1

>  <i_epik_Tot_abs_Q>  (369) 
1

>  <s_lp_Force_Field>  (369) 
OPLS3e

>  <r_lp_Energy>  (369) 
6.20611

>  <b_lp_Chiralities_Consistent>  (369) 
1

>  <s_lp_Variant>  (369) 
107:0-1

>  <s_i_glide_gridfile>  (369) 
pfpi4k_grid

>  <i_i_glide_lignum>  (369) 
38

>  <i_i_glide_rotatable_bonds>  (369) 
2

>  <r_i_docking_score>  (369) 
-4.00555

>  <r_i_glide_ligand_efficiency>  (369) 
-0.400555

>  <r_i_glide_ligand_efficiency_sa>  (369) 
-0.86297

>  <r_i_glide_ligand_efficiency_ln>  (369) 
-1.21285

>  <r_i_glide_gscore>  (369) 
-4.00555

>  <r_i_glide_lipo>  (369) 
0

>  <r_i_glide_hbond>  (369) 
-0.32

>  <r_i_glide_metal>  (369) 
-0

>  <r_i_glide_rewards>  (369) 
-2.54192

>  <r_i_glide_evdw>  (369) 
-12.2013

>  <r_i_glide_ecoul>  (369) 
-3.43175

>  <r_i_glide_erotb>  (369) 
0

>  <r_i_glide_esite>  (369) 
-0.0188026

>  <r_i_glide_emodel>  (369) 
-23.1066

>  <r_i_glide_energy>  (369) 
-15.6331

>  <r_i_glide_einternal>  (369) 
1.11378

>  <r_i_glide_intrahb_reward>  (369) 
-0

>  <i_i_glide_confnum>  (369) 
2

>  <i_i_glide_posenum>  (369) 
4

>  <r_i_glide_eff_state_penalty>  (369) 
0

>  <ligand_id>  (369) 
107

>  <original_smiles>  (369) 
CC(C(=O)O)n1ncnn1

>  <smiles>  (369) 
[H]c1nnn(C([H])(C(=O)[O-])C([H])([H])[H])n1

$$$$
108:0:0
     RDKit          3D

 40 46  0  0  1  0  0  0  0  0999 V2000
    3.4205   -0.1997   -5.9077 C   0  0  0  0  0  0  0  0  0  0  0  0
    3.9557   -1.2409   -5.1174 O   0  0  0  0  0  0  0  0  0  0  0  0
    3.1714   -1.5224   -3.9372 C   0  0  2  0  0  0  0  0  0  0  0  0
    3.4497   -0.4972   -2.8901 C   0  0  0  0  0  0  0  0  0  0  0  0
    3.9159   -1.8782   -2.6917 C   0  0  2  0  0  0  0  0  0  0  0  0
    5.2260   -2.5909   -2.7346 C   0  0  1  0  0  0  0  0  0  0  0  0
    6.0982   -2.0563   -1.6247 C   0  0  2  0  0  0  0  0  0  0  0  0
    7.2165   -3.0852   -1.4761 C   0  0  0  0  0  0  0  0  0  0  0  0
    6.5281   -4.0954   -0.5542 C   0  0  1  0  0  0  0  0  0  0  0  0
    6.1055   -3.1801    0.5789 C   0  0  2  0  0  0  0  0  0  0  0  0
    5.0947   -4.0148    1.3350 C   0  0  0  0  0  0  0  0  0  0  0  0
    4.2083   -4.1716    0.1184 C   0  0  2  0  0  0  0  0  0  0  0  0
    5.1286   -4.6380   -1.0429 C   0  0  1  0  0  0  0  0  0  0  0  0
    4.5566   -3.8643   -2.2568 C   0  0  1  0  0  0  0  0  0  0  0  0
    3.4403   -2.9672   -1.7844 C   0  0  1  0  0  0  0  0  0  0  0  0
    3.8818   -2.7376   -0.3388 C   0  0  1  0  0  0  0  0  0  0  0  0
    2.8518   -1.9985    0.5181 C   0  0  0  0  0  0  0  0  0  0  0  0
    5.3364   -2.1052   -0.2350 C   0  0  2  0  0  0  0  0  0  0  0  0
    3.7500   -0.3572   -6.9348 H   0  0  0  0  0  0  0  0  0  0  0  0
    3.7522    0.7855   -5.5520 H   0  0  0  0  0  0  0  0  0  0  0  0
    2.3417   -0.2474   -5.9896 H   0  0  0  0  0  0  0  0  0  0  0  0
    2.1464   -1.8312   -4.0775 H   0  0  0  0  0  0  0  0  0  0  0  0
    4.1794    0.2655   -3.1439 H   0  0  0  0  0  0  0  0  0  0  0  0
    2.5562   -0.2447   -2.3238 H   0  0  0  0  0  0  0  0  0  0  0  0
    5.6482   -2.7159   -3.7236 H   0  0  0  0  0  0  0  0  0  0  0  0
    6.4065   -1.0715   -1.8602 H   0  0  0  0  0  0  0  0  0  0  0  0
    7.5255   -3.5264   -2.4236 H   0  0  0  0  0  0  0  0  0  0  0  0
    8.0999   -2.6563   -0.9996 H   0  0  0  0  0  0  0  0  0  0  0  0
    7.1846   -4.8909   -0.2039 H   0  0  0  0  0  0  0  0  0  0  0  0
    6.9467   -2.7926    1.1536 H   0  0  0  0  0  0  0  0  0  0  0  0
    5.4971   -4.9677    1.6811 H   0  0  0  0  0  0  0  0  0  0  0  0
    4.6203   -3.4867    2.1618 H   0  0  0  0  0  0  0  0  0  0  0  0
    3.3194   -4.7895    0.2373 H   0  0  0  0  0  0  0  0  0  0  0  0
    5.1020   -5.7195   -1.1607 H   0  0  0  0  0  0  0  0  0  0  0  0
    4.2801   -4.4344   -3.1347 H   0  0  0  0  0  0  0  0  0  0  0  0
    2.4477   -3.3629   -1.9813 H   0  0  0  0  0  0  0  0  0  0  0  0
    2.6468   -1.0088    0.1076 H   0  0  0  0  0  0  0  0  0  0  0  0
    3.1948   -1.8566    1.5427 H   0  0  0  0  0  0  0  0  0  0  0  0
    1.9159   -2.5548    0.5408 H   0  0  0  0  0  0  0  0  0  0  0  0
    5.3304   -1.1370    0.2598 H   0  0  0  0  0  0  0  0  0  0  0  0
  1  2  1  0
  1 19  1  0
  1 20  1  0
  1 21  1  0
  2  3  1  0
  3  5  1  0
  3  4  1  0
  3 22  1  6
  5  4  1  1
  4 23  1  0
  4 24  1  0
  5 15  1  0
  5  6  1  0
  6 14  1  0
  6  7  1  0
  6 25  1  6
  7 18  1  0
  7  8  1  0
  7 26  1  6
  8  9  1  0
  8 27  1  0
  8 28  1  0
  9 13  1  0
  9 10  1  0
  9 29  1  1
 10 18  1  0
 10 11  1  0
 10 30  1  1
 11 12  1  0
 11 31  1  0
 11 32  1  0
 12 16  1  0
 12 13  1  0
 12 33  1  1
 13 14  1  0
 13 34  1  6
 14 15  1  0
 14 35  1  6
 15 16  1  0
 15 36  1  1
 16 17  1  1
 16 18  1  0
 17 37  1  0
 17 38  1  0
 17 39  1  0
 18 40  1  1
M  END
>  <i_m_ct_stereo_status>  (370) 
1

>  <s_m_source_file>  (370) 
/var/tmp/pbs.5076255.sched01/tmpulc5pjk6/123bob0etdf.sdf

>  <i_m_source_file_index>  (370) 
39

>  <i_lp_mmshare_version>  (370) 
48012

>  <i_f3d_flags>  (370) 
2

>  <s_epik_input>  (370) 
W0NIM11PW0NASF0oW0NIMl0xKVtDQF0xMltDSF0zW0NASF00W0NAQEhdNVtDQEBIXTZbQ0BIXShbQ0gyXTQpW0NASF03W0NAQEhdKFtDSDJdNilbQ0BdNShbQ0gzXSlbQ0hdMltDQEhdMzc=

>  <s_epik_cmdline>  (370) 
J2VwaWtfcHl0aG9uJywgJy1waHQnLCAnMi4wJywgJy1waCcsICc3LjAnLCAnLXRuJywgJzgnLCAnLW1hJywgJzIwMCcsICctaW1hZScsICc8aW5maWxlLm1hZT4nLCAnLW9tYWUnLCAnPG91dGZpbGUubWFlPic=

>  <r_lp_tautomer_probability>  (370) 
1

>  <r_epik_Ionization_Penalty>  (370) 
8.1544e-11

>  <r_epik_Ionization_Penalty_Charging>  (370) 
0

>  <r_epik_Ionization_Penalty_Neutral>  (370) 
8.1544e-11

>  <r_epik_State_Penalty>  (370) 
-0

>  <r_epik_Charging_Adjusted_Penalty>  (370) 
0

>  <i_epik_Tot_Q>  (370) 
0

>  <i_epik_Tot_abs_Q>  (370) 
0

>  <s_lp_Force_Field>  (370) 
OPLS3e

>  <r_lp_Energy>  (370) 
85.4393

>  <b_lp_Chiralities_Consistent>  (370) 
0

>  <s_lp_Variant>  (370) 
108:0-1

>  <s_i_glide_gridfile>  (370) 
pfpi4k_grid

>  <i_i_glide_lignum>  (370) 
39

>  <i_i_glide_rotatable_bonds>  (370) 
1

>  <r_i_docking_score>  (370) 
-3.64152

>  <r_i_glide_ligand_efficiency>  (370) 
-0.202307

>  <r_i_glide_ligand_efficiency_sa>  (370) 
-0.530193

>  <r_i_glide_ligand_efficiency_ln>  (370) 
-0.936034

>  <r_i_glide_gscore>  (370) 
-3.64152

>  <r_i_glide_lipo>  (370) 
-0.423943

>  <r_i_glide_hbond>  (370) 
-0.32

>  <r_i_glide_metal>  (370) 
-0

>  <r_i_glide_rewards>  (370) 
-1.75666

>  <r_i_glide_evdw>  (370) 
-10.3567

>  <r_i_glide_ecoul>  (370) 
-4.15386

>  <r_i_glide_erotb>  (370) 
0

>  <r_i_glide_esite>  (370) 
0

>  <r_i_glide_emodel>  (370) 
-17.6244

>  <r_i_glide_energy>  (370) 
-14.5105

>  <r_i_glide_einternal>  (370) 
0.424682

>  <r_i_glide_intrahb_reward>  (370) 
-0

>  <i_i_glide_confnum>  (370) 
1

>  <i_i_glide_posenum>  (370) 
5

>  <r_i_glide_eff_state_penalty>  (370) 
0

>  <ligand_id>  (370) 
108

>  <original_smiles>  (370) 
COC1CC12C1C3CC4C5CC6C4C1C2C6(C)C53

>  <smiles>  (370) 
[H]C([H])([H])OC1([H])C([H])([H])C12C1([H])C3([H])C([H])([H])C4([H])C5([H])C([H])([H])C6([H])C4([H])C1([H])C2([H])C6(C([H])([H])[H])C53[H]

$$$$
108:0:1
     RDKit          3D

 40 46  0  0  1  0  0  0  0  0999 V2000
    3.6276    0.0511   -4.0464 C   0  0  0  0  0  0  0  0  0  0  0  0
    4.2064   -1.0985   -3.4420 O   0  0  0  0  0  0  0  0  0  0  0  0
    3.5646   -1.4635   -2.2223 C   0  0  2  0  0  0  0  0  0  0  0  0
    4.0876   -0.6706   -1.0351 C   0  0  0  0  0  0  0  0  0  0  0  0
    4.4671   -2.1061   -1.1946 C   0  0  2  0  0  0  0  0  0  0  0  0
    5.7487   -2.8078   -1.5347 C   0  0  1  0  0  0  0  0  0  0  0  0
    6.7706   -2.5477   -0.4291 C   0  0  2  0  0  0  0  0  0  0  0  0
    7.8356   -3.6237   -0.6370 C   0  0  0  0  0  0  0  0  0  0  0  0
    7.1944   -4.8019    0.1055 C   0  0  1  0  0  0  0  0  0  0  0  0
    6.9480   -4.1429    1.4524 C   0  0  2  0  0  0  0  0  0  0  0  0
    5.9816   -5.0907    2.1395 C   0  0  0  0  0  0  0  0  0  0  0  0
    4.9545   -4.9465    1.0376 C   0  0  2  0  0  0  0  0  0  0  0  0
    5.7135   -5.1765   -0.2995 C   0  0  1  0  0  0  0  0  0  0  0  0
    5.0613   -4.1607   -1.2631 C   0  0  1  0  0  0  0  0  0  0  0  0
    4.0562   -3.3517   -0.4689 C   0  0  1  0  0  0  0  0  0  0  0  0
    4.6573   -3.4395    0.9336 C   0  0  1  0  0  0  0  0  0  0  0  0
    3.7446   -2.8870    2.0361 C   0  0  0  0  0  0  0  0  0  0  0  0
    6.1537   -2.8827    0.9988 C   0  0  2  0  0  0  0  0  0  0  0  0
    4.0644    0.2086   -5.0361 H   0  0  0  0  0  0  0  0  0  0  0  0
    3.8247    0.9495   -3.4600 H   0  0  0  0  0  0  0  0  0  0  0  0
    2.5473   -0.0450   -4.1818 H   0  0  0  0  0  0  0  0  0  0  0  0
    2.5137   -1.7159   -2.2799 H   0  0  0  0  0  0  0  0  0  0  0  0
    4.8442    0.0730   -1.2513 H   0  0  0  0  0  0  0  0  0  0  0  0
    3.3904   -0.4464   -0.2191 H   0  0  0  0  0  0  0  0  0  0  0  0
    6.0813   -2.6888   -2.5694 H   0  0  0  0  0  0  0  0  0  0  0  0
    7.1774   -1.5393   -0.4624 H   0  0  0  0  0  0  0  0  0  0  0  0
    8.0442   -3.8438   -1.6861 H   0  0  0  0  0  0  0  0  0  0  0  0
    8.7765   -3.3323   -0.1721 H   0  0  0  0  0  0  0  0  0  0  0  0
    7.8437   -5.6793    0.1859 H   0  0  0  0  0  0  0  0  0  0  0  0
    7.8876   -3.9623    1.9757 H   0  0  0  0  0  0  0  0  0  0  0  0
    6.3689   -6.1109    2.2394 H   0  0  0  0  0  0  0  0  0  0  0  0
    5.6402   -4.7454    3.1188 H   0  0  0  0  0  0  0  0  0  0  0  0
    4.0620   -5.5658    1.1426 H   0  0  0  0  0  0  0  0  0  0  0  0
    5.5986   -6.2144   -0.6205 H   0  0  0  0  0  0  0  0  0  0  0  0
    4.6192   -4.5820   -2.1659 H   0  0  0  0  0  0  0  0  0  0  0  0
    3.0235   -3.6806   -0.6115 H   0  0  0  0  0  0  0  0  0  0  0  0
    3.5321   -1.8306    1.8713 H   0  0  0  0  0  0  0  0  0  0  0  0
    4.2009   -2.9773    3.0191 H   0  0  0  0  0  0  0  0  0  0  0  0
    2.7927   -3.4191    2.0585 H   0  0  0  0  0  0  0  0  0  0  0  0
    6.2515   -2.0624    1.7044 H   0  0  0  0  0  0  0  0  0  0  0  0
  1  2  1  0
  1 19  1  0
  1 20  1  0
  1 21  1  0
  2  3  1  0
  3  5  1  0
  3  4  1  0
  3 22  1  6
  5  4  1  1
  4 23  1  0
  4 24  1  0
  5 15  1  0
  5  6  1  0
  6 14  1  0
  6  7  1  0
  6 25  1  6
  7 18  1  0
  7  8  1  0
  7 26  1  1
  8  9  1  0
  8 27  1  0
  8 28  1  0
  9 13  1  0
  9 10  1  0
  9 29  1  1
 10 18  1  0
 10 11  1  0
 10 30  1  1
 11 12  1  0
 11 31  1  0
 11 32  1  0
 12 16  1  0
 12 13  1  0
 12 33  1  1
 13 14  1  0
 13 34  1  6
 14 15  1  0
 14 35  1  6
 15 16  1  0
 15 36  1  1
 16 17  1  1
 16 18  1  0
 17 37  1  0
 17 38  1  0
 17 39  1  0
 18 40  1  1
M  END
>  <i_m_ct_stereo_status>  (371) 
1

>  <s_m_source_file>  (371) 
/var/tmp/pbs.5076255.sched01/tmpulc5pjk6/123bob0etdf.sdf

>  <i_m_source_file_index>  (371) 
39

>  <i_lp_mmshare_version>  (371) 
48012

>  <i_f3d_flags>  (371) 
2

>  <s_epik_input>  (371) 
W0NIM11PW0NASF0oW0NIMl0xKVtDQF0xMltDSF0zW0NASF00W0NAQEhdNVtDQEBIXTZbQ0BIXShbQ0gyXTQpW0NASF03W0NAQEhdKFtDSDJdNilbQ0BdNShbQ0gzXSlbQ0hdMltDQEhdMzc=

>  <s_epik_cmdline>  (371) 
J2VwaWtfcHl0aG9uJywgJy1waHQnLCAnMi4wJywgJy1waCcsICc3LjAnLCAnLXRuJywgJzgnLCAnLW1hJywgJzIwMCcsICctaW1hZScsICc8aW5maWxlLm1hZT4nLCAnLW9tYWUnLCAnPG91dGZpbGUubWFlPic=

>  <r_lp_tautomer_probability>  (371) 
1

>  <r_epik_Ionization_Penalty>  (371) 
8.1544e-11

>  <r_epik_Ionization_Penalty_Charging>  (371) 
0

>  <r_epik_Ionization_Penalty_Neutral>  (371) 
8.1544e-11

>  <r_epik_State_Penalty>  (371) 
-0

>  <r_epik_Charging_Adjusted_Penalty>  (371) 
0

>  <i_epik_Tot_Q>  (371) 
0

>  <i_epik_Tot_abs_Q>  (371) 
0

>  <s_lp_Force_Field>  (371) 
OPLS3e

>  <r_lp_Energy>  (371) 
85.4393

>  <b_lp_Chiralities_Consistent>  (371) 
0

>  <s_lp_Variant>  (371) 
108:0-1

>  <s_i_glide_gridfile>  (371) 
pfpi4k_grid

>  <i_i_glide_lignum>  (371) 
39

>  <i_i_glide_rotatable_bonds>  (371) 
1

>  <r_i_docking_score>  (371) 
-3.38765

>  <r_i_glide_ligand_efficiency>  (371) 
-0.188203

>  <r_i_glide_ligand_efficiency_sa>  (371) 
-0.493231

>  <r_i_glide_ligand_efficiency_ln>  (371) 
-0.870779

>  <r_i_glide_gscore>  (371) 
-3.38765

>  <r_i_glide_lipo>  (371) 
-0.729742

>  <r_i_glide_hbond>  (371) 
0

>  <r_i_glide_metal>  (371) 
-0

>  <r_i_glide_rewards>  (371) 
-1.75666

>  <r_i_glide_evdw>  (371) 
-13.2526

>  <r_i_glide_ecoul>  (371) 
-1.5908

>  <r_i_glide_erotb>  (371) 
0

>  <r_i_glide_esite>  (371) 
0

>  <r_i_glide_emodel>  (371) 
-18.3332

>  <r_i_glide_energy>  (371) 
-14.8434

>  <r_i_glide_einternal>  (371) 
0.0964841

>  <r_i_glide_intrahb_reward>  (371) 
-0

>  <i_i_glide_confnum>  (371) 
1

>  <i_i_glide_posenum>  (371) 
23

>  <r_i_glide_eff_state_penalty>  (371) 
0

>  <ligand_id>  (371) 
108

>  <original_smiles>  (371) 
COC1CC12C1C3CC4C5CC6C4C1C2C6(C)C53

>  <smiles>  (371) 
[H]C([H])([H])OC1([H])C([H])([H])C12C1([H])C3([H])C([H])([H])C4([H])C5([H])C([H])([H])C6([H])C4([H])C1([H])C2([H])C6(C([H])([H])[H])C53[H]

$$$$
108:0:2
     RDKit          3D

 40 46  0  0  1  0  0  0  0  0999 V2000
    4.2338   -1.2154   -3.8736 C   0  0  0  0  0  0  0  0  0  0  0  0
    4.6046   -0.7054   -2.5878 O   0  0  0  0  0  0  0  0  0  0  0  0
    3.7174   -1.1990   -1.5893 C   0  0  2  0  0  0  0  0  0  0  0  0
    4.0724   -0.6807   -0.1780 C   0  0  0  0  0  0  0  0  0  0  0  0
    4.3547   -2.1082   -0.5334 C   0  0  2  0  0  0  0  0  0  0  0  0
    5.6052   -2.8897   -0.7993 C   0  0  1  0  0  0  0  0  0  0  0  0
    6.3861   -2.9929    0.5169 C   0  0  2  0  0  0  0  0  0  0  0  0
    7.3738   -4.1396    0.2935 C   0  0  0  0  0  0  0  0  0  0  0  0
    6.4949   -5.3409    0.6312 C   0  0  1  0  0  0  0  0  0  0  0  0
    6.0124   -4.9370    2.0185 C   0  0  2  0  0  0  0  0  0  0  0  0
    4.8443   -5.8650    2.2698 C   0  0  0  0  0  0  0  0  0  0  0  0
    4.1049   -5.3761    1.0503 C   0  0  2  0  0  0  0  0  0  0  0  0
    5.1101   -5.4399   -0.1434 C   0  0  1  0  0  0  0  0  0  0  0  0
    4.7749   -4.1859   -0.9398 C   0  0  1  0  0  0  0  0  0  0  0  0
    3.6863   -3.4078   -0.2220 C   0  0  1  0  0  0  0  0  0  0  0  0
    3.9649   -3.8508    1.2206 C   0  0  1  0  0  0  0  0  0  0  0  0
    2.8870   -3.4057    2.2276 C   0  0  0  0  0  0  0  0  0  0  0  0
    5.4543   -3.5142    1.6971 C   0  0  2  0  0  0  0  0  0  0  0  0
    4.8900   -0.8248   -4.6436 H   0  0  0  0  0  0  0  0  0  0  0  0
    3.2111   -0.9203   -4.1422 H   0  0  0  0  0  0  0  0  0  0  0  0
    4.2983   -2.3032   -3.8898 H   0  0  0  0  0  0  0  0  0  0  0  0
    2.6723   -1.2348   -1.8327 H   0  0  0  0  0  0  0  0  0  0  0  0
    4.9286   -0.0248   -0.0652 H   0  0  0  0  0  0  0  0  0  0  0  0
    3.2304   -0.4914    0.4820 H   0  0  0  0  0  0  0  0  0  0  0  0
    6.1719   -2.6101   -1.6799 H   0  0  0  0  0  0  0  0  0  0  0  0
    6.8974   -2.0580    0.7740 H   0  0  0  0  0  0  0  0  0  0  0  0
    7.7777   -4.1732   -0.7157 H   0  0  0  0  0  0  0  0  0  0  0  0
    8.2178   -4.0783    0.9840 H   0  0  0  0  0  0  0  0  0  0  0  0
    7.0363   -6.2946    0.6381 H   0  0  0  0  0  0  0  0  0  0  0  0
    6.7976   -4.9666    2.7775 H   0  0  0  0  0  0  0  0  0  0  0  0
    5.1122   -6.9158    2.2226 H   0  0  0  0  0  0  0  0  0  0  0  0
    4.3267   -5.6668    3.2138 H   0  0  0  0  0  0  0  0  0  0  0  0
    3.1553   -5.8861    0.8432 H   0  0  0  0  0  0  0  0  0  0  0  0
    5.0164   -6.3624   -0.7114 H   0  0  0  0  0  0  0  0  0  0  0  0
    4.4984   -4.3445   -2.0022 H   0  0  0  0  0  0  0  0  0  0  0  0
    2.6802   -3.5677   -0.6001 H   0  0  0  0  0  0  0  0  0  0  0  0
    2.8080   -2.3189    2.2538 H   0  0  0  0  0  0  0  0  0  0  0  0
    3.1103   -3.7392    3.2425 H   0  0  0  0  0  0  0  0  0  0  0  0
    1.9077   -3.8024    1.9558 H   0  0  0  0  0  0  0  0  0  0  0  0
    5.4735   -2.8615    2.5721 H   0  0  0  0  0  0  0  0  0  0  0  0
  1  2  1  0
  1 19  1  0
  1 20  1  0
  1 21  1  0
  2  3  1  0
  3  5  1  0
  3  4  1  0
  3 22  1  6
  5  4  1  1
  4 23  1  0
  4 24  1  0
  5 15  1  0
  5  6  1  0
  6 14  1  0
  6  7  1  0
  6 25  1  6
  7 18  1  0
  7  8  1  0
  7 26  1  1
  8  9  1  0
  8 27  1  0
  8 28  1  0
  9 13  1  0
  9 10  1  0
  9 29  1  1
 10 18  1  0
 10 11  1  0
 10 30  1  1
 11 12  1  0
 11 31  1  0
 11 32  1  0
 12 16  1  0
 12 13  1  0
 12 33  1  6
 13 14  1  0
 13 34  1  6
 14 15  1  0
 14 35  1  6
 15 16  1  0
 15 36  1  6
 16 17  1  1
 16 18  1  0
 17 37  1  0
 17 38  1  0
 17 39  1  0
 18 40  1  1
M  END
>  <i_m_ct_stereo_status>  (372) 
1

>  <s_m_source_file>  (372) 
/var/tmp/pbs.5076255.sched01/tmpulc5pjk6/123bob0etdf.sdf

>  <i_m_source_file_index>  (372) 
39

>  <i_lp_mmshare_version>  (372) 
48012

>  <i_f3d_flags>  (372) 
2

>  <s_epik_input>  (372) 
W0NIM11PW0NASF0oW0NIMl0xKVtDQF0xMltDSF0zW0NASF00W0NAQEhdNVtDQEBIXTZbQ0BIXShbQ0gyXTQpW0NASF03W0NAQEhdKFtDSDJdNilbQ0BdNShbQ0gzXSlbQ0hdMltDQEhdMzc=

>  <s_epik_cmdline>  (372) 
J2VwaWtfcHl0aG9uJywgJy1waHQnLCAnMi4wJywgJy1waCcsICc3LjAnLCAnLXRuJywgJzgnLCAnLW1hJywgJzIwMCcsICctaW1hZScsICc8aW5maWxlLm1hZT4nLCAnLW9tYWUnLCAnPG91dGZpbGUubWFlPic=

>  <r_lp_tautomer_probability>  (372) 
1

>  <r_epik_Ionization_Penalty>  (372) 
8.1544e-11

>  <r_epik_Ionization_Penalty_Charging>  (372) 
0

>  <r_epik_Ionization_Penalty_Neutral>  (372) 
8.1544e-11

>  <r_epik_State_Penalty>  (372) 
-0

>  <r_epik_Charging_Adjusted_Penalty>  (372) 
0

>  <i_epik_Tot_Q>  (372) 
0

>  <i_epik_Tot_abs_Q>  (372) 
0

>  <s_lp_Force_Field>  (372) 
OPLS3e

>  <r_lp_Energy>  (372) 
85.4393

>  <b_lp_Chiralities_Consistent>  (372) 
0

>  <s_lp_Variant>  (372) 
108:0-1

>  <s_i_glide_gridfile>  (372) 
pfpi4k_grid

>  <i_i_glide_lignum>  (372) 
39

>  <i_i_glide_rotatable_bonds>  (372) 
1

>  <r_i_docking_score>  (372) 
-3.26136

>  <r_i_glide_ligand_efficiency>  (372) 
-0.181187

>  <r_i_glide_ligand_efficiency_sa>  (372) 
-0.474843

>  <r_i_glide_ligand_efficiency_ln>  (372) 
-0.838316

>  <r_i_glide_gscore>  (372) 
-3.26136

>  <r_i_glide_lipo>  (372) 
-0.649059

>  <r_i_glide_hbond>  (372) 
0

>  <r_i_glide_metal>  (372) 
-0

>  <r_i_glide_rewards>  (372) 
-1.75666

>  <r_i_glide_evdw>  (372) 
-15.8929

>  <r_i_glide_ecoul>  (372) 
-0.406631

>  <r_i_glide_erotb>  (372) 
0

>  <r_i_glide_esite>  (372) 
0

>  <r_i_glide_emodel>  (372) 
-19.4347

>  <r_i_glide_energy>  (372) 
-16.2995

>  <r_i_glide_einternal>  (372) 
0.420618

>  <r_i_glide_intrahb_reward>  (372) 
-0

>  <i_i_glide_confnum>  (372) 
2

>  <i_i_glide_posenum>  (372) 
34

>  <r_i_glide_eff_state_penalty>  (372) 
0

>  <ligand_id>  (372) 
108

>  <original_smiles>  (372) 
COC1CC12C1C3CC4C5CC6C4C1C2C6(C)C53

>  <smiles>  (372) 
[H]C([H])([H])OC1([H])C([H])([H])C12C1([H])C3([H])C([H])([H])C4([H])C5([H])C([H])([H])C6([H])C4([H])C1([H])C2([H])C6(C([H])([H])[H])C53[H]

$$$$
